MODEL        1
REMARK 921   NORMALIZED FREE ENERGY PREDICTED BY IDOCK:   -7.74 KCAL/MOL
REMARK 922        TOTAL FREE ENERGY PREDICTED BY IDOCK:  -14.36 KCAL/MOL
REMARK 923 INTER-LIGAND FREE ENERGY PREDICTED BY IDOCK:  -12.72 KCAL/MOL
REMARK 924 INTRA-LIGAND FREE ENERGY PREDICTED BY IDOCK:   -1.63 KCAL/MOL
REMARK 927      BINDING AFFINITY PREDICTED BY RF-SCORE:    0.00 PKD
ROOT
HETATM    1  C   UNL     1      -9.580  10.640  62.400  1.00  0.00    -0.138 C  
HETATM    2  N   UNL     1      -9.557  11.413  63.633  1.00  0.00    -0.260 N  
HETATM    3  O   UNL     1     -11.529  12.423  62.979  1.00  0.00    -0.282 OA 
HETATM    4  C   UNL     1     -10.656  12.278  63.837  1.00  0.00    -0.427 C  
ENDROOT
BRANCH   2   5
HETATM    5  C   UNL     1      -8.625  11.062  64.706  1.00  0.00     0.084 C  
BRANCH   5   6
HETATM    6  C   UNL     1      -8.016   9.654  64.808  1.00  0.00    -0.129 C  
BRANCH   6   7
HETATM    7  N   UNL     1      -9.027   8.664  65.251  1.00  0.00    -0.148 NA 
HETATM    8  C   UNL     1      -9.950   9.221  66.250  1.00  0.00    -0.286 C  
HETATM    9  C   UNL     1      -8.460   7.402  65.756  1.00  0.00    -0.143 C  
HETATM   10  C   UNL     1      -8.583   8.197  68.131  1.00  0.00    -0.129 C  
HETATM   11  C   UNL     1      -7.680   7.589  67.054  1.00  0.00    -0.111 C  
HETATM   12  C   UNL     1      -9.300   9.448  67.616  1.00  0.00    -0.146 C  
BRANCH  10  13
HETATM   13  O   UNL     1      -9.587   7.236  68.513  1.00  0.00    -0.140 OA 
BRANCH  13  14
HETATM   14  C   UNL     1      -9.276   6.486  69.604  1.00  0.00    -0.143 C  
HETATM   15  H   UNL     1     -10.921   5.342  69.077  1.00  0.00     0.000 HD 
HETATM   16  O   UNL     1      -8.255   6.610  70.263  1.00  0.00    -0.122 OA 
HETATM   17  N   UNL     1     -10.289   5.600  69.835  1.00  0.00    -0.251 N  
BRANCH  17  18
HETATM   18  C   UNL     1     -10.465   5.042  71.118  1.00  0.00    -0.135 A  
HETATM   19  C   UNL     1     -11.274   5.668  72.093  1.00  0.00    -0.288 A  
HETATM   20  C   UNL     1      -9.949   3.190  72.597  1.00  0.00    -0.219 A  
HETATM   21  C   UNL     1     -11.389   4.987  73.325  1.00  0.00    -0.393 A  
HETATM   22  C   UNL     1     -10.751   3.764  73.571  1.00  0.00    -0.304 A  
HETATM   23  C   UNL     1      -9.797   3.832  71.375  1.00  0.00    -0.226 A  
BRANCH  19  24
HETATM   24  C   UNL     1     -12.009   6.955  71.895  1.00  0.00    -0.363 A  
HETATM   25  C   UNL     1     -13.390   7.009  71.631  1.00  0.00    -0.356 A  
HETATM   26  C   UNL     1     -14.059   8.224  71.428  1.00  0.00    -0.382 A  
HETATM   27  C   UNL     1     -13.356   9.422  71.450  1.00  0.00    -0.417 A  
HETATM   28  C   UNL     1     -11.989   9.406  71.698  1.00  0.00    -0.465 A  
HETATM   29  C   UNL     1     -11.332   8.193  71.932  1.00  0.00    -0.356 A  
ENDBRANCH  19  24
ENDBRANCH  17  18
ENDBRANCH  13  14
ENDBRANCH  10  13
ENDBRANCH   6   7
ENDBRANCH   5   6
ENDBRANCH   2   5
BRANCH   4  30
HETATM   30  C   UNL     1     -10.860  12.981  65.147  1.00  0.00    -0.320 A  
HETATM   31  C   UNL     1     -10.211  14.211  65.340  1.00  0.00    -0.380 A  
HETATM   32  C   UNL     1     -11.657  12.484  66.182  1.00  0.00    -0.448 A  
HETATM   33  C   UNL     1     -11.940  13.264  67.304  1.00  0.00    -0.393 A  
HETATM   34  C   UNL     1     -10.439  14.967  66.496  1.00  0.00    -0.297 A  
HETATM   35  C   UNL     1     -11.336  14.516  67.471  1.00  0.00    -0.355 A  
BRANCH  35  36
HETATM   36  C   UNL     1     -11.634  15.336  68.709  1.00  0.00    -0.362 C  
BRANCH  36  37
HETATM   37  N   UNL     1     -11.572  14.541  69.945  1.00  0.00    -0.274 NA 
HETATM   38  C   UNL     1     -12.892  14.070  70.375  1.00  0.00    -0.170 C  
HETATM   39  C   UNL     1     -10.869  15.221  71.043  1.00  0.00    -0.134 C  
HETATM   40  C   UNL     1     -11.674  16.359  71.676  1.00  0.00    -0.372 C  
HETATM   41  C   UNL     1     -13.772  15.169  70.978  1.00  0.00    -0.450 C  
HETATM   42  C   UNL     1     -13.062  15.890  72.129  1.00  0.00    -0.440 C  
BRANCH  42  43
HETATM   43  C   UNL     1     -12.972  15.019  73.382  1.00  0.00    -0.498 C  
HETATM   44  N   UNL     1     -12.709  15.682  74.543  1.00  0.00    -0.809 N  
HETATM   45  H2  UNL     1     -12.581  16.693  74.574  1.00  0.00     0.000 HD 
HETATM   46  O   UNL     1     -13.086  13.797  73.393  1.00  0.00    -0.347 OA 
HETATM   47  H1  UNL     1     -12.650  15.100  75.380  1.00  0.00     0.000 HD 
ENDBRANCH  42  43
ENDBRANCH  36  37
ENDBRANCH  35  36
ENDBRANCH   4  30
TORSDOF 11
ENDMDL
MODEL        2
REMARK 921   NORMALIZED FREE ENERGY PREDICTED BY IDOCK:   -7.72 KCAL/MOL
REMARK 922        TOTAL FREE ENERGY PREDICTED BY IDOCK:  -14.33 KCAL/MOL
REMARK 923 INTER-LIGAND FREE ENERGY PREDICTED BY IDOCK:  -11.74 KCAL/MOL
REMARK 924 INTRA-LIGAND FREE ENERGY PREDICTED BY IDOCK:   -2.58 KCAL/MOL
REMARK 927      BINDING AFFINITY PREDICTED BY RF-SCORE:    0.00 PKD
ROOT
HETATM    1  C   UNL     1      -5.956   8.550  62.362  1.00  0.00    -0.084 C  
HETATM    2  N   UNL     1      -6.920   8.299  63.423  1.00  0.00    -0.084 N  
HETATM    3  O   UNL     1      -5.190   7.535  64.749  1.00  0.00    -0.028 OA 
HETATM    4  C   UNL     1      -6.386   7.808  64.636  1.00  0.00    -0.045 C  
ENDROOT
BRANCH   2   5
HETATM    5  C   UNL     1      -8.281   8.827  63.321  1.00  0.00    -0.176 C  
BRANCH   5   6
HETATM    6  C   UNL     1      -8.619  10.259  63.766  1.00  0.00    -0.187 C  
BRANCH   6   7
HETATM    7  N   UNL     1      -9.986  10.334  64.335  1.00  0.00    -0.317 NA 
HETATM    8  C   UNL     1     -10.669  11.587  63.981  1.00  0.00    -0.384 C  
HETATM    9  C   UNL     1     -10.049  10.136  65.793  1.00  0.00    -0.254 C  
HETATM   10  C   UNL     1     -10.023  12.609  66.216  1.00  0.00    -0.258 C  
HETATM   11  C   UNL     1      -9.374  11.266  66.566  1.00  0.00    -0.201 C  
HETATM   12  C   UNL     1     -10.100  12.812  64.700  1.00  0.00    -0.256 C  
BRANCH  10  13
HETATM   13  O   UNL     1     -11.367  12.642  66.736  1.00  0.00    -0.285 OA 
BRANCH  13  14
HETATM   14  C   UNL     1     -11.645  13.708  67.534  1.00  0.00    -0.350 C  
HETATM   15  H   UNL     1     -10.357  12.816  68.889  1.00  0.00     0.000 HD 
HETATM   16  O   UNL     1     -12.274  14.693  67.180  1.00  0.00    -0.301 OA 
HETATM   17  N   UNL     1     -11.122  13.480  68.774  1.00  0.00    -0.255 N  
BRANCH  17  18
HETATM   18  C   UNL     1     -11.637  14.160  69.897  1.00  0.00    -0.264 A  
HETATM   19  C   UNL     1     -11.164  15.438  70.269  1.00  0.00    -0.328 A  
HETATM   20  C   UNL     1     -13.239  14.116  71.718  1.00  0.00    -0.450 A  
HETATM   21  C   UNL     1     -11.788  16.019  71.396  1.00  0.00    -0.531 A  
HETATM   22  C   UNL     1     -12.815  15.379  72.101  1.00  0.00    -0.466 A  
HETATM   23  C   UNL     1     -12.645  13.502  70.624  1.00  0.00    -0.345 A  
BRANCH  19  24
HETATM   24  C   UNL     1     -10.094  16.195  69.551  1.00  0.00    -0.241 A  
HETATM   25  C   UNL     1      -8.758  15.757  69.496  1.00  0.00    -0.160 A  
HETATM   26  C   UNL     1      -7.764  16.490  68.834  1.00  0.00    -0.236 A  
HETATM   27  C   UNL     1      -8.072  17.705  68.236  1.00  0.00    -0.278 A  
HETATM   28  C   UNL     1      -9.379  18.175  68.280  1.00  0.00    -0.312 A  
HETATM   29  C   UNL     1     -10.374  17.423  68.913  1.00  0.00    -0.340 A  
ENDBRANCH  19  24
ENDBRANCH  17  18
ENDBRANCH  13  14
ENDBRANCH  10  13
ENDBRANCH   6   7
ENDBRANCH   5   6
ENDBRANCH   2   5
BRANCH   4  30
HETATM   30  C   UNL     1      -7.234   7.695  65.870  1.00  0.00    -0.069 A  
HETATM   31  C   UNL     1      -8.284   6.763  65.860  1.00  0.00    -0.132 A  
HETATM   32  C   UNL     1      -7.038   8.460  67.023  1.00  0.00    -0.079 A  
HETATM   33  C   UNL     1      -7.751   8.188  68.191  1.00  0.00    -0.110 A  
HETATM   34  C   UNL     1      -9.047   6.535  67.012  1.00  0.00    -0.133 A  
HETATM   35  C   UNL     1      -8.761   7.220  68.198  1.00  0.00    -0.128 A  
BRANCH  35  36
HETATM   36  C   UNL     1      -9.543   6.957  69.469  1.00  0.00    -0.148 C  
BRANCH  36  37
HETATM   37  N   UNL     1     -10.897   7.531  69.429  1.00  0.00    -0.195 NA 
HETATM   38  C   UNL     1     -10.891   8.991  69.564  1.00  0.00    -0.166 C  
HETATM   39  C   UNL     1     -11.821   6.915  70.393  1.00  0.00    -0.299 C  
HETATM   40  C   UNL     1     -11.561   7.327  71.844  1.00  0.00    -0.313 C  
HETATM   41  C   UNL     1     -10.591   9.478  70.984  1.00  0.00    -0.392 C  
HETATM   42  C   UNL     1     -11.545   8.852  72.008  1.00  0.00    -0.435 C  
BRANCH  42  43
HETATM   43  C   UNL     1     -12.954   9.436  71.908  1.00  0.00    -0.417 C  
HETATM   44  N   UNL     1     -13.821   9.054  72.888  1.00  0.00    -0.923 N  
HETATM   45  H2  UNL     1     -13.547   8.420  73.638  1.00  0.00     0.000 HD 
HETATM   46  O   UNL     1     -13.342  10.175  71.008  1.00  0.00    -0.387 OA 
HETATM   47  H1  UNL     1     -14.761   9.445  72.821  1.00  0.00     0.000 HD 
ENDBRANCH  42  43
ENDBRANCH  36  37
ENDBRANCH  35  36
ENDBRANCH   4  30
TORSDOF 11
ENDMDL
MODEL        3
REMARK 921   NORMALIZED FREE ENERGY PREDICTED BY IDOCK:   -7.72 KCAL/MOL
REMARK 922        TOTAL FREE ENERGY PREDICTED BY IDOCK:  -14.32 KCAL/MOL
REMARK 923 INTER-LIGAND FREE ENERGY PREDICTED BY IDOCK:  -12.39 KCAL/MOL
REMARK 924 INTRA-LIGAND FREE ENERGY PREDICTED BY IDOCK:   -1.93 KCAL/MOL
REMARK 927      BINDING AFFINITY PREDICTED BY RF-SCORE:    0.00 PKD
ROOT
HETATM    1  C   UNL     1      -9.188  10.684  62.435  1.00  0.00    -0.266 C  
HETATM    2  N   UNL     1      -9.599  10.367  63.794  1.00  0.00    -0.299 N  
HETATM    3  O   UNL     1      -7.985   8.716  63.846  1.00  0.00    -0.144 OA 
HETATM    4  C   UNL     1      -8.862   9.347  64.438  1.00  0.00    -0.188 C  
ENDROOT
BRANCH   2   5
HETATM    5  C   UNL     1     -10.493  11.269  64.523  1.00  0.00    -0.334 C  
BRANCH   5   6
HETATM    6  C   UNL     1     -10.571  12.766  64.183  1.00  0.00    -0.415 C  
BRANCH   6   7
HETATM    7  N   UNL     1     -11.487  13.478  65.106  1.00  0.00    -0.296 NA 
HETATM    8  C   UNL     1     -11.427  14.937  64.934  1.00  0.00    -0.407 C  
HETATM    9  C   UNL     1     -11.297  13.142  66.528  1.00  0.00    -0.315 C  
HETATM   10  C   UNL     1      -9.813  15.132  66.888  1.00  0.00    -0.237 C  
HETATM   11  C   UNL     1      -9.951  13.617  67.066  1.00  0.00    -0.248 C  
HETATM   12  C   UNL     1     -10.125  15.555  65.449  1.00  0.00    -0.387 C  
BRANCH  10  13
HETATM   13  O   UNL     1     -10.745  15.804  67.759  1.00  0.00    -0.291 OA 
BRANCH  13  14
HETATM   14  C   UNL     1     -10.575  15.549  69.084  1.00  0.00    -0.234 C  
HETATM   15  H   UNL     1     -12.422  14.616  68.968  1.00  0.00     0.000 HD 
HETATM   16  O   UNL     1      -9.542  15.751  69.702  1.00  0.00    -0.280 OA 
HETATM   17  N   UNL     1     -11.742  15.051  69.591  1.00  0.00    -0.302 N  
BRANCH  17  18
HETATM   18  C   UNL     1     -12.009  15.138  70.972  1.00  0.00    -0.333 A  
HETATM   19  C   UNL     1     -12.369  14.001  71.729  1.00  0.00    -0.268 A  
HETATM   20  C   UNL     1     -12.099  16.582  72.920  1.00  0.00    -0.479 A  
HETATM   21  C   UNL     1     -12.578  14.223  73.109  1.00  0.00    -0.274 A  
HETATM   22  C   UNL     1     -12.434  15.485  73.699  1.00  0.00    -0.713 A  
HETATM   23  C   UNL     1     -11.896  16.412  71.557  1.00  0.00    -0.289 A  
BRANCH  19  24
HETATM   24  C   UNL     1     -12.514  12.618  71.178  1.00  0.00    -0.326 A  
HETATM   25  C   UNL     1     -12.118  12.275  69.872  1.00  0.00    -0.319 A  
HETATM   26  C   UNL     1     -12.280  10.979  69.365  1.00  0.00    -0.329 A  
HETATM   27  C   UNL     1     -12.875   9.993  70.142  1.00  0.00     0.131 A  
HETATM   28  C   UNL     1     -13.289  10.299  71.433  1.00  0.00    -0.395 A  
HETATM   29  C   UNL     1     -13.095  11.586  71.946  1.00  0.00    -0.492 A  
ENDBRANCH  19  24
ENDBRANCH  17  18
ENDBRANCH  13  14
ENDBRANCH  10  13
ENDBRANCH   6   7
ENDBRANCH   5   6
ENDBRANCH   2   5
BRANCH   4  30
HETATM   30  C   UNL     1      -9.047   9.057  65.900  1.00  0.00    -0.264 A  
HETATM   31  C   UNL     1      -8.202   9.711  66.810  1.00  0.00    -0.113 A  
HETATM   32  C   UNL     1     -10.009   8.177  66.403  1.00  0.00    -0.238 A  
HETATM   33  C   UNL     1     -10.240   8.081  67.776  1.00  0.00    -0.282 A  
HETATM   34  C   UNL     1      -8.388   9.564  68.190  1.00  0.00    -0.118 A  
HETATM   35  C   UNL     1      -9.434   8.777  68.683  1.00  0.00    -0.143 A  
BRANCH  35  36
HETATM   36  C   UNL     1      -9.683   8.639  70.172  1.00  0.00    -0.172 C  
BRANCH  36  37
HETATM   37  N   UNL     1      -9.670   7.238  70.620  1.00  0.00    -0.176 NA 
HETATM   38  C   UNL     1     -11.012   6.737  70.934  1.00  0.00    -0.260 C  
HETATM   39  C   UNL     1      -8.739   6.989  71.732  1.00  0.00    -0.122 C  
HETATM   40  C   UNL     1      -9.225   7.539  73.076  1.00  0.00    -0.233 C  
HETATM   41  C   UNL     1     -11.582   7.283  72.246  1.00  0.00    -0.315 C  
HETATM   42  C   UNL     1     -10.630   7.032  73.422  1.00  0.00    -0.399 C  
BRANCH  42  43
HETATM   43  C   UNL     1     -10.604   5.559  73.832  1.00  0.00    -0.270 C  
HETATM   44  N   UNL     1     -11.654   4.808  73.395  1.00  0.00    -0.418 N  
HETATM   45  H2  UNL     1     -12.407   5.202  72.831  1.00  0.00     0.000 HD 
HETATM   46  O   UNL     1      -9.741   5.045  74.535  1.00  0.00    -0.140 OA 
HETATM   47  H1  UNL     1     -11.636   3.825  73.668  1.00  0.00     0.000 HD 
ENDBRANCH  42  43
ENDBRANCH  36  37
ENDBRANCH  35  36
ENDBRANCH   4  30
TORSDOF 11
ENDMDL
MODEL        4
REMARK 921   NORMALIZED FREE ENERGY PREDICTED BY IDOCK:   -7.66 KCAL/MOL
REMARK 922        TOTAL FREE ENERGY PREDICTED BY IDOCK:  -14.22 KCAL/MOL
REMARK 923 INTER-LIGAND FREE ENERGY PREDICTED BY IDOCK:  -11.71 KCAL/MOL
REMARK 924 INTRA-LIGAND FREE ENERGY PREDICTED BY IDOCK:   -2.51 KCAL/MOL
REMARK 927      BINDING AFFINITY PREDICTED BY RF-SCORE:    0.00 PKD
ROOT
HETATM    1  C   UNL     1      -5.474  20.738  69.151  1.00  0.00    -0.366 C  
HETATM    2  N   UNL     1      -6.561  19.778  69.030  1.00  0.00    -0.317 N  
HETATM    3  O   UNL     1      -7.327  20.950  67.192  1.00  0.00    -0.345 OA 
HETATM    4  C   UNL     1      -7.437  19.975  67.938  1.00  0.00    -0.295 C  
ENDROOT
BRANCH   2   5
HETATM    5  C   UNL     1      -6.534  18.533  69.799  1.00  0.00    -0.098 C  
BRANCH   5   6
HETATM    6  C   UNL     1      -6.255  17.181  69.124  1.00  0.00    -0.212 C  
BRANCH   6   7
HETATM    7  N   UNL     1      -6.709  16.054  69.975  1.00  0.00    -0.029 NA 
HETATM    8  C   UNL     1      -5.655  15.049  70.176  1.00  0.00    -0.127 C  
HETATM    9  C   UNL     1      -7.936  15.392  69.502  1.00  0.00    -0.204 C  
HETATM   10  C   UNL     1      -6.621  13.617  68.313  1.00  0.00    -0.108 C  
HETATM   11  C   UNL     1      -7.733  14.662  68.177  1.00  0.00    -0.125 C  
HETATM   12  C   UNL     1      -5.355  14.226  68.922  1.00  0.00    -0.087 C  
BRANCH  10  13
HETATM   13  O   UNL     1      -7.065  12.556  69.182  1.00  0.00    -0.074 OA 
BRANCH  13  14
HETATM   14  C   UNL     1      -7.069  11.318  68.617  1.00  0.00    -0.093 C  
HETATM   15  H   UNL     1      -8.442  12.116  67.286  1.00  0.00     0.000 HD 
HETATM   16  O   UNL     1      -6.297  10.419  68.911  1.00  0.00    -0.046 OA 
HETATM   17  N   UNL     1      -8.075  11.257  67.696  1.00  0.00    -0.116 N  
BRANCH  17  18
HETATM   18  C   UNL     1      -8.608  10.010  67.309  1.00  0.00    -0.125 A  
HETATM   19  C   UNL     1      -9.824   9.528  67.843  1.00  0.00    -0.186 A  
HETATM   20  C   UNL     1      -8.342   8.057  65.896  1.00  0.00    -0.136 A  
HETATM   21  C   UNL     1     -10.259   8.278  67.347  1.00  0.00    -0.326 A  
HETATM   22  C   UNL     1      -9.541   7.560  66.382  1.00  0.00    -0.194 A  
HETATM   23  C   UNL     1      -7.869   9.275  66.365  1.00  0.00    -0.103 A  
BRANCH  19  24
HETATM   24  C   UNL     1     -10.660  10.248  68.852  1.00  0.00    -0.242 A  
HETATM   25  C   UNL     1     -11.127  11.560  68.654  1.00  0.00    -0.291 A  
HETATM   26  C   UNL     1     -11.894  12.228  69.619  1.00  0.00    -0.393 A  
HETATM   27  C   UNL     1     -12.185  11.611  70.829  1.00  0.00    -0.443 A  
HETATM   28  C   UNL     1     -11.731  10.320  71.065  1.00  0.00    -0.461 A  
HETATM   29  C   UNL     1     -10.994   9.646  70.084  1.00  0.00    -0.320 A  
ENDBRANCH  19  24
ENDBRANCH  17  18
ENDBRANCH  13  14
ENDBRANCH  10  13
ENDBRANCH   6   7
ENDBRANCH   5   6
ENDBRANCH   2   5
BRANCH   4  30
HETATM   30  C   UNL     1      -8.476  18.952  67.579  1.00  0.00    -0.296 A  
HETATM   31  C   UNL     1      -8.256  18.167  66.437  1.00  0.00    -0.282 A  
HETATM   32  C   UNL     1      -9.644  18.738  68.315  1.00  0.00    -0.395 A  
HETATM   33  C   UNL     1     -10.484  17.662  68.027  1.00  0.00    -0.395 A  
HETATM   34  C   UNL     1      -9.134  17.128  66.104  1.00  0.00    -0.214 A  
HETATM   35  C   UNL     1     -10.235  16.843  66.920  1.00  0.00    -0.296 A  
BRANCH  35  36
HETATM   36  C   UNL     1     -11.173  15.695  66.606  1.00  0.00    -0.067 C  
BRANCH  36  37
HETATM   37  N   UNL     1     -11.003  15.183  65.237  1.00  0.00    -0.372 NA 
HETATM   38  C   UNL     1     -12.234  14.591  64.703  1.00  0.00    -0.460 C  
HETATM   39  C   UNL     1      -9.867  14.261  65.095  1.00  0.00    -0.106 C  
HETATM   40  C   UNL     1     -10.117  12.879  65.707  1.00  0.00    -0.294 C  
HETATM   41  C   UNL     1     -12.571  13.225  65.307  1.00  0.00    -0.528 C  
HETATM   42  C   UNL     1     -11.402  12.243  65.167  1.00  0.00    -0.376 C  
BRANCH  42  43
HETATM   43  C   UNL     1     -11.224  11.767  63.725  1.00  0.00    -0.436 C  
HETATM   44  N   UNL     1     -12.373  11.467  63.058  1.00  0.00    -0.935 N  
HETATM   45  H2  UNL     1     -13.292  11.554  63.492  1.00  0.00     0.000 HD 
HETATM   46  O   UNL     1     -10.141  11.614  63.169  1.00  0.00    -0.397 OA 
HETATM   47  H1  UNL     1     -12.254  11.150  62.095  1.00  0.00     0.000 HD 
ENDBRANCH  42  43
ENDBRANCH  36  37
ENDBRANCH  35  36
ENDBRANCH   4  30
TORSDOF 11
ENDMDL
MODEL        5
REMARK 921   NORMALIZED FREE ENERGY PREDICTED BY IDOCK:   -7.41 KCAL/MOL
REMARK 922        TOTAL FREE ENERGY PREDICTED BY IDOCK:  -13.81 KCAL/MOL
REMARK 923 INTER-LIGAND FREE ENERGY PREDICTED BY IDOCK:  -10.03 KCAL/MOL
REMARK 924 INTRA-LIGAND FREE ENERGY PREDICTED BY IDOCK:   -3.78 KCAL/MOL
REMARK 927      BINDING AFFINITY PREDICTED BY RF-SCORE:    0.00 PKD
ROOT
HETATM    1  C   UNL     1      -8.898  17.125  66.853  1.00  0.00    -0.235 C  
HETATM    2  N   UNL     1      -9.301  15.890  67.509  1.00  0.00    -0.215 N  
HETATM    3  O   UNL     1     -11.240  16.943  68.194  1.00  0.00    -0.297 OA 
HETATM    4  C   UNL     1     -10.566  15.912  68.139  1.00  0.00    -0.280 C  
ENDROOT
BRANCH   2   5
HETATM    5  C   UNL     1      -8.577  14.645  67.244  1.00  0.00    -0.214 C  
BRANCH   5   6
HETATM    6  C   UNL     1      -7.157  14.415  67.786  1.00  0.00    -0.176 C  
BRANCH   6   7
HETATM    7  N   UNL     1      -6.588  13.146  67.271  1.00  0.00    -0.207 NA 
HETATM    8  C   UNL     1      -7.584  12.066  67.227  1.00  0.00    -0.157 C  
HETATM    9  C   UNL     1      -5.391  12.681  67.991  1.00  0.00    -0.087 C  
HETATM   10  C   UNL     1      -6.755  11.167  69.454  1.00  0.00    -0.120 C  
HETATM   11  C   UNL     1      -5.696  12.274  69.430  1.00  0.00    -0.084 C  
HETATM   12  C   UNL     1      -7.976  11.546  68.611  1.00  0.00    -0.135 C  
BRANCH  10  13
HETATM   13  O   UNL     1      -6.196   9.957  68.905  1.00  0.00    -0.041 OA 
BRANCH  13  14
HETATM   14  C   UNL     1      -6.901   8.826  69.179  1.00  0.00    -0.055 C  
HETATM   15  H   UNL     1      -6.441   8.273  67.236  1.00  0.00     0.000 HD 
HETATM   16  O   UNL     1      -7.312   8.516  70.285  1.00  0.00    -0.048 OA 
HETATM   17  N   UNL     1      -7.075   8.124  68.021  1.00  0.00    -0.084 N  
BRANCH  17  18
HETATM   18  C   UNL     1      -8.128   7.193  67.907  1.00  0.00    -0.119 A  
HETATM   19  C   UNL     1      -9.185   7.381  66.989  1.00  0.00    -0.169 A  
HETATM   20  C   UNL     1      -9.043   5.083  68.677  1.00  0.00    -0.139 A  
HETATM   21  C   UNL     1     -10.159   6.358  66.956  1.00  0.00    -0.227 A  
HETATM   22  C   UNL     1     -10.085   5.222  67.773  1.00  0.00    -0.205 A  
HETATM   23  C   UNL     1      -8.071   6.071  68.752  1.00  0.00    -0.104 A  
BRANCH  19  24
HETATM   24  C   UNL     1      -9.317   8.549  66.064  1.00  0.00    -0.266 A  
HETATM   25  C   UNL     1     -10.220   9.603  66.296  1.00  0.00    -0.286 A  
HETATM   26  C   UNL     1     -10.344  10.681  65.408  1.00  0.00    -0.303 A  
HETATM   27  C   UNL     1      -9.591  10.717  64.242  1.00  0.00    -0.350 A  
HETATM   28  C   UNL     1      -8.697   9.687  63.974  1.00  0.00    -0.240 A  
HETATM   29  C   UNL     1      -8.553   8.630  64.881  1.00  0.00    -0.163 A  
ENDBRANCH  19  24
ENDBRANCH  17  18
ENDBRANCH  13  14
ENDBRANCH  10  13
ENDBRANCH   6   7
ENDBRANCH   5   6
ENDBRANCH   2   5
BRANCH   4  30
HETATM   30  C   UNL     1     -11.189  14.657  68.679  1.00  0.00    -0.293 A  
HETATM   31  C   UNL     1     -11.336  13.569  67.804  1.00  0.00    -0.327 A  
HETATM   32  C   UNL     1     -11.628  14.510  69.997  1.00  0.00    -0.339 A  
HETATM   33  C   UNL     1     -12.040  13.268  70.479  1.00  0.00    -0.391 A  
HETATM   34  C   UNL     1     -11.814  12.338  68.268  1.00  0.00    -0.367 A  
HETATM   35  C   UNL     1     -12.134  12.167  69.620  1.00  0.00    -0.283 A  
BRANCH  35  36
HETATM   36  C   UNL     1     -12.610  10.832  70.155  1.00  0.00    -0.240 C  
BRANCH  36  37
HETATM   37  N   UNL     1     -11.729  10.295  71.203  1.00  0.00    -0.361 NA 
HETATM   38  C   UNL     1     -10.542   9.633  70.653  1.00  0.00    -0.319 C  
HETATM   39  C   UNL     1     -12.426   9.422  72.161  1.00  0.00    -0.323 C  
HETATM   40  C   UNL     1     -12.783   8.046  71.591  1.00  0.00    -0.347 C  
HETATM   41  C   UNL     1     -10.834   8.268  70.024  1.00  0.00    -0.232 C  
HETATM   42  C   UNL     1     -11.556   7.338  71.005  1.00  0.00    -0.329 C  
BRANCH  42  43
HETATM   43  C   UNL     1     -10.625   6.836  72.109  1.00  0.00    -0.211 C  
HETATM   44  N   UNL     1     -11.154   6.819  73.364  1.00  0.00    -0.510 N  
HETATM   45  H2  UNL     1     -12.109   7.122  73.555  1.00  0.00     0.000 HD 
HETATM   46  O   UNL     1      -9.460   6.493  71.936  1.00  0.00    -0.153 OA 
HETATM   47  H1  UNL     1     -10.532   6.484  74.100  1.00  0.00     0.000 HD 
ENDBRANCH  42  43
ENDBRANCH  36  37
ENDBRANCH  35  36
ENDBRANCH   4  30
TORSDOF 11
ENDMDL
MODEL        6
REMARK 921   NORMALIZED FREE ENERGY PREDICTED BY IDOCK:   -7.38 KCAL/MOL
REMARK 922        TOTAL FREE ENERGY PREDICTED BY IDOCK:  -13.76 KCAL/MOL
REMARK 923 INTER-LIGAND FREE ENERGY PREDICTED BY IDOCK:  -11.67 KCAL/MOL
REMARK 924 INTRA-LIGAND FREE ENERGY PREDICTED BY IDOCK:   -2.09 KCAL/MOL
REMARK 927      BINDING AFFINITY PREDICTED BY RF-SCORE:    0.00 PKD
ROOT
HETATM    1  C   UNL     1      -6.902   6.491  62.392  1.00  0.00    -0.039 C  
HETATM    2  N   UNL     1      -7.637   6.702  63.631  1.00  0.00    -0.094 N  
HETATM    3  O   UNL     1      -7.791   4.410  63.872  1.00  0.00    -0.083 OA 
HETATM    4  C   UNL     1      -8.008   5.532  64.333  1.00  0.00    -0.120 C  
ENDROOT
BRANCH   2   5
HETATM    5  C   UNL     1      -7.690   8.032  64.239  1.00  0.00    -0.128 C  
BRANCH   5   6
HETATM    6  C   UNL     1      -8.888   8.968  64.015  1.00  0.00    -0.015 C  
BRANCH   6   7
HETATM    7  N   UNL     1      -8.510  10.385  64.237  1.00  0.00    -0.169 NA 
HETATM    8  C   UNL     1      -8.803  10.830  65.607  1.00  0.00    -0.190 C  
HETATM    9  C   UNL     1      -9.104  11.329  63.276  1.00  0.00    -0.151 C  
HETATM   10  C   UNL     1     -10.993  11.864  64.838  1.00  0.00    -0.313 C  
HETATM   11  C   UNL     1     -10.620  11.431  63.417  1.00  0.00    -0.435 C  
HETATM   12  C   UNL     1     -10.298  10.990  65.887  1.00  0.00    -0.315 C  
BRANCH  10  13
HETATM   13  O   UNL     1     -10.573  13.227  65.049  1.00  0.00    -0.313 OA 
BRANCH  13  14
HETATM   14  C   UNL     1     -11.305  13.914  65.967  1.00  0.00    -0.324 C  
HETATM   15  H   UNL     1      -9.484  14.307  66.874  1.00  0.00     0.000 HD 
HETATM   16  O   UNL     1     -12.496  14.161  65.861  1.00  0.00    -0.471 OA 
HETATM   17  N   UNL     1     -10.493  14.259  67.010  1.00  0.00    -0.270 N  
BRANCH  17  18
HETATM   18  C   UNL     1     -11.047  14.547  68.274  1.00  0.00    -0.261 A  
HETATM   19  C   UNL     1     -11.009  15.850  68.819  1.00  0.00    -0.301 A  
HETATM   20  C   UNL     1     -12.246  13.675  70.195  1.00  0.00    -0.413 A  
HETATM   21  C   UNL     1     -11.628  16.007  70.080  1.00  0.00    -0.316 A  
HETATM   22  C   UNL     1     -12.247  14.945  70.751  1.00  0.00    -0.387 A  
HETATM   23  C   UNL     1     -11.638  13.473  68.962  1.00  0.00    -0.356 A  
BRANCH  19  24
HETATM   24  C   UNL     1     -10.395  17.038  68.150  1.00  0.00    -0.347 A  
HETATM   25  C   UNL     1     -10.969  17.660  67.027  1.00  0.00     0.065 A  
HETATM   26  C   UNL     1     -10.369  18.761  66.401  1.00  0.00    -0.489 A  
HETATM   27  C   UNL     1      -9.154  19.251  66.862  1.00  0.00    -0.358 A  
HETATM   28  C   UNL     1      -8.551  18.655  67.963  1.00  0.00    -0.321 A  
HETATM   29  C   UNL     1      -9.172  17.577  68.604  1.00  0.00    -0.267 A  
ENDBRANCH  19  24
ENDBRANCH  17  18
ENDBRANCH  13  14
ENDBRANCH  10  13
ENDBRANCH   6   7
ENDBRANCH   5   6
ENDBRANCH   2   5
BRANCH   4  30
HETATM   30  C   UNL     1      -8.591   5.605  65.714  1.00  0.00    -0.148 A  
HETATM   31  C   UNL     1      -7.702   5.701  66.796  1.00  0.00    -0.100 A  
HETATM   32  C   UNL     1      -9.962   5.584  65.983  1.00  0.00    -0.074 A  
HETATM   33  C   UNL     1     -10.441   5.825  67.271  1.00  0.00    -0.330 A  
HETATM   34  C   UNL     1      -8.180   5.875  68.101  1.00  0.00    -0.109 A  
HETATM   35  C   UNL     1      -9.555   5.976  68.343  1.00  0.00    -0.130 A  
BRANCH  35  36
HETATM   36  C   UNL     1     -10.095   6.210  69.739  1.00  0.00    -0.181 C  
BRANCH  36  37
HETATM   37  N   UNL     1     -11.274   7.089  69.751  1.00  0.00    -0.245 NA 
HETATM   38  C   UNL     1     -10.917   8.504  69.891  1.00  0.00    -0.165 C  
HETATM   39  C   UNL     1     -12.285   6.697  70.746  1.00  0.00    -0.241 C  
HETATM   40  C   UNL     1     -11.884   7.018  72.188  1.00  0.00    -0.314 C  
HETATM   41  C   UNL     1     -10.461   8.888  71.302  1.00  0.00    -0.357 C  
HETATM   42  C   UNL     1     -11.501   8.493  72.357  1.00  0.00    -0.419 C  
BRANCH  42  43
HETATM   43  C   UNL     1     -12.733   9.397  72.311  1.00  0.00    -0.341 C  
HETATM   44  N   UNL     1     -13.853   8.895  72.902  1.00  0.00    -0.915 N  
HETATM   45  H2  UNL     1     -13.869   7.977  73.346  1.00  0.00     0.000 HD 
HETATM   46  O   UNL     1     -12.775  10.492  71.761  1.00  0.00    -0.420 OA 
HETATM   47  H1  UNL     1     -14.676   9.498  72.872  1.00  0.00     0.000 HD 
ENDBRANCH  42  43
ENDBRANCH  36  37
ENDBRANCH  35  36
ENDBRANCH   4  30
TORSDOF 11
ENDMDL
MODEL        7
REMARK 921   NORMALIZED FREE ENERGY PREDICTED BY IDOCK:   -7.33 KCAL/MOL
REMARK 922        TOTAL FREE ENERGY PREDICTED BY IDOCK:  -13.67 KCAL/MOL
REMARK 923 INTER-LIGAND FREE ENERGY PREDICTED BY IDOCK:  -13.27 KCAL/MOL
REMARK 924 INTRA-LIGAND FREE ENERGY PREDICTED BY IDOCK:   -0.40 KCAL/MOL
REMARK 927      BINDING AFFINITY PREDICTED BY RF-SCORE:    0.00 PKD
ROOT
HETATM    1  C   UNL     1     -12.502  13.474  70.378  1.00  0.00    -0.275 C  
HETATM    2  N   UNL     1     -12.090  12.084  70.506  1.00  0.00    -0.364 N  
HETATM    3  O   UNL     1     -13.587  11.852  72.251  1.00  0.00    -0.364 OA 
HETATM    4  C   UNL     1     -12.765  11.331  71.494  1.00  0.00    -0.376 C  
ENDROOT
BRANCH   2   5
HETATM    5  C   UNL     1     -11.273  11.459  69.465  1.00  0.00    -0.256 C  
BRANCH   5   6
HETATM    6  C   UNL     1     -11.761  11.371  68.010  1.00  0.00    -0.254 C  
BRANCH   6   7
HETATM    7  N   UNL     1     -10.752  11.921  67.073  1.00  0.00    -0.230 NA 
HETATM    8  C   UNL     1     -10.313  13.270  67.457  1.00  0.00    -0.229 C  
HETATM    9  C   UNL     1     -11.171  11.923  65.661  1.00  0.00    -0.306 C  
HETATM   10  C   UNL     1     -11.946  14.305  65.807  1.00  0.00    -0.393 C  
HETATM   11  C   UNL     1     -12.331  12.879  65.397  1.00  0.00    -0.538 C  
HETATM   12  C   UNL     1     -11.381  14.342  67.230  1.00  0.00    -0.357 C  
BRANCH  10  13
HETATM   13  O   UNL     1     -10.929  14.802  64.913  1.00  0.00    -0.382 OA 
BRANCH  13  14
HETATM   14  C   UNL     1     -10.787  16.155  64.906  1.00  0.00    -0.334 C  
HETATM   15  H   UNL     1      -9.142  15.818  66.120  1.00  0.00     0.000 HD 
HETATM   16  O   UNL     1     -11.425  16.915  64.195  1.00  0.00    -1.174 OA 
HETATM   17  N   UNL     1      -9.836  16.503  65.822  1.00  0.00    -0.285 N  
BRANCH  17  18
HETATM   18  C   UNL     1      -9.811  17.807  66.357  1.00  0.00    -0.324 A  
HETATM   19  C   UNL     1      -8.993  18.139  67.460  1.00  0.00    -0.257 A  
HETATM   20  C   UNL     1     -10.647  20.077  66.171  1.00  0.00    -0.464 A  
HETATM   21  C   UNL     1      -9.041  19.489  67.876  1.00  0.00    -0.387 A  
HETATM   22  C   UNL     1      -9.841  20.445  67.237  1.00  0.00    -0.597 A  
HETATM   23  C   UNL     1     -10.641  18.758  65.737  1.00  0.00    -0.321 A  
BRANCH  19  24
HETATM   24  C   UNL     1      -8.091  17.183  68.173  1.00  0.00    -0.219 A  
HETATM   25  C   UNL     1      -6.695  17.180  67.998  1.00  0.00    -0.166 A  
HETATM   26  C   UNL     1      -5.867  16.264  68.660  1.00  0.00    -0.106 A  
HETATM   27  C   UNL     1      -6.418  15.298  69.492  1.00  0.00    -0.152 A  
HETATM   28  C   UNL     1      -7.794  15.263  69.681  1.00  0.00    -0.144 A  
HETATM   29  C   UNL     1      -8.613  16.202  69.043  1.00  0.00    -0.251 A  
ENDBRANCH  19  24
ENDBRANCH  17  18
ENDBRANCH  13  14
ENDBRANCH  10  13
ENDBRANCH   6   7
ENDBRANCH   5   6
ENDBRANCH   2   5
BRANCH   4  30
HETATM   30  C   UNL     1     -12.583   9.845  71.600  1.00  0.00    -0.519 A  
HETATM   31  C   UNL     1     -11.303   9.362  71.916  1.00  0.00    -0.276 A  
HETATM   32  C   UNL     1     -13.610   8.918  71.402  1.00  0.00    -0.311 A  
HETATM   33  C   UNL     1     -13.415   7.565  71.680  1.00  0.00    -0.429 A  
HETATM   34  C   UNL     1     -11.088   7.995  72.129  1.00  0.00    -0.372 A  
HETATM   35  C   UNL     1     -12.153   7.090  72.050  1.00  0.00    -0.329 A  
BRANCH  35  36
HETATM   36  C   UNL     1     -11.953   5.612  72.321  1.00  0.00     0.004 C  
BRANCH  36  37
HETATM   37  N   UNL     1     -10.651   5.320  72.940  1.00  0.00    -0.212 NA 
HETATM   38  C   UNL     1      -9.647   4.896  71.961  1.00  0.00    -0.154 C  
HETATM   39  C   UNL     1     -10.737   4.367  74.058  1.00  0.00    -0.269 C  
HETATM   40  C   UNL     1     -10.983   2.922  73.615  1.00  0.00    -0.318 C  
HETATM   41  C   UNL     1      -9.858   3.472  71.439  1.00  0.00    -0.214 C  
HETATM   42  C   UNL     1      -9.946   2.459  72.586  1.00  0.00    -0.209 C  
BRANCH  42  43
HETATM   43  C   UNL     1      -8.585   2.214  73.238  1.00  0.00    -0.066 C  
HETATM   44  N   UNL     1      -7.526   2.148  72.384  1.00  0.00    -0.042 N  
HETATM   45  H2  UNL     1      -7.634   2.255  71.375  1.00  0.00     0.000 HD 
HETATM   46  O   UNL     1      -8.407   2.046  74.440  1.00  0.00    -0.056 OA 
HETATM   47  H1  UNL     1      -6.618   1.985  72.819  1.00  0.00     0.000 HD 
ENDBRANCH  42  43
ENDBRANCH  36  37
ENDBRANCH  35  36
ENDBRANCH   4  30
TORSDOF 11
ENDMDL
MODEL        8
REMARK 921   NORMALIZED FREE ENERGY PREDICTED BY IDOCK:   -7.26 KCAL/MOL
REMARK 922        TOTAL FREE ENERGY PREDICTED BY IDOCK:  -13.56 KCAL/MOL
REMARK 923 INTER-LIGAND FREE ENERGY PREDICTED BY IDOCK:  -11.93 KCAL/MOL
REMARK 924 INTRA-LIGAND FREE ENERGY PREDICTED BY IDOCK:   -1.63 KCAL/MOL
REMARK 927      BINDING AFFINITY PREDICTED BY RF-SCORE:    0.00 PKD
ROOT
HETATM    1  C   UNL     1     -12.439  10.558  70.713  1.00  0.00    -0.378 C  
HETATM    2  N   UNL     1     -12.043  11.761  69.996  1.00  0.00    -0.323 N  
HETATM    3  O   UNL     1     -13.175  13.015  71.572  1.00  0.00    -0.351 OA 
HETATM    4  C   UNL     1     -12.455  12.985  70.572  1.00  0.00    -0.231 C  
ENDROOT
BRANCH   2   5
HETATM    5  C   UNL     1     -11.026  11.692  68.946  1.00  0.00    -0.233 C  
BRANCH   5   6
HETATM    6  C   UNL     1     -11.194  10.766  67.730  1.00  0.00    -0.316 C  
BRANCH   6   7
HETATM    7  N   UNL     1      -9.899  10.162  67.334  1.00  0.00    -0.180 NA 
HETATM    8  C   UNL     1     -10.072   9.028  66.415  1.00  0.00    -0.281 C  
HETATM    9  C   UNL     1      -9.048   9.754  68.464  1.00  0.00    -0.128 C  
HETATM   10  C   UNL     1      -9.883   7.391  68.350  1.00  0.00    -0.158 C  
HETATM   11  C   UNL     1      -9.650   8.600  69.262  1.00  0.00    -0.166 C  
HETATM   12  C   UNL     1     -10.658   7.786  67.089  1.00  0.00    -0.401 C  
BRANCH  10  13
HETATM   13  O   UNL     1      -8.612   6.850  67.938  1.00  0.00    -0.122 OA 
BRANCH  13  14
HETATM   14  C   UNL     1      -8.315   5.628  68.458  1.00  0.00    -0.106 C  
HETATM   15  H   UNL     1     -10.323   5.206  68.173  1.00  0.00     0.000 HD 
HETATM   16  O   UNL     1      -7.185   5.230  68.690  1.00  0.00    -0.060 OA 
HETATM   17  N   UNL     1      -9.478   4.950  68.683  1.00  0.00    -0.135 N  
BRANCH  17  18
HETATM   18  C   UNL     1      -9.515   3.895  69.618  1.00  0.00    -0.193 A  
HETATM   19  C   UNL     1      -9.766   4.130  70.988  1.00  0.00    -0.260 A  
HETATM   20  C   UNL     1      -9.352   1.499  69.960  1.00  0.00    -0.165 A  
HETATM   21  C   UNL     1      -9.806   2.982  71.811  1.00  0.00    -0.230 A  
HETATM   22  C   UNL     1      -9.616   1.688  71.307  1.00  0.00    -0.203 A  
HETATM   23  C   UNL     1      -9.291   2.601  69.117  1.00  0.00    -0.198 A  
BRANCH  19  24
HETATM   24  C   UNL     1     -10.008   5.475  71.595  1.00  0.00    -0.233 A  
HETATM   25  C   UNL     1      -8.972   6.268  72.122  1.00  0.00    -0.137 A  
HETATM   26  C   UNL     1      -9.219   7.519  72.705  1.00  0.00    -0.201 A  
HETATM   27  C   UNL     1     -10.519   7.998  72.807  1.00  0.00    -0.415 A  
HETATM   28  C   UNL     1     -11.568   7.237  72.307  1.00  0.00    -0.315 A  
HETATM   29  C   UNL     1     -11.312   6.004  71.697  1.00  0.00    -0.313 A  
ENDBRANCH  19  24
ENDBRANCH  17  18
ENDBRANCH  13  14
ENDBRANCH  10  13
ENDBRANCH   6   7
ENDBRANCH   5   6
ENDBRANCH   2   5
BRANCH   4  30
HETATM   30  C   UNL     1     -11.951  14.299  70.051  1.00  0.00    -0.396 A  
HETATM   31  C   UNL     1     -11.627  15.294  70.986  1.00  0.00    -0.399 A  
HETATM   32  C   UNL     1     -11.787  14.587  68.693  1.00  0.00    -0.355 A  
HETATM   33  C   UNL     1     -11.157  15.763  68.283  1.00  0.00    -0.342 A  
HETATM   34  C   UNL     1     -11.056  16.505  70.573  1.00  0.00    -0.104 A  
HETATM   35  C   UNL     1     -10.782  16.732  69.220  1.00  0.00    -0.324 A  
BRANCH  35  36
HETATM   36  C   UNL     1     -10.124  18.015  68.753  1.00  0.00    -0.381 C  
BRANCH  36  37
HETATM   37  N   UNL     1      -9.347  17.836  67.517  1.00  0.00    -0.244 NA 
HETATM   38  C   UNL     1      -7.902  17.919  67.746  1.00  0.00    -0.221 C  
HETATM   39  C   UNL     1      -9.764  18.737  66.431  1.00  0.00    -0.353 C  
HETATM   40  C   UNL     1      -9.326  20.190  66.636  1.00  0.00    -0.490 C  
HETATM   41  C   UNL     1      -7.399  19.342  68.004  1.00  0.00    -0.297 C  
HETATM   42  C   UNL     1      -7.817  20.300  66.882  1.00  0.00    -0.351 C  
BRANCH  42  43
HETATM   43  C   UNL     1      -7.024  20.056  65.598  1.00  0.00    -0.309 C  
HETATM   44  N   UNL     1      -6.424  21.154  65.059  1.00  0.00    -0.481 N  
HETATM   45  H2  UNL     1      -6.499  22.078  65.484  1.00  0.00     0.000 HD 
HETATM   46  O   UNL     1      -6.932  18.973  65.029  1.00  0.00    -0.451 OA 
HETATM   47  H1  UNL     1      -5.895  20.991  64.202  1.00  0.00     0.000 HD 
ENDBRANCH  42  43
ENDBRANCH  36  37
ENDBRANCH  35  36
ENDBRANCH   4  30
TORSDOF 11
ENDMDL
MODEL        9
REMARK 921   NORMALIZED FREE ENERGY PREDICTED BY IDOCK:   -7.23 KCAL/MOL
REMARK 922        TOTAL FREE ENERGY PREDICTED BY IDOCK:  -13.50 KCAL/MOL
REMARK 923 INTER-LIGAND FREE ENERGY PREDICTED BY IDOCK:   -9.85 KCAL/MOL
REMARK 924 INTRA-LIGAND FREE ENERGY PREDICTED BY IDOCK:   -3.66 KCAL/MOL
REMARK 927      BINDING AFFINITY PREDICTED BY RF-SCORE:    0.00 PKD
ROOT
HETATM    1  C   UNL     1     -11.063  15.993  64.622  1.00  0.00    -0.332 C  
HETATM    2  N   UNL     1     -10.965  15.302  65.899  1.00  0.00    -0.337 N  
HETATM    3  O   UNL     1     -12.837  14.077  65.326  1.00  0.00    -0.686 OA 
HETATM    4  C   UNL     1     -11.926  14.292  66.128  1.00  0.00    -0.407 C  
ENDROOT
BRANCH   2   5
HETATM    5  C   UNL     1      -9.761  15.440  66.721  1.00  0.00    -0.240 C  
BRANCH   5   6
HETATM    6  C   UNL     1      -8.605  14.431  66.624  1.00  0.00    -0.019 C  
BRANCH   6   7
HETATM    7  N   UNL     1      -7.965  14.222  67.945  1.00  0.00    -0.138 NA 
HETATM    8  C   UNL     1      -6.507  14.070  67.839  1.00  0.00    -0.162 C  
HETATM    9  C   UNL     1      -8.522  13.098  68.718  1.00  0.00     0.142 C  
HETATM   10  C   UNL     1      -6.735  11.539  67.900  1.00  0.00    -0.065 C  
HETATM   11  C   UNL     1      -8.244  11.746  68.067  1.00  0.00    -0.152 C  
HETATM   12  C   UNL     1      -6.080  12.741  67.212  1.00  0.00    -0.042 C  
BRANCH  10  13
HETATM   13  O   UNL     1      -6.126  11.386  69.198  1.00  0.00    -0.047 OA 
BRANCH  13  14
HETATM   14  C   UNL     1      -6.462  10.244  69.856  1.00  0.00    -0.096 C  
HETATM   15  H   UNL     1      -5.157   9.307  68.547  1.00  0.00     0.000 HD 
HETATM   16  O   UNL     1      -7.127  10.203  70.879  1.00  0.00    -0.325 OA 
HETATM   17  N   UNL     1      -5.948   9.176  69.177  1.00  0.00    -0.042 N  
BRANCH  17  18
HETATM   18  C   UNL     1      -6.508   7.893  69.344  1.00  0.00    -0.035 A  
HETATM   19  C   UNL     1      -7.467   7.381  68.442  1.00  0.00    -0.105 A  
HETATM   20  C   UNL     1      -6.529   5.861  70.669  1.00  0.00    -0.040 A  
HETATM   21  C   UNL     1      -7.924   6.071  68.708  1.00  0.00    -0.104 A  
HETATM   22  C   UNL     1      -7.456   5.317  69.793  1.00  0.00    -0.065 A  
HETATM   23  C   UNL     1      -6.063   7.151  70.452  1.00  0.00    -0.027 A  
BRANCH  19  24
HETATM   24  C   UNL     1      -7.993   8.112  67.248  1.00  0.00    -0.113 A  
HETATM   25  C   UNL     1      -9.337   8.508  67.129  1.00  0.00    -0.191 A  
HETATM   26  C   UNL     1      -9.817   9.175  65.994  1.00  0.00    -0.342 A  
HETATM   27  C   UNL     1      -8.969   9.435  64.925  1.00  0.00    -0.256 A  
HETATM   28  C   UNL     1      -7.636   9.048  65.002  1.00  0.00    -0.103 A  
HETATM   29  C   UNL     1      -7.155   8.412  66.152  1.00  0.00    -0.076 A  
ENDBRANCH  19  24
ENDBRANCH  17  18
ENDBRANCH  13  14
ENDBRANCH  10  13
ENDBRANCH   6   7
ENDBRANCH   5   6
ENDBRANCH   2   5
BRANCH   4  30
HETATM   30  C   UNL     1     -11.822  13.371  67.309  1.00  0.00    -0.422 A  
HETATM   31  C   UNL     1     -11.901  13.937  68.591  1.00  0.00    -0.407 A  
HETATM   32  C   UNL     1     -11.652  11.988  67.205  1.00  0.00    -0.383 A  
HETATM   33  C   UNL     1     -11.732  11.171  68.334  1.00  0.00    -0.349 A  
HETATM   34  C   UNL     1     -11.913  13.125  69.732  1.00  0.00    -0.382 A  
HETATM   35  C   UNL     1     -11.867  11.731  69.609  1.00  0.00    -0.407 A  
BRANCH  35  36
HETATM   36  C   UNL     1     -11.924  10.830  70.825  1.00  0.00    -0.362 C  
BRANCH  36  37
HETATM   37  N   UNL     1     -11.884   9.402  70.475  1.00  0.00    -0.205 NA 
HETATM   38  C   UNL     1     -12.853   8.610  71.239  1.00  0.00    -0.192 C  
HETATM   39  C   UNL     1     -10.537   8.818  70.561  1.00  0.00    -0.215 C  
HETATM   40  C   UNL     1     -10.052   8.600  71.997  1.00  0.00    -0.401 C  
HETATM   41  C   UNL     1     -12.453   8.391  72.701  1.00  0.00    -0.255 C  
HETATM   42  C   UNL     1     -11.053   7.777  72.816  1.00  0.00    -0.457 C  
BRANCH  42  43
HETATM   43  C   UNL     1     -11.037   6.306  72.400  1.00  0.00    -0.270 C  
HETATM   44  N   UNL     1     -11.611   5.439  73.280  1.00  0.00    -0.515 N  
HETATM   45  H2  UNL     1     -12.024   5.751  74.159  1.00  0.00     0.000 HD 
HETATM   46  O   UNL     1     -10.524   5.878  71.371  1.00  0.00    -0.219 OA 
HETATM   47  H1  UNL     1     -11.601   4.458  73.002  1.00  0.00     0.000 HD 
ENDBRANCH  42  43
ENDBRANCH  36  37
ENDBRANCH  35  36
ENDBRANCH   4  30
TORSDOF 11
ENDMDL
MODEL       10
REMARK 921   NORMALIZED FREE ENERGY PREDICTED BY IDOCK:   -7.21 KCAL/MOL
REMARK 922        TOTAL FREE ENERGY PREDICTED BY IDOCK:  -13.48 KCAL/MOL
REMARK 923 INTER-LIGAND FREE ENERGY PREDICTED BY IDOCK:  -10.09 KCAL/MOL
REMARK 924 INTRA-LIGAND FREE ENERGY PREDICTED BY IDOCK:   -3.39 KCAL/MOL
REMARK 927      BINDING AFFINITY PREDICTED BY RF-SCORE:    0.00 PKD
ROOT
HETATM    1  C   UNL     1      -7.251  19.359  69.043  1.00  0.00    -0.362 C  
HETATM    2  N   UNL     1      -7.934  18.188  68.515  1.00  0.00    -0.297 N  
HETATM    3  O   UNL     1      -9.946  19.277  68.835  1.00  0.00    -0.422 OA 
HETATM    4  C   UNL     1      -9.341  18.288  68.417  1.00  0.00    -0.314 C  
ENDROOT
BRANCH   2   5
HETATM    5  C   UNL     1      -7.174  17.131  67.845  1.00  0.00    -0.170 C  
BRANCH   5   6
HETATM    6  C   UNL     1      -6.713  15.875  68.601  1.00  0.00    -0.119 C  
BRANCH   6   7
HETATM    7  N   UNL     1      -6.501  14.738  67.672  1.00  0.00    -0.239 NA 
HETATM    8  C   UNL     1      -7.765  14.102  67.275  1.00  0.00    -0.108 C  
HETATM    9  C   UNL     1      -5.569  13.713  68.170  1.00  0.00    -0.115 C  
HETATM   10  C   UNL     1      -7.452  12.304  69.043  1.00  0.00     0.058 C  
HETATM   11  C   UNL     1      -6.114  12.968  69.385  1.00  0.00    -0.108 C  
HETATM   12  C   UNL     1      -8.422  13.302  68.401  1.00  0.00    -0.128 C  
BRANCH  10  13
HETATM   13  O   UNL     1      -7.230  11.235  68.102  1.00  0.00    -0.075 OA 
BRANCH  13  14
HETATM   14  C   UNL     1      -7.422   9.984  68.603  1.00  0.00    -0.083 C  
HETATM   15  H   UNL     1      -8.289   9.567  66.768  1.00  0.00     0.000 HD 
HETATM   16  O   UNL     1      -6.955   9.580  69.656  1.00  0.00    -0.056 OA 
HETATM   17  N   UNL     1      -8.221   9.283  67.745  1.00  0.00    -0.115 N  
BRANCH  17  18
HETATM   18  C   UNL     1      -8.952   8.170  68.207  1.00  0.00    -0.136 A  
HETATM   19  C   UNL     1     -10.175   8.322  68.897  1.00  0.00    -0.222 A  
HETATM   20  C   UNL     1      -9.076   5.750  68.324  1.00  0.00    -0.117 A  
HETATM   21  C   UNL     1     -10.819   7.123  69.277  1.00  0.00    -0.204 A  
HETATM   22  C   UNL     1     -10.289   5.860  68.985  1.00  0.00    -0.297 A  
HETATM   23  C   UNL     1      -8.402   6.903  67.943  1.00  0.00    -0.121 A  
BRANCH  19  24
HETATM   24  C   UNL     1     -10.817   9.634  69.218  1.00  0.00    -0.227 A  
HETATM   25  C   UNL     1     -11.204   9.992  70.522  1.00  0.00    -0.408 A  
HETATM   26  C   UNL     1     -11.823  11.218  70.802  1.00  0.00    -0.288 A  
HETATM   27  C   UNL     1     -12.105  12.109  69.775  1.00  0.00    -0.306 A  
HETATM   28  C   UNL     1     -11.748  11.784  68.472  1.00  0.00    -0.390 A  
HETATM   29  C   UNL     1     -11.100  10.573  68.203  1.00  0.00    -0.346 A  
ENDBRANCH  19  24
ENDBRANCH  17  18
ENDBRANCH  13  14
ENDBRANCH  10  13
ENDBRANCH   6   7
ENDBRANCH   5   6
ENDBRANCH   2   5
BRANCH   4  30
HETATM   30  C   UNL     1     -10.149  17.239  67.710  1.00  0.00    -0.311 A  
HETATM   31  C   UNL     1     -10.246  17.319  66.312  1.00  0.00    -0.347 A  
HETATM   32  C   UNL     1     -10.805  16.192  68.361  1.00  0.00    -0.318 A  
HETATM   33  C   UNL     1     -11.396  15.157  67.635  1.00  0.00    -0.327 A  
HETATM   34  C   UNL     1     -10.899  16.317  65.583  1.00  0.00    -0.215 A  
HETATM   35  C   UNL     1     -11.446  15.208  66.237  1.00  0.00    -0.153 A  
BRANCH  35  36
HETATM   36  C   UNL     1     -12.116  14.089  65.466  1.00  0.00    -0.410 C  
BRANCH  36  37
HETATM   37  N   UNL     1     -11.358  13.691  64.271  1.00  0.00    -0.372 NA 
HETATM   38  C   UNL     1     -11.985  12.577  63.553  1.00  0.00    -0.543 C  
HETATM   39  C   UNL     1      -9.940  13.412  64.545  1.00  0.00    -0.048 C  
HETATM   40  C   UNL     1      -9.704  12.089  65.279  1.00  0.00    -0.183 C  
HETATM   41  C   UNL     1     -11.829  11.226  64.256  1.00  0.00     0.307 C  
HETATM   42  C   UNL     1     -10.357  10.910  64.548  1.00  0.00    -0.417 C  
BRANCH  42  43
HETATM   43  C   UNL     1      -9.586  10.547  63.278  1.00  0.00    -0.331 C  
HETATM   44  N   UNL     1      -9.159   9.256  63.199  1.00  0.00    -0.439 N  
HETATM   45  H2  UNL     1      -9.340   8.576  63.937  1.00  0.00     0.000 HD 
HETATM   46  O   UNL     1      -9.314  11.334  62.378  1.00  0.00    -0.272 OA 
HETATM   47  H1  UNL     1      -8.645   9.013  62.351  1.00  0.00     0.000 HD 
ENDBRANCH  42  43
ENDBRANCH  36  37
ENDBRANCH  35  36
ENDBRANCH   4  30
TORSDOF 11
ENDMDL
MODEL       11
REMARK 921   NORMALIZED FREE ENERGY PREDICTED BY IDOCK:   -7.19 KCAL/MOL
REMARK 922        TOTAL FREE ENERGY PREDICTED BY IDOCK:  -13.45 KCAL/MOL
REMARK 923 INTER-LIGAND FREE ENERGY PREDICTED BY IDOCK:  -11.03 KCAL/MOL
REMARK 924 INTRA-LIGAND FREE ENERGY PREDICTED BY IDOCK:   -2.42 KCAL/MOL
REMARK 927      BINDING AFFINITY PREDICTED BY RF-SCORE:    0.00 PKD
ROOT
HETATM    1  C   UNL     1      -8.914   1.877  71.424  1.00  0.00    -0.075 C  
HETATM    2  N   UNL     1      -8.775   3.181  70.792  1.00  0.00    -0.071 N  
HETATM    3  O   UNL     1      -6.865   2.415  69.743  1.00  0.00    -0.033 OA 
HETATM    4  C   UNL     1      -7.687   3.321  69.901  1.00  0.00    -0.043 C  
ENDROOT
BRANCH   2   5
HETATM    5  C   UNL     1      -9.875   4.146  70.845  1.00  0.00    -0.177 C  
BRANCH   5   6
HETATM    6  C   UNL     1      -9.967   5.194  71.965  1.00  0.00    -0.187 C  
BRANCH   6   7
HETATM    7  N   UNL     1      -9.547   6.532  71.483  1.00  0.00    -0.161 NA 
HETATM    8  C   UNL     1      -9.832   7.591  72.461  1.00  0.00    -0.176 C  
HETATM    9  C   UNL     1     -10.106   6.908  70.174  1.00  0.00    -0.182 C  
HETATM   10  C   UNL     1     -11.985   8.177  71.246  1.00  0.00    -0.291 C  
HETATM   11  C   UNL     1     -11.619   7.102  70.218  1.00  0.00    -0.260 C  
HETATM   12  C   UNL     1     -11.324   7.903  72.600  1.00  0.00    -0.468 C  
BRANCH  10  13
HETATM   13  O   UNL     1     -11.526   9.462  70.780  1.00  0.00    -0.268 OA 
BRANCH  13  14
HETATM   14  C   UNL     1     -12.475  10.436  70.758  1.00  0.00    -0.368 C  
HETATM   15  H   UNL     1     -10.986  11.634  69.960  1.00  0.00     0.000 HD 
HETATM   16  O   UNL     1     -13.660  10.255  70.992  1.00  0.00    -0.236 OA 
HETATM   17  N   UNL     1     -11.880  11.625  70.449  1.00  0.00    -0.334 N  
BRANCH  17  18
HETATM   18  C   UNL     1     -12.499  12.841  70.806  1.00  0.00    -0.271 A  
HETATM   19  C   UNL     1     -12.368  13.999  70.007  1.00  0.00    -0.397 A  
HETATM   20  C   UNL     1     -13.931  13.983  72.397  1.00  0.00    -0.622 A  
HETATM   21  C   UNL     1     -13.065  15.141  70.463  1.00  0.00    -0.320 A  
HETATM   22  C   UNL     1     -13.843  15.132  71.628  1.00  0.00    -0.597 A  
HETATM   23  C   UNL     1     -13.252  12.840  71.993  1.00  0.00    -0.538 A  
BRANCH  19  24
HETATM   24  C   UNL     1     -11.582  14.078  68.738  1.00  0.00    -0.366 A  
HETATM   25  C   UNL     1     -12.158  13.869  67.472  1.00  0.00    -0.366 A  
HETATM   26  C   UNL     1     -11.402  13.927  66.294  1.00  0.00    -0.329 A  
HETATM   27  C   UNL     1     -10.034  14.163  66.352  1.00  0.00    -0.302 A  
HETATM   28  C   UNL     1      -9.428  14.364  67.586  1.00  0.00    -0.214 A  
HETATM   29  C   UNL     1     -10.195  14.337  68.756  1.00  0.00    -0.226 A  
ENDBRANCH  19  24
ENDBRANCH  17  18
ENDBRANCH  13  14
ENDBRANCH  10  13
ENDBRANCH   6   7
ENDBRANCH   5   6
ENDBRANCH   2   5
BRANCH   4  30
HETATM   30  C   UNL     1      -7.541   4.538  69.035  1.00  0.00    -0.056 A  
HETATM   31  C   UNL     1      -8.254   4.572  67.827  1.00  0.00    -0.099 A  
HETATM   32  C   UNL     1      -6.739   5.635  69.362  1.00  0.00    -0.059 A  
HETATM   33  C   UNL     1      -6.779   6.802  68.598  1.00  0.00    -0.064 A  
HETATM   34  C   UNL     1      -8.243   5.718  67.022  1.00  0.00    -0.101 A  
HETATM   35  C   UNL     1      -7.535   6.857  67.422  1.00  0.00    -0.097 A  
BRANCH  35  36
HETATM   36  C   UNL     1      -7.544   8.123  66.591  1.00  0.00    -0.093 C  
BRANCH  36  37
HETATM   37  N   UNL     1      -8.694   8.192  65.676  1.00  0.00    -0.162 NA 
HETATM   38  C   UNL     1      -8.307   8.582  64.317  1.00  0.00    -0.105 C  
HETATM   39  C   UNL     1      -9.789   9.037  66.177  1.00  0.00    -0.278 C  
HETATM   40  C   UNL     1      -9.491  10.537  66.104  1.00  0.00    -0.222 C  
HETATM   41  C   UNL     1      -7.949  10.064  64.179  1.00  0.00    -0.152 C  
HETATM   42  C   UNL     1      -9.078  10.966  64.691  1.00  0.00    -0.189 C  
BRANCH  42  43
HETATM   43  C   UNL     1     -10.276  10.977  63.741  1.00  0.00    -0.364 C  
HETATM   44  N   UNL     1     -10.017  10.582  62.463  1.00  0.00    -0.755 N  
HETATM   45  H2  UNL     1      -9.086  10.298  62.160  1.00  0.00     0.000 HD 
HETATM   46  O   UNL     1     -11.407  11.342  64.047  1.00  0.00    -0.353 OA 
HETATM   47  H1  UNL     1     -10.817  10.590  61.829  1.00  0.00     0.000 HD 
ENDBRANCH  42  43
ENDBRANCH  36  37
ENDBRANCH  35  36
ENDBRANCH   4  30
TORSDOF 11
ENDMDL
MODEL       12
REMARK 921   NORMALIZED FREE ENERGY PREDICTED BY IDOCK:   -7.19 KCAL/MOL
REMARK 922        TOTAL FREE ENERGY PREDICTED BY IDOCK:  -13.45 KCAL/MOL
REMARK 923 INTER-LIGAND FREE ENERGY PREDICTED BY IDOCK:  -10.98 KCAL/MOL
REMARK 924 INTRA-LIGAND FREE ENERGY PREDICTED BY IDOCK:   -2.47 KCAL/MOL
REMARK 927      BINDING AFFINITY PREDICTED BY RF-SCORE:    0.00 PKD
ROOT
HETATM    1  C   UNL     1      -6.585   5.336  63.590  1.00  0.00    -0.030 C  
HETATM    2  N   UNL     1      -7.413   5.505  64.774  1.00  0.00    -0.068 N  
HETATM    3  O   UNL     1      -6.391   3.650  65.695  1.00  0.00    -0.031 OA 
HETATM    4  C   UNL     1      -7.184   4.585  65.822  1.00  0.00    -0.075 C  
ENDROOT
BRANCH   2   5
HETATM    5  C   UNL     1      -8.183   6.736  64.965  1.00  0.00    -0.096 C  
BRANCH   5   6
HETATM    6  C   UNL     1      -7.492   8.068  65.298  1.00  0.00    -0.080 C  
BRANCH   6   7
HETATM    7  N   UNL     1      -7.766   8.479  66.696  1.00  0.00    -0.089 NA 
HETATM    8  C   UNL     1      -9.129   8.129  67.122  1.00  0.00    -0.140 C  
HETATM    9  C   UNL     1      -7.516   9.903  66.971  1.00  0.00    -0.091 C  
HETATM   10  C   UNL     1      -9.928  10.485  66.608  1.00  0.00    -0.211 C  
HETATM   11  C   UNL     1      -8.483  10.821  66.228  1.00  0.00    -0.161 C  
HETATM   12  C   UNL     1     -10.210   8.987  66.461  1.00  0.00    -0.318 C  
BRANCH  10  13
HETATM   13  O   UNL     1     -10.159  10.847  67.984  1.00  0.00    -0.170 OA 
BRANCH  13  14
HETATM   14  C   UNL     1     -11.120  11.791  68.174  1.00  0.00    -0.243 C  
HETATM   15  H   UNL     1      -9.659  12.826  69.215  1.00  0.00     0.000 HD 
HETATM   16  O   UNL     1     -12.213  11.787  67.630  1.00  0.00    -0.534 OA 
HETATM   17  N   UNL     1     -10.662  12.713  69.070  1.00  0.00    -0.152 N  
BRANCH  17  18
HETATM   18  C   UNL     1     -11.571  13.510  69.796  1.00  0.00    -0.244 A  
HETATM   19  C   UNL     1     -11.788  14.868  69.470  1.00  0.00    -0.360 A  
HETATM   20  C   UNL     1     -13.195  13.582  71.596  1.00  0.00    -0.449 A  
HETATM   21  C   UNL     1     -12.748  15.542  70.257  1.00  0.00    -0.310 A  
HETATM   22  C   UNL     1     -13.450  14.910  71.293  1.00  0.00    -0.500 A  
HETATM   23  C   UNL     1     -12.250  12.884  70.856  1.00  0.00    -0.290 A  
BRANCH  19  24
HETATM   24  C   UNL     1     -11.101  15.602  68.363  1.00  0.00    -0.326 A  
HETATM   25  C   UNL     1     -10.310  16.744  68.584  1.00  0.00    -0.318 A  
HETATM   26  C   UNL     1      -9.689  17.431  67.533  1.00  0.00    -0.266 A  
HETATM   27  C   UNL     1      -9.872  17.013  66.220  1.00  0.00    -0.310 A  
HETATM   28  C   UNL     1     -10.656  15.896  65.963  1.00  0.00    -0.331 A  
HETATM   29  C   UNL     1     -11.246  15.194  67.020  1.00  0.00    -0.308 A  
ENDBRANCH  19  24
ENDBRANCH  17  18
ENDBRANCH  13  14
ENDBRANCH  10  13
ENDBRANCH   6   7
ENDBRANCH   5   6
ENDBRANCH   2   5
BRANCH   4  30
HETATM   30  C   UNL     1      -7.823   4.764  67.169  1.00  0.00    -0.095 A  
HETATM   31  C   UNL     1      -7.056   5.357  68.184  1.00  0.00    -0.067 A  
HETATM   32  C   UNL     1      -9.131   4.376  67.468  1.00  0.00    -0.146 A  
HETATM   33  C   UNL     1      -9.719   4.722  68.685  1.00  0.00    -0.223 A  
HETATM   34  C   UNL     1      -7.622   5.646  69.432  1.00  0.00    -0.083 A  
HETATM   35  C   UNL     1      -8.971   5.365  69.678  1.00  0.00    -0.130 A  
BRANCH  35  36
HETATM   36  C   UNL     1      -9.618   5.709  71.004  1.00  0.00    -0.169 C  
BRANCH  36  37
HETATM   37  N   UNL     1     -11.009   6.165  70.855  1.00  0.00    -0.283 NA 
HETATM   38  C   UNL     1     -11.114   7.391  70.057  1.00  0.00    -0.220 C  
HETATM   39  C   UNL     1     -11.719   6.304  72.136  1.00  0.00    -0.319 C  
HETATM   40  C   UNL     1     -11.282   7.525  72.951  1.00  0.00    -0.396 C  
HETATM   41  C   UNL     1     -10.649   8.649  70.797  1.00  0.00    -0.254 C  
HETATM   42  C   UNL     1     -11.379   8.818  72.134  1.00  0.00    -0.411 C  
BRANCH  42  43
HETATM   43  C   UNL     1     -12.834   9.247  71.942  1.00  0.00    -0.404 C  
HETATM   44  N   UNL     1     -13.693   8.873  72.930  1.00  0.00    -0.906 N  
HETATM   45  H2  UNL     1     -13.386   8.342  73.745  1.00  0.00     0.000 HD 
HETATM   46  O   UNL     1     -13.259   9.856  70.965  1.00  0.00    -0.373 OA 
HETATM   47  H1  UNL     1     -14.664   9.159  72.802  1.00  0.00     0.000 HD 
ENDBRANCH  42  43
ENDBRANCH  36  37
ENDBRANCH  35  36
ENDBRANCH   4  30
TORSDOF 11
ENDMDL
MODEL       13
REMARK 921   NORMALIZED FREE ENERGY PREDICTED BY IDOCK:   -7.19 KCAL/MOL
REMARK 922        TOTAL FREE ENERGY PREDICTED BY IDOCK:  -13.44 KCAL/MOL
REMARK 923 INTER-LIGAND FREE ENERGY PREDICTED BY IDOCK:  -11.07 KCAL/MOL
REMARK 924 INTRA-LIGAND FREE ENERGY PREDICTED BY IDOCK:   -2.37 KCAL/MOL
REMARK 927      BINDING AFFINITY PREDICTED BY RF-SCORE:    0.00 PKD
ROOT
HETATM    1  C   UNL     1     -10.396  17.518  68.805  1.00  0.00    -0.358 C  
HETATM    2  N   UNL     1     -10.676  16.094  68.913  1.00  0.00    -0.261 N  
HETATM    3  O   UNL     1     -11.439  16.455  71.063  1.00  0.00    -0.388 OA 
HETATM    4  C   UNL     1     -11.261  15.671  70.129  1.00  0.00    -0.336 C  
ENDROOT
BRANCH   2   5
HETATM    5  C   UNL     1     -10.644  15.245  67.721  1.00  0.00    -0.266 C  
BRANCH   5   6
HETATM    6  C   UNL     1     -11.629  15.458  66.560  1.00  0.00     0.083 C  
BRANCH   6   7
HETATM    7  N   UNL     1     -11.150  14.795  65.323  1.00  0.00    -0.350 NA 
HETATM    8  C   UNL     1     -12.089  13.772  64.841  1.00  0.00    -0.403 C  
HETATM    9  C   UNL     1      -9.801  14.214  65.428  1.00  0.00    -0.200 C  
HETATM   10  C   UNL     1     -10.728  11.947  65.968  1.00  0.00    -0.285 C  
HETATM   11  C   UNL     1      -9.745  13.040  66.401  1.00  0.00    -0.268 C  
HETATM   12  C   UNL     1     -12.126  12.521  65.720  1.00  0.00    -0.443 C  
BRANCH  10  13
HETATM   13  O   UNL     1     -10.269  11.349  64.739  1.00  0.00    -0.251 OA 
BRANCH  13  14
HETATM   14  C   UNL     1      -9.819  10.071  64.858  1.00  0.00    -0.281 C  
HETATM   15  H   UNL     1     -10.979  10.001  66.573  1.00  0.00     0.000 HD 
HETATM   16  O   UNL     1      -9.177   9.480  64.005  1.00  0.00    -0.219 OA 
HETATM   17  N   UNL     1     -10.192   9.583  66.078  1.00  0.00    -0.237 N  
BRANCH  17  18
HETATM   18  C   UNL     1      -9.493   8.503  66.654  1.00  0.00    -0.207 A  
HETATM   19  C   UNL     1      -8.292   8.699  67.374  1.00  0.00    -0.116 A  
HETATM   20  C   UNL     1      -9.452   6.110  67.048  1.00  0.00    -0.141 A  
HETATM   21  C   UNL     1      -7.710   7.535  67.925  1.00  0.00    -0.116 A  
HETATM   22  C   UNL     1      -8.284   6.265  67.778  1.00  0.00    -0.118 A  
HETATM   23  C   UNL     1     -10.051   7.225  66.478  1.00  0.00    -0.163 A  
BRANCH  19  24
HETATM   24  C   UNL     1      -7.637  10.024  67.597  1.00  0.00    -0.091 A  
HETATM   25  C   UNL     1      -7.916  10.831  68.716  1.00  0.00    -0.136 A  
HETATM   26  C   UNL     1      -7.306  12.079  68.900  1.00  0.00    -0.067 A  
HETATM   27  C   UNL     1      -6.422  12.573  67.948  1.00  0.00    -0.105 A  
HETATM   28  C   UNL     1      -6.131  11.808  66.825  1.00  0.00    -0.102 A  
HETATM   29  C   UNL     1      -6.718  10.548  66.663  1.00  0.00    -0.099 A  
ENDBRANCH  19  24
ENDBRANCH  17  18
ENDBRANCH  13  14
ENDBRANCH  10  13
ENDBRANCH   6   7
ENDBRANCH   5   6
ENDBRANCH   2   5
BRANCH   4  30
HETATM   30  C   UNL     1     -11.781  14.274  70.298  1.00  0.00    -0.343 A  
HETATM   31  C   UNL     1     -11.336  13.295  69.396  1.00  0.00    -0.280 A  
HETATM   32  C   UNL     1     -12.680  13.893  71.298  1.00  0.00    -0.444 A  
HETATM   33  C   UNL     1     -12.992  12.549  71.505  1.00  0.00    -0.379 A  
HETATM   34  C   UNL     1     -11.703  11.953  69.559  1.00  0.00    -0.410 A  
HETATM   35  C   UNL     1     -12.504  11.565  70.639  1.00  0.00    -0.405 A  
BRANCH  35  36
HETATM   36  C   UNL     1     -12.876  10.113  70.862  1.00  0.00    -0.355 C  
BRANCH  36  37
HETATM   37  N   UNL     1     -11.955   9.427  71.782  1.00  0.00    -0.379 NA 
HETATM   38  C   UNL     1     -10.651   9.156  71.170  1.00  0.00    -0.309 C  
HETATM   39  C   UNL     1     -12.525   8.208  72.376  1.00  0.00    -0.262 C  
HETATM   40  C   UNL     1     -12.614   7.032  71.399  1.00  0.00    -0.428 C  
HETATM   41  C   UNL     1     -10.675   8.018  70.145  1.00  0.00    -0.244 C  
HETATM   42  C   UNL     1     -11.260   6.734  70.743  1.00  0.00    -0.352 C  
BRANCH  42  43
HETATM   43  C   UNL     1     -10.298   6.072  71.730  1.00  0.00    -0.215 C  
HETATM   44  N   UNL     1      -8.985   6.082  71.367  1.00  0.00    -0.143 N  
HETATM   45  H2  UNL     1      -8.665   6.504  70.496  1.00  0.00     0.000 HD 
HETATM   46  O   UNL     1     -10.636   5.522  72.773  1.00  0.00    -0.199 OA 
HETATM   47  H1  UNL     1      -8.342   5.640  72.026  1.00  0.00     0.000 HD 
ENDBRANCH  42  43
ENDBRANCH  36  37
ENDBRANCH  35  36
ENDBRANCH   4  30
TORSDOF 11
ENDMDL
MODEL       14
REMARK 921   NORMALIZED FREE ENERGY PREDICTED BY IDOCK:   -7.17 KCAL/MOL
REMARK 922        TOTAL FREE ENERGY PREDICTED BY IDOCK:  -13.41 KCAL/MOL
REMARK 923 INTER-LIGAND FREE ENERGY PREDICTED BY IDOCK:  -11.04 KCAL/MOL
REMARK 924 INTRA-LIGAND FREE ENERGY PREDICTED BY IDOCK:   -2.37 KCAL/MOL
REMARK 927      BINDING AFFINITY PREDICTED BY RF-SCORE:    0.00 PKD
ROOT
HETATM    1  C   UNL     1      -8.969  11.240  62.540  1.00  0.00    -0.233 C  
HETATM    2  N   UNL     1      -9.596  10.757  63.761  1.00  0.00    -0.267 N  
HETATM    3  O   UNL     1      -7.522  10.045  64.487  1.00  0.00    -0.137 OA 
HETATM    4  C   UNL     1      -8.724  10.191  64.719  1.00  0.00    -0.185 C  
ENDROOT
BRANCH   2   5
HETATM    5  C   UNL     1     -10.974  11.134  64.081  1.00  0.00    -0.206 C  
BRANCH   5   6
HETATM    6  C   UNL     1     -11.298  12.036  65.283  1.00  0.00    -0.312 C  
BRANCH   6   7
HETATM    7  N   UNL     1     -11.694  13.395  64.841  1.00  0.00    -0.337 NA 
HETATM    8  C   UNL     1     -10.532  14.233  64.513  1.00  0.00    -0.143 C  
HETATM    9  C   UNL     1     -12.565  14.112  65.787  1.00  0.00    -0.447 C  
HETATM   10  C   UNL     1     -10.612  15.303  66.816  1.00  0.00    -0.304 C  
HETATM   11  C   UNL     1     -11.855  14.451  67.094  1.00  0.00    -0.437 C  
HETATM   12  C   UNL     1      -9.728  14.664  65.741  1.00  0.00    -0.331 C  
BRANCH  10  13
HETATM   13  O   UNL     1     -11.018  16.602  66.342  1.00  0.00    -0.080 OA 
BRANCH  13  14
HETATM   14  C   UNL     1     -10.458  17.652  67.001  1.00  0.00    -0.305 C  
HETATM   15  H   UNL     1      -9.218  17.809  65.348  1.00  0.00     0.000 HD 
HETATM   16  O   UNL     1     -10.901  18.144  68.026  1.00  0.00    -0.331 OA 
HETATM   17  N   UNL     1      -9.330  18.040  66.335  1.00  0.00    -0.279 N  
BRANCH  17  18
HETATM   18  C   UNL     1      -8.321  18.759  67.007  1.00  0.00    -0.272 A  
HETATM   19  C   UNL     1      -7.406  18.117  67.871  1.00  0.00    -0.225 A  
HETATM   20  C   UNL     1      -7.284  20.923  67.360  1.00  0.00    -0.396 A  
HETATM   21  C   UNL     1      -6.426  18.950  68.457  1.00  0.00    -0.261 A  
HETATM   22  C   UNL     1      -6.356  20.325  68.197  1.00  0.00    -0.315 A  
HETATM   23  C   UNL     1      -8.272  20.144  66.772  1.00  0.00    -0.351 A  
BRANCH  19  24
HETATM   24  C   UNL     1      -7.399  16.653  68.174  1.00  0.00    -0.172 A  
HETATM   25  C   UNL     1      -8.133  16.092  69.236  1.00  0.00    -0.186 A  
HETATM   26  C   UNL     1      -8.100  14.720  69.517  1.00  0.00     0.014 A  
HETATM   27  C   UNL     1      -7.301  13.870  68.762  1.00  0.00    -0.118 A  
HETATM   28  C   UNL     1      -6.554  14.390  67.711  1.00  0.00    -0.189 A  
HETATM   29  C   UNL     1      -6.617  15.756  67.415  1.00  0.00    -0.215 A  
ENDBRANCH  19  24
ENDBRANCH  17  18
ENDBRANCH  13  14
ENDBRANCH  10  13
ENDBRANCH   6   7
ENDBRANCH   5   6
ENDBRANCH   2   5
BRANCH   4  30
HETATM   30  C   UNL     1      -9.204   9.836  66.096  1.00  0.00    -0.221 A  
HETATM   31  C   UNL     1      -8.741  10.610  67.171  1.00  0.00    -0.130 A  
HETATM   32  C   UNL     1     -10.082   8.783  66.367  1.00  0.00    -0.313 A  
HETATM   33  C   UNL     1     -10.621   8.612  67.643  1.00  0.00    -0.272 A  
HETATM   34  C   UNL     1      -9.228  10.397  68.467  1.00  0.00    -0.145 A  
HETATM   35  C   UNL     1     -10.202   9.420  68.706  1.00  0.00    -0.221 A  
BRANCH  35  36
HETATM   36  C   UNL     1     -10.777   9.202  70.090  1.00  0.00    -0.233 C  
BRANCH  36  37
HETATM   37  N   UNL     1      -9.958   8.293  70.907  1.00  0.00    -0.187 NA 
HETATM   38  C   UNL     1      -9.992   6.912  70.414  1.00  0.00    -0.179 C  
HETATM   39  C   UNL     1     -10.276   8.351  72.342  1.00  0.00    -0.329 C  
HETATM   40  C   UNL     1     -11.601   7.675  72.706  1.00  0.00    -0.334 C  
HETATM   41  C   UNL     1     -11.310   6.188  70.704  1.00  0.00    -0.368 C  
HETATM   42  C   UNL     1     -11.661   6.230  72.196  1.00  0.00    -0.367 C  
BRANCH  42  43
HETATM   43  C   UNL     1     -10.760   5.311  73.022  1.00  0.00    -0.257 C  
HETATM   44  N   UNL     1     -10.619   5.649  74.334  1.00  0.00    -0.300 N  
HETATM   45  H2  UNL     1     -11.084   6.462  74.739  1.00  0.00     0.000 HD 
HETATM   46  O   UNL     1     -10.154   4.343  72.575  1.00  0.00    -0.165 OA 
HETATM   47  H1  UNL     1     -10.019   5.036  74.885  1.00  0.00     0.000 HD 
ENDBRANCH  42  43
ENDBRANCH  36  37
ENDBRANCH  35  36
ENDBRANCH   4  30
TORSDOF 11
ENDMDL
MODEL       15
REMARK 921   NORMALIZED FREE ENERGY PREDICTED BY IDOCK:   -7.05 KCAL/MOL
REMARK 922        TOTAL FREE ENERGY PREDICTED BY IDOCK:  -13.22 KCAL/MOL
REMARK 923 INTER-LIGAND FREE ENERGY PREDICTED BY IDOCK:   -9.92 KCAL/MOL
REMARK 924 INTRA-LIGAND FREE ENERGY PREDICTED BY IDOCK:   -3.30 KCAL/MOL
REMARK 927      BINDING AFFINITY PREDICTED BY RF-SCORE:    0.00 PKD
ROOT
HETATM    1  C   UNL     1      -5.833   6.687  62.373  1.00  0.00    -0.035 C  
HETATM    2  N   UNL     1      -6.652   7.318  63.397  1.00  0.00    -0.052 N  
HETATM    3  O   UNL     1      -6.275   9.355  62.374  1.00  0.00    -0.094 OA 
HETATM    4  C   UNL     1      -6.842   8.713  63.260  1.00  0.00    -0.089 C  
ENDROOT
BRANCH   2   5
HETATM    5  C   UNL     1      -7.466   6.500  64.297  1.00  0.00    -0.092 C  
BRANCH   5   6
HETATM    6  C   UNL     1      -7.012   6.199  65.735  1.00  0.00    -0.057 C  
BRANCH   6   7
HETATM    7  N   UNL     1      -7.848   5.140  66.349  1.00  0.00    -0.102 NA 
HETATM    8  C   UNL     1      -9.270   5.509  66.393  1.00  0.00    -0.150 C  
HETATM    9  C   UNL     1      -7.408   4.720  67.690  1.00  0.00    -0.074 C  
HETATM   10  C   UNL     1      -9.030   6.277  68.803  1.00  0.00    -0.125 C  
HETATM   11  C   UNL     1      -7.568   5.826  68.730  1.00  0.00    -0.089 C  
HETATM   12  C   UNL     1      -9.581   6.607  67.412  1.00  0.00    -0.147 C  
BRANCH  10  13
HETATM   13  O   UNL     1      -9.832   5.216  69.358  1.00  0.00    -0.163 OA 
BRANCH  13  14
HETATM   14  C   UNL     1     -10.641   5.588  70.387  1.00  0.00    -0.280 C  
HETATM   15  H   UNL     1     -11.859   6.391  68.916  1.00  0.00     0.000 HD 
HETATM   16  O   UNL     1     -10.493   5.238  71.547  1.00  0.00    -0.220 OA 
HETATM   17  N   UNL     1     -11.615   6.415  69.905  1.00  0.00    -0.424 N  
BRANCH  17  18
HETATM   18  C   UNL     1     -12.284   7.303  70.773  1.00  0.00    -0.217 A  
HETATM   19  C   UNL     1     -11.663   8.479  71.251  1.00  0.00    -0.331 A  
HETATM   20  C   UNL     1     -14.346   7.797  71.951  1.00  0.00    -0.545 A  
HETATM   21  C   UNL     1     -12.457   9.295  72.088  1.00  0.00    -0.421 A  
HETATM   22  C   UNL     1     -13.778   8.970  72.422  1.00  0.00    -0.539 A  
HETATM   23  C   UNL     1     -13.598   6.959  71.135  1.00  0.00    -0.052 A  
BRANCH  19  24
HETATM   24  C   UNL     1     -10.271   8.907  70.915  1.00  0.00    -0.304 A  
HETATM   25  C   UNL     1      -9.160   8.573  71.710  1.00  0.00    -0.304 A  
HETATM   26  C   UNL     1      -7.863   8.999  71.391  1.00  0.00    -0.088 A  
HETATM   27  C   UNL     1      -7.646   9.805  70.281  1.00  0.00    -0.184 A  
HETATM   28  C   UNL     1      -8.722  10.165  69.478  1.00  0.00    -0.189 A  
HETATM   29  C   UNL     1     -10.009   9.709  69.783  1.00  0.00    -0.252 A  
ENDBRANCH  19  24
ENDBRANCH  17  18
ENDBRANCH  13  14
ENDBRANCH  10  13
ENDBRANCH   6   7
ENDBRANCH   5   6
ENDBRANCH   2   5
BRANCH   4  30
HETATM   30  C   UNL     1      -7.820   9.454  64.125  1.00  0.00    -0.124 A  
HETATM   31  C   UNL     1      -7.355   9.970  65.344  1.00  0.00    -0.139 A  
HETATM   32  C   UNL     1      -9.160   9.658  63.786  1.00  0.00    -0.220 A  
HETATM   33  C   UNL     1      -9.970  10.498  64.551  1.00  0.00    -0.413 A  
HETATM   34  C   UNL     1      -8.187  10.757  66.150  1.00  0.00    -0.163 A  
HETATM   35  C   UNL     1      -9.491  11.059  65.739  1.00  0.00    -0.242 A  
BRANCH  35  36
HETATM   36  C   UNL     1     -10.394  11.946  66.572  1.00  0.00    -0.216 C  
BRANCH  36  37
HETATM   37  N   UNL     1      -9.780  13.245  66.885  1.00  0.00    -0.241 NA 
HETATM   38  C   UNL     1      -9.747  13.517  68.326  1.00  0.00    -0.224 C  
HETATM   39  C   UNL     1     -10.381  14.368  66.148  1.00  0.00    -0.298 C  
HETATM   40  C   UNL     1     -11.768  14.767  66.660  1.00  0.00    -0.293 C  
HETATM   41  C   UNL     1     -11.113  13.879  68.916  1.00  0.00    -0.296 C  
HETATM   42  C   UNL     1     -11.758  15.051  68.167  1.00  0.00    -0.335 C  
BRANCH  42  43
HETATM   43  C   UNL     1     -11.066  16.379  68.477  1.00  0.00    -0.357 C  
HETATM   44  N   UNL     1     -11.039  16.734  69.793  1.00  0.00    -0.388 N  
HETATM   45  H2  UNL     1     -11.452  16.153  70.521  1.00  0.00     0.000 HD 
HETATM   46  O   UNL     1     -10.584  17.129  67.635  1.00  0.00    -0.350 OA 
HETATM   47  H1  UNL     1     -10.577  17.620  70.000  1.00  0.00     0.000 HD 
ENDBRANCH  42  43
ENDBRANCH  36  37
ENDBRANCH  35  36
ENDBRANCH   4  30
TORSDOF 11
ENDMDL
MODEL       16
REMARK 921   NORMALIZED FREE ENERGY PREDICTED BY IDOCK:   -7.05 KCAL/MOL
REMARK 922        TOTAL FREE ENERGY PREDICTED BY IDOCK:  -13.22 KCAL/MOL
REMARK 923 INTER-LIGAND FREE ENERGY PREDICTED BY IDOCK:  -11.39 KCAL/MOL
REMARK 924 INTRA-LIGAND FREE ENERGY PREDICTED BY IDOCK:   -1.83 KCAL/MOL
REMARK 927      BINDING AFFINITY PREDICTED BY RF-SCORE:    0.00 PKD
ROOT
HETATM    1  C   UNL     1      -6.823  18.115  68.965  1.00  0.00    -0.250 C  
HETATM    2  N   UNL     1      -7.624  17.039  68.404  1.00  0.00    -0.210 N  
HETATM    3  O   UNL     1      -9.509  18.329  68.745  1.00  0.00    -0.319 OA 
HETATM    4  C   UNL     1      -9.011  17.292  68.304  1.00  0.00    -0.262 C  
ENDROOT
BRANCH   2   5
HETATM    5  C   UNL     1      -6.978  15.924  67.709  1.00  0.00    -0.149 C  
BRANCH   5   6
HETATM    6  C   UNL     1      -6.212  14.837  68.479  1.00  0.00    -0.088 C  
BRANCH   6   7
HETATM    7  N   UNL     1      -6.074  13.602  67.669  1.00  0.00    -0.285 NA 
HETATM    8  C   UNL     1      -7.377  13.047  67.276  1.00  0.00    -0.057 C  
HETATM    9  C   UNL     1      -5.261  12.549  68.299  1.00  0.00    -0.062 C  
HETATM   10  C   UNL     1      -7.297  11.405  69.214  1.00  0.00    -0.042 C  
HETATM   11  C   UNL     1      -5.916  11.976  69.552  1.00  0.00    -0.100 C  
HETATM   12  C   UNL     1      -8.145  12.420  68.441  1.00  0.00    -0.143 C  
BRANCH  10  13
HETATM   13  O   UNL     1      -7.142  10.235  68.386  1.00  0.00    -0.075 OA 
BRANCH  13  14
HETATM   14  C   UNL     1      -8.204   9.385  68.394  1.00  0.00    -0.117 C  
HETATM   15  H   UNL     1      -8.267   9.753  70.432  1.00  0.00     0.000 HD 
HETATM   16  O   UNL     1      -8.746   8.942  67.393  1.00  0.00    -0.124 OA 
HETATM   17  N   UNL     1      -8.539   9.110  69.689  1.00  0.00    -0.134 N  
BRANCH  17  18
HETATM   18  C   UNL     1      -9.261   7.939  70.001  1.00  0.00    -0.153 A  
HETATM   19  C   UNL     1     -10.603   7.992  70.441  1.00  0.00    -0.224 A  
HETATM   20  C   UNL     1      -9.225   5.515  70.095  1.00  0.00    -0.173 A  
HETATM   21  C   UNL     1     -11.217   6.744  70.690  1.00  0.00    -0.361 A  
HETATM   22  C   UNL     1     -10.548   5.527  70.508  1.00  0.00    -0.339 A  
HETATM   23  C   UNL     1      -8.578   6.720  69.851  1.00  0.00    -0.141 A  
BRANCH  19  24
HETATM   24  C   UNL     1     -11.391   9.248  70.629  1.00  0.00    -0.330 A  
HETATM   25  C   UNL     1     -11.402  10.289  69.682  1.00  0.00    -0.315 A  
HETATM   26  C   UNL     1     -12.131  11.468  69.885  1.00  0.00    -0.389 A  
HETATM   27  C   UNL     1     -12.846  11.655  71.061  1.00  0.00    -0.339 A  
HETATM   28  C   UNL     1     -12.849  10.654  72.024  1.00  0.00    -0.389 A  
HETATM   29  C   UNL     1     -12.146   9.464  71.802  1.00  0.00    -0.454 A  
ENDBRANCH  19  24
ENDBRANCH  17  18
ENDBRANCH  13  14
ENDBRANCH  10  13
ENDBRANCH   6   7
ENDBRANCH   5   6
ENDBRANCH   2   5
BRANCH   4  30
HETATM   30  C   UNL     1      -9.923  16.355  67.566  1.00  0.00    -0.250 A  
HETATM   31  C   UNL     1     -10.660  15.428  68.320  1.00  0.00    -0.253 A  
HETATM   32  C   UNL     1     -10.079  16.352  66.177  1.00  0.00    -0.364 A  
HETATM   33  C   UNL     1     -11.065  15.573  65.571  1.00  0.00    -0.265 A  
HETATM   34  C   UNL     1     -11.603  14.595  67.706  1.00  0.00    -0.382 A  
HETATM   35  C   UNL     1     -11.839  14.689  66.329  1.00  0.00    -0.299 A  
BRANCH  35  36
HETATM   36  C   UNL     1     -12.886  13.830  65.649  1.00  0.00    -0.408 C  
BRANCH  36  37
HETATM   37  N   UNL     1     -12.472  12.424  65.525  1.00  0.00    -0.591 NA 
HETATM   38  C   UNL     1     -11.095  12.203  65.978  1.00  0.00    -0.313 C  
HETATM   39  C   UNL     1     -12.682  11.870  64.179  1.00  0.00    -0.170 C  
HETATM   40  C   UNL     1     -11.678  12.380  63.141  1.00  0.00    -0.323 C  
HETATM   41  C   UNL     1     -10.035  12.731  65.007  1.00  0.00    -0.171 C  
HETATM   42  C   UNL     1     -10.231  12.163  63.596  1.00  0.00    -0.459 C  
BRANCH  42  43
HETATM   43  C   UNL     1      -9.836  10.689  63.513  1.00  0.00    -0.326 C  
HETATM   44  N   UNL     1     -10.150  10.060  62.346  1.00  0.00    -0.528 N  
HETATM   45  H2  UNL     1     -10.617  10.542  61.578  1.00  0.00     0.000 HD 
HETATM   46  O   UNL     1      -9.304  10.056  64.420  1.00  0.00    -0.256 OA 
HETATM   47  H1  UNL     1      -9.887   9.076  62.290  1.00  0.00     0.000 HD 
ENDBRANCH  42  43
ENDBRANCH  36  37
ENDBRANCH  35  36
ENDBRANCH   4  30
TORSDOF 11
ENDMDL
MODEL       17
REMARK 921   NORMALIZED FREE ENERGY PREDICTED BY IDOCK:   -6.93 KCAL/MOL
REMARK 922        TOTAL FREE ENERGY PREDICTED BY IDOCK:  -13.03 KCAL/MOL
REMARK 923 INTER-LIGAND FREE ENERGY PREDICTED BY IDOCK:  -12.13 KCAL/MOL
REMARK 924 INTRA-LIGAND FREE ENERGY PREDICTED BY IDOCK:   -0.89 KCAL/MOL
REMARK 927      BINDING AFFINITY PREDICTED BY RF-SCORE:    0.00 PKD
ROOT
HETATM    1  C   UNL     1     -13.012  11.844  63.756  1.00  0.00    -0.166 C  
HETATM    2  N   UNL     1     -12.036  12.515  64.600  1.00  0.00    -0.382 N  
HETATM    3  O   UNL     1     -12.599  14.511  63.582  1.00  0.00    -0.798 OA 
HETATM    4  C   UNL     1     -11.946  13.917  64.443  1.00  0.00    -0.450 C  
ENDROOT
BRANCH   2   5
HETATM    5  C   UNL     1     -11.440  11.814  65.739  1.00  0.00    -0.194 C  
BRANCH   5   6
HETATM    6  C   UNL     1     -10.659  10.503  65.552  1.00  0.00    -0.068 C  
BRANCH   6   7
HETATM    7  N   UNL     1      -9.499  10.436  66.474  1.00  0.00    -0.163 NA 
HETATM    8  C   UNL     1      -8.714   9.206  66.291  1.00  0.00    -0.140 C  
HETATM    9  C   UNL     1      -9.845  10.591  67.897  1.00  0.00    -0.160 C  
HETATM   10  C   UNL     1      -9.924   8.108  68.238  1.00  0.00    -0.186 C  
HETATM   11  C   UNL     1     -10.677   9.428  68.427  1.00  0.00    -0.213 C  
HETATM   12  C   UNL     1      -9.428   7.951  66.797  1.00  0.00    -0.257 C  
BRANCH  10  13
HETATM   13  O   UNL     1      -8.774   8.083  69.107  1.00  0.00    -0.136 OA 
BRANCH  13  14
HETATM   14  C   UNL     1      -8.691   6.992  69.915  1.00  0.00    -0.142 C  
HETATM   15  H   UNL     1     -10.552   6.495  69.151  1.00  0.00     0.000 HD 
HETATM   16  O   UNL     1      -7.692   6.661  70.534  1.00  0.00    -0.100 OA 
HETATM   17  N   UNL     1      -9.899   6.355  69.922  1.00  0.00    -0.166 N  
BRANCH  17  18
HETATM   18  C   UNL     1     -10.247   5.504  70.991  1.00  0.00    -0.223 A  
HETATM   19  C   UNL     1     -11.255   5.854  71.917  1.00  0.00    -0.323 A  
HETATM   20  C   UNL     1      -9.847   3.375  72.083  1.00  0.00    -0.236 A  
HETATM   21  C   UNL     1     -11.524   4.897  72.922  1.00  0.00    -0.266 A  
HETATM   22  C   UNL     1     -10.845   3.674  72.998  1.00  0.00    -0.206 A  
HETATM   23  C   UNL     1      -9.541   4.292  71.086  1.00  0.00    -0.249 A  
BRANCH  19  24
HETATM   24  C   UNL     1     -12.042   7.124  71.884  1.00  0.00    -0.357 A  
HETATM   25  C   UNL     1     -13.437   7.150  71.698  1.00  0.00    -0.397 A  
HETATM   26  C   UNL     1     -14.157   8.351  71.650  1.00  0.00    -0.487 A  
HETATM   27  C   UNL     1     -13.494   9.568  71.752  1.00  0.00    -0.480 A  
HETATM   28  C   UNL     1     -12.115   9.582  71.925  1.00  0.00    -0.409 A  
HETATM   29  C   UNL     1     -11.406   8.378  72.006  1.00  0.00    -0.411 A  
ENDBRANCH  19  24
ENDBRANCH  17  18
ENDBRANCH  13  14
ENDBRANCH  10  13
ENDBRANCH   6   7
ENDBRANCH   5   6
ENDBRANCH   2   5
BRANCH   4  30
HETATM   30  C   UNL     1     -11.129  14.755  65.383  1.00  0.00    -0.359 A  
HETATM   31  C   UNL     1     -11.687  15.074  66.631  1.00  0.00    -0.144 A  
HETATM   32  C   UNL     1      -9.850  15.234  65.088  1.00  0.00    -0.164 A  
HETATM   33  C   UNL     1      -9.079  15.862  66.066  1.00  0.00    -0.363 A  
HETATM   34  C   UNL     1     -10.940  15.765  67.593  1.00  0.00    -0.302 A  
HETATM   35  C   UNL     1      -9.615  16.131  67.330  1.00  0.00    -0.229 A  
BRANCH  35  36
HETATM   36  C   UNL     1      -8.772  16.839  68.371  1.00  0.00    -0.236 C  
BRANCH  36  37
HETATM   37  N   UNL     1      -7.578  17.477  67.795  1.00  0.00    -0.190 NA 
HETATM   38  C   UNL     1      -6.764  18.160  68.806  1.00  0.00    -0.245 C  
HETATM   39  C   UNL     1      -7.880  18.371  66.667  1.00  0.00    -0.248 C  
HETATM   40  C   UNL     1      -8.529  19.693  67.087  1.00  0.00    -0.345 C  
HETATM   41  C   UNL     1      -7.376  19.471  69.307  1.00  0.00    -0.311 C  
HETATM   42  C   UNL     1      -7.696  20.422  68.148  1.00  0.00    -0.091 C  
BRANCH  42  43
HETATM   43  C   UNL     1      -6.432  21.031  67.541  1.00  0.00    -0.359 C  
HETATM   44  N   UNL     1      -6.504  21.338  66.216  1.00  0.00    -0.492 N  
HETATM   45  H2  UNL     1      -7.346  21.174  65.665  1.00  0.00     0.000 HD 
HETATM   46  O   UNL     1      -5.385  21.217  68.152  1.00  0.00    -0.290 OA 
HETATM   47  H1  UNL     1      -5.660  21.745  65.811  1.00  0.00     0.000 HD 
ENDBRANCH  42  43
ENDBRANCH  36  37
ENDBRANCH  35  36
ENDBRANCH   4  30
TORSDOF 11
ENDMDL
MODEL       18
REMARK 921   NORMALIZED FREE ENERGY PREDICTED BY IDOCK:   -6.92 KCAL/MOL
REMARK 922        TOTAL FREE ENERGY PREDICTED BY IDOCK:  -13.00 KCAL/MOL
REMARK 923 INTER-LIGAND FREE ENERGY PREDICTED BY IDOCK:  -11.13 KCAL/MOL
REMARK 924 INTRA-LIGAND FREE ENERGY PREDICTED BY IDOCK:   -1.87 KCAL/MOL
REMARK 927      BINDING AFFINITY PREDICTED BY RF-SCORE:    0.00 PKD
ROOT
HETATM    1  C   UNL     1      -8.394   7.850  64.562  1.00  0.00    -0.012 C  
HETATM    2  N   UNL     1      -8.204   9.140  65.208  1.00  0.00    -0.126 N  
HETATM    3  O   UNL     1      -7.074   8.065  66.912  1.00  0.00    -0.078 OA 
HETATM    4  C   UNL     1      -7.460   9.123  66.409  1.00  0.00    -0.092 C  
ENDROOT
BRANCH   2   5
HETATM    5  C   UNL     1      -8.493  10.377  64.481  1.00  0.00    -0.169 C  
BRANCH   5   6
HETATM    6  C   UNL     1      -9.926  10.919  64.361  1.00  0.00    -0.322 C  
BRANCH   6   7
HETATM    7  N   UNL     1      -9.966  12.384  64.591  1.00  0.00    -0.218 NA 
HETATM    8  C   UNL     1      -9.555  12.744  65.956  1.00  0.00    -0.178 C  
HETATM    9  C   UNL     1     -11.262  13.012  64.286  1.00  0.00    -0.373 C  
HETATM   10  C   UNL     1     -11.986  12.883  66.684  1.00  0.00    -0.366 C  
HETATM   11  C   UNL     1     -12.368  12.561  65.236  1.00  0.00    -0.469 C  
HETATM   12  C   UNL     1     -10.586  12.361  67.020  1.00  0.00    -0.248 C  
BRANCH  10  13
HETATM   13  O   UNL     1     -11.983  14.312  66.873  1.00  0.00    -0.416 OA 
BRANCH  13  14
HETATM   14  C   UNL     1     -11.776  14.719  68.154  1.00  0.00    -0.325 C  
HETATM   15  H   UNL     1     -12.311  12.786  68.675  1.00  0.00     0.000 HD 
HETATM   16  O   UNL     1     -11.280  15.789  68.470  1.00  0.00    -0.314 OA 
HETATM   17  N   UNL     1     -12.224  13.748  69.004  1.00  0.00    -0.309 N  
BRANCH  17  18
HETATM   18  C   UNL     1     -12.566  14.071  70.333  1.00  0.00    -0.308 A  
HETATM   19  C   UNL     1     -12.613  13.086  71.345  1.00  0.00    -0.329 A  
HETATM   20  C   UNL     1     -13.160  15.835  71.888  1.00  0.00    -0.492 A  
HETATM   21  C   UNL     1     -12.940  13.550  72.639  1.00  0.00    -0.291 A  
HETATM   22  C   UNL     1     -13.195  14.901  72.911  1.00  0.00    -0.590 A  
HETATM   23  C   UNL     1     -12.855  15.421  70.598  1.00  0.00    -0.484 A  
BRANCH  19  24
HETATM   24  C   UNL     1     -12.325  11.634  71.138  1.00  0.00    -0.351 A  
HETATM   25  C   UNL     1     -11.291  11.176  70.301  1.00  0.00    -0.237 A  
HETATM   26  C   UNL     1     -11.047   9.810  70.103  1.00  0.00    -0.335 A  
HETATM   27  C   UNL     1     -11.856   8.860  70.712  1.00  0.00    -0.230 A  
HETATM   28  C   UNL     1     -12.894   9.275  71.537  1.00  0.00    -0.427 A  
HETATM   29  C   UNL     1     -13.112  10.640  71.757  1.00  0.00    -0.571 A  
ENDBRANCH  19  24
ENDBRANCH  17  18
ENDBRANCH  13  14
ENDBRANCH  10  13
ENDBRANCH   6   7
ENDBRANCH   5   6
ENDBRANCH   2   5
BRANCH   4  30
HETATM   30  C   UNL     1      -7.021  10.396  67.071  1.00  0.00    -0.090 A  
HETATM   31  C   UNL     1      -7.549  10.692  68.337  1.00  0.00    -0.100 A  
HETATM   32  C   UNL     1      -6.119  11.300  66.502  1.00  0.00    -0.139 A  
HETATM   33  C   UNL     1      -5.625  12.376  67.239  1.00  0.00    -0.099 A  
HETATM   34  C   UNL     1      -7.105  11.811  69.054  1.00  0.00    -0.100 A  
HETATM   35  C   UNL     1      -6.110  12.641  68.524  1.00  0.00    -0.062 A  
BRANCH  35  36
HETATM   36  C   UNL     1      -5.581  13.831  69.299  1.00  0.00    -0.080 C  
BRANCH  36  37
HETATM   37  N   UNL     1      -6.638  14.788  69.658  1.00  0.00    -0.149 NA 
HETATM   38  C   UNL     1      -7.708  14.844  68.657  1.00  0.00    -0.127 C  
HETATM   39  C   UNL     1      -6.129  16.134  69.964  1.00  0.00    -0.142 C  
HETATM   40  C   UNL     1      -5.678  16.916  68.727  1.00  0.00    -0.141 C  
HETATM   41  C   UNL     1      -7.311  15.574  67.371  1.00  0.00    -0.241 C  
HETATM   42  C   UNL     1      -6.781  16.982  67.664  1.00  0.00    -0.162 C  
BRANCH  42  43
HETATM   43  C   UNL     1      -7.898  17.939  68.081  1.00  0.00    -0.266 C  
HETATM   44  N   UNL     1      -9.140  17.634  67.611  1.00  0.00    -0.239 N  
HETATM   45  H2  UNL     1      -9.313  16.820  67.021  1.00  0.00     0.000 HD 
HETATM   46  O   UNL     1      -7.736  18.948  68.760  1.00  0.00    -0.329 OA 
HETATM   47  H1  UNL     1      -9.886  18.272  67.890  1.00  0.00     0.000 HD 
ENDBRANCH  42  43
ENDBRANCH  36  37
ENDBRANCH  35  36
ENDBRANCH   4  30
TORSDOF 11
ENDMDL
MODEL       19
REMARK 921   NORMALIZED FREE ENERGY PREDICTED BY IDOCK:   -6.91 KCAL/MOL
REMARK 922        TOTAL FREE ENERGY PREDICTED BY IDOCK:  -12.99 KCAL/MOL
REMARK 923 INTER-LIGAND FREE ENERGY PREDICTED BY IDOCK:  -12.07 KCAL/MOL
REMARK 924 INTRA-LIGAND FREE ENERGY PREDICTED BY IDOCK:   -0.93 KCAL/MOL
REMARK 927      BINDING AFFINITY PREDICTED BY RF-SCORE:    0.00 PKD
ROOT
HETATM    1  C   UNL     1     -13.026  13.141  65.157  1.00  0.00    -0.128 C  
HETATM    2  N   UNL     1     -11.892  13.908  65.650  1.00  0.00    -0.354 N  
HETATM    3  O   UNL     1     -12.049  15.251  63.778  1.00  0.00    -0.446 OA 
HETATM    4  C   UNL     1     -11.506  15.013  64.858  1.00  0.00    -0.399 C  
ENDROOT
BRANCH   2   5
HETATM    5  C   UNL     1     -11.418  13.722  67.022  1.00  0.00    -0.346 C  
BRANCH   5   6
HETATM    6  C   UNL     1     -12.004  12.629  67.931  1.00  0.00    -0.249 C  
BRANCH   6   7
HETATM    7  N   UNL     1     -11.225  12.500  69.186  1.00  0.00    -0.253 NA 
HETATM    8  C   UNL     1     -10.190  11.460  69.094  1.00  0.00    -0.059 C  
HETATM    9  C   UNL     1     -12.043  12.275  70.389  1.00  0.00    -0.300 C  
HETATM   10  C   UNL     1     -11.721   9.791  70.246  1.00  0.00    -0.190 C  
HETATM   11  C   UNL     1     -12.748  10.922  70.371  1.00  0.00    -0.326 C  
HETATM   12  C   UNL     1     -10.758  10.040  69.082  1.00  0.00    -0.244 C  
BRANCH  10  13
HETATM   13  O   UNL     1     -10.943   9.716  71.457  1.00  0.00    -0.348 OA 
BRANCH  13  14
HETATM   14  C   UNL     1     -10.236   8.563  71.612  1.00  0.00    -0.266 C  
HETATM   15  H   UNL     1     -11.928   7.626  70.867  1.00  0.00     0.000 HD 
HETATM   16  O   UNL     1      -9.051   8.509  71.898  1.00  0.00    -0.201 OA 
HETATM   17  N   UNL     1     -11.073   7.503  71.409  1.00  0.00    -0.236 N  
BRANCH  17  18
HETATM   18  C   UNL     1     -10.757   6.238  71.945  1.00  0.00    -0.230 A  
HETATM   19  C   UNL     1     -10.410   5.148  71.116  1.00  0.00    -0.276 A  
HETATM   20  C   UNL     1     -10.465   4.921  73.962  1.00  0.00    -0.329 A  
HETATM   21  C   UNL     1     -10.087   3.946  71.785  1.00  0.00    -0.186 A  
HETATM   22  C   UNL     1     -10.100   3.835  73.181  1.00  0.00    -0.208 A  
HETATM   23  C   UNL     1     -10.803   6.119  73.345  1.00  0.00    -0.243 A  
BRANCH  19  24
HETATM   24  C   UNL     1     -10.345   5.197  69.623  1.00  0.00    -0.316 A  
HETATM   25  C   UNL     1      -9.609   4.269  68.863  1.00  0.00    -0.227 A  
HETATM   26  C   UNL     1      -9.543   4.342  67.465  1.00  0.00    -0.217 A  
HETATM   27  C   UNL     1     -10.186   5.370  66.787  1.00  0.00    -0.282 A  
HETATM   28  C   UNL     1     -10.913   6.311  67.506  1.00  0.00    -0.444 A  
HETATM   29  C   UNL     1     -11.002   6.214  68.899  1.00  0.00    -0.424 A  
ENDBRANCH  19  24
ENDBRANCH  17  18
ENDBRANCH  13  14
ENDBRANCH  10  13
ENDBRANCH   6   7
ENDBRANCH   5   6
ENDBRANCH   2   5
BRANCH   4  30
HETATM   30  C   UNL     1     -10.488  16.002  65.346  1.00  0.00    -0.415 A  
HETATM   31  C   UNL     1     -10.911  17.322  65.572  1.00  0.00    -0.024 A  
HETATM   32  C   UNL     1      -9.148  15.686  65.588  1.00  0.00     0.023 A  
HETATM   33  C   UNL     1      -8.296  16.605  66.200  1.00  0.00    -0.305 A  
HETATM   34  C   UNL     1     -10.038  18.268  66.122  1.00  0.00    -0.354 A  
HETATM   35  C   UNL     1      -8.733  17.905  66.477  1.00  0.00    -0.278 A  
BRANCH  35  36
HETATM   36  C   UNL     1      -7.784  18.899  67.116  1.00  0.00    -0.235 C  
BRANCH  36  37
HETATM   37  N   UNL     1      -7.879  18.909  68.584  1.00  0.00    -0.333 NA 
HETATM   38  C   UNL     1      -7.539  20.214  69.158  1.00  0.00     0.114 C  
HETATM   39  C   UNL     1      -7.110  17.832  69.225  1.00  0.00    -0.113 C  
HETATM   40  C   UNL     1      -5.596  18.060  69.204  1.00  0.00    -0.201 C  
HETATM   41  C   UNL     1      -6.041  20.530  69.128  1.00  0.00    -0.357 C  
HETATM   42  C   UNL     1      -5.218  19.422  69.796  1.00  0.00    -0.212 C  
BRANCH  42  43
HETATM   43  C   UNL     1      -5.376  19.431  71.317  1.00  0.00    -0.309 C  
HETATM   44  N   UNL     1      -5.711  20.631  71.867  1.00  0.00    -0.640 N  
HETATM   45  H2  UNL     1      -5.848  21.469  71.301  1.00  0.00     0.000 HD 
HETATM   46  O   UNL     1      -5.190  18.460  72.043  1.00  0.00    -0.700 OA 
HETATM   47  H1  UNL     1      -5.817  20.637  72.882  1.00  0.00     0.000 HD 
ENDBRANCH  42  43
ENDBRANCH  36  37
ENDBRANCH  35  36
ENDBRANCH   4  30
TORSDOF 11
ENDMDL
MODEL       20
REMARK 921   NORMALIZED FREE ENERGY PREDICTED BY IDOCK:   -6.89 KCAL/MOL
REMARK 922        TOTAL FREE ENERGY PREDICTED BY IDOCK:  -12.96 KCAL/MOL
REMARK 923 INTER-LIGAND FREE ENERGY PREDICTED BY IDOCK:  -11.79 KCAL/MOL
REMARK 924 INTRA-LIGAND FREE ENERGY PREDICTED BY IDOCK:   -1.17 KCAL/MOL
REMARK 927      BINDING AFFINITY PREDICTED BY RF-SCORE:    0.00 PKD
ROOT
HETATM    1  C   UNL     1     -12.098  15.319  64.081  1.00  0.00    -0.129 C  
HETATM    2  N   UNL     1     -11.413  14.193  64.698  1.00  0.00    -0.378 N  
HETATM    3  O   UNL     1     -12.561  12.778  63.278  1.00  0.00    -0.676 OA 
HETATM    4  C   UNL     1     -11.710  12.920  64.158  1.00  0.00    -0.406 C  
ENDROOT
BRANCH   2   5
HETATM    5  C   UNL     1     -10.271  14.421  65.585  1.00  0.00    -0.350 C  
BRANCH   5   6
HETATM    6  C   UNL     1     -10.414  15.239  66.879  1.00  0.00    -0.289 C  
BRANCH   6   7
HETATM    7  N   UNL     1     -11.755  15.053  67.484  1.00  0.00    -0.314 NA 
HETATM    8  C   UNL     1     -11.908  15.805  68.738  1.00  0.00    -0.309 C  
HETATM    9  C   UNL     1     -12.132  13.647  67.705  1.00  0.00    -0.293 C  
HETATM   10  C   UNL     1     -11.358  13.724  70.089  1.00  0.00     0.040 C  
HETATM   11  C   UNL     1     -11.265  12.967  68.760  1.00  0.00    -0.325 C  
HETATM   12  C   UNL     1     -11.098  15.221  69.898  1.00  0.00    -0.303 C  
BRANCH  10  13
HETATM   13  O   UNL     1     -12.683  13.571  70.636  1.00  0.00    -0.282 OA 
BRANCH  13  14
HETATM   14  C   UNL     1     -12.866  12.451  71.387  1.00  0.00    -0.260 C  
HETATM   15  H   UNL     1     -11.374  11.624  70.211  1.00  0.00     0.000 HD 
HETATM   16  O   UNL     1     -13.562  12.393  72.388  1.00  0.00    -0.478 OA 
HETATM   17  N   UNL     1     -12.163  11.424  70.825  1.00  0.00    -0.383 N  
BRANCH  17  18
HETATM   18  C   UNL     1     -12.523  10.087  71.093  1.00  0.00    -0.379 A  
HETATM   19  C   UNL     1     -11.562   9.052  71.114  1.00  0.00    -0.372 A  
HETATM   20  C   UNL     1     -14.322   8.560  71.655  1.00  0.00    -0.497 A  
HETATM   21  C   UNL     1     -12.054   7.764  71.426  1.00  0.00    -0.335 A  
HETATM   22  C   UNL     1     -13.405   7.522  71.705  1.00  0.00    -0.414 A  
HETATM   23  C   UNL     1     -13.885   9.840  71.340  1.00  0.00    -0.145 A  
BRANCH  19  24
HETATM   24  C   UNL     1     -10.101   9.236  70.857  1.00  0.00    -0.373 A  
HETATM   25  C   UNL     1      -9.107   8.705  71.700  1.00  0.00    -0.318 A  
HETATM   26  C   UNL     1      -7.742   8.904  71.454  1.00  0.00    -0.126 A  
HETATM   27  C   UNL     1      -7.331   9.675  70.373  1.00  0.00    -0.156 A  
HETATM   28  C   UNL     1      -8.285  10.225  69.526  1.00  0.00    -0.165 A  
HETATM   29  C   UNL     1      -9.646   9.995  69.757  1.00  0.00    -0.249 A  
ENDBRANCH  19  24
ENDBRANCH  17  18
ENDBRANCH  13  14
ENDBRANCH  10  13
ENDBRANCH   6   7
ENDBRANCH   5   6
ENDBRANCH   2   5
BRANCH   4  30
HETATM   30  C   UNL     1     -10.932  11.702  64.563  1.00  0.00    -0.376 A  
HETATM   31  C   UNL     1     -10.096  11.110  63.603  1.00  0.00    -0.432 A  
HETATM   32  C   UNL     1     -10.992  11.126  65.834  1.00  0.00    -0.171 A  
HETATM   33  C   UNL     1     -10.120  10.099  66.196  1.00  0.00    -0.314 A  
HETATM   34  C   UNL     1      -9.267  10.034  63.944  1.00  0.00    -0.317 A  
HETATM   35  C   UNL     1      -9.245   9.545  65.255  1.00  0.00    -0.307 A  
BRANCH  35  36
HETATM   36  C   UNL     1      -8.324   8.412  65.658  1.00  0.00    -0.154 C  
BRANCH  36  37
HETATM   37  N   UNL     1      -9.012   7.112  65.706  1.00  0.00    -0.071 NA 
HETATM   38  C   UNL     1      -9.801   6.940  66.929  1.00  0.00    -0.183 C  
HETATM   39  C   UNL     1      -8.113   5.968  65.490  1.00  0.00    -0.133 C  
HETATM   40  C   UNL     1      -7.206   5.665  66.686  1.00  0.00    -0.074 C  
HETATM   41  C   UNL     1      -8.954   6.679  68.178  1.00  0.00    -0.121 C  
HETATM   42  C   UNL     1      -8.011   5.486  67.979  1.00  0.00    -0.096 C  
BRANCH  42  43
HETATM   43  C   UNL     1      -8.763   4.155  67.986  1.00  0.00    -0.100 C  
HETATM   44  N   UNL     1      -9.226   3.747  69.200  1.00  0.00    -0.146 N  
HETATM   45  H2  UNL     1      -9.081   4.293  70.049  1.00  0.00     0.000 HD 
HETATM   46  O   UNL     1      -8.936   3.445  67.000  1.00  0.00    -0.131 OA 
HETATM   47  H1  UNL     1      -9.729   2.859  69.205  1.00  0.00     0.000 HD 
ENDBRANCH  42  43
ENDBRANCH  36  37
ENDBRANCH  35  36
ENDBRANCH   4  30
TORSDOF 11
ENDMDL
MODEL       21
REMARK 921   NORMALIZED FREE ENERGY PREDICTED BY IDOCK:   -6.88 KCAL/MOL
REMARK 922        TOTAL FREE ENERGY PREDICTED BY IDOCK:  -12.94 KCAL/MOL
REMARK 923 INTER-LIGAND FREE ENERGY PREDICTED BY IDOCK:  -10.35 KCAL/MOL
REMARK 924 INTRA-LIGAND FREE ENERGY PREDICTED BY IDOCK:   -2.60 KCAL/MOL
REMARK 927      BINDING AFFINITY PREDICTED BY RF-SCORE:    0.00 PKD
ROOT
HETATM    1  C   UNL     1      -6.490   4.529  63.965  1.00  0.00    -0.038 C  
HETATM    2  N   UNL     1      -7.367   4.824  65.089  1.00  0.00    -0.070 N  
HETATM    3  O   UNL     1      -6.001   3.530  66.430  1.00  0.00    -0.022 OA 
HETATM    4  C   UNL     1      -6.977   4.277  66.333  1.00  0.00    -0.059 C  
ENDROOT
BRANCH   2   5
HETATM    5  C   UNL     1      -8.383   5.871  64.976  1.00  0.00    -0.131 C  
BRANCH   5   6
HETATM    6  C   UNL     1      -8.026   7.356  65.156  1.00  0.00    -0.128 C  
BRANCH   6   7
HETATM    7  N   UNL     1      -9.159   8.111  65.745  1.00  0.00    -0.132 NA 
HETATM    8  C   UNL     1      -9.171   9.517  65.318  1.00  0.00    -0.247 C  
HETATM    9  C   UNL     1      -9.237   8.041  67.214  1.00  0.00    -0.139 C  
HETATM   10  C   UNL     1      -8.005  10.211  67.467  1.00  0.00    -0.106 C  
HETATM   11  C   UNL     1      -8.065   8.742  67.895  1.00  0.00    -0.107 C  
HETATM   12  C   UNL     1      -8.049  10.350  65.942  1.00  0.00    -0.149 C  
BRANCH  10  13
HETATM   13  O   UNL     1      -9.140  10.916  68.008  1.00  0.00    -0.144 OA 
BRANCH  13  14
HETATM   14  C   UNL     1      -8.952  12.251  68.186  1.00  0.00    -0.192 C  
HETATM   15  H   UNL     1     -10.962  12.294  68.688  1.00  0.00     0.000 HD 
HETATM   16  O   UNL     1      -7.865  12.807  68.170  1.00  0.00    -0.127 OA 
HETATM   17  N   UNL     1     -10.168  12.847  68.366  1.00  0.00    -0.240 N  
BRANCH  17  18
HETATM   18  C   UNL     1     -10.327  14.224  68.109  1.00  0.00    -0.233 A  
HETATM   19  C   UNL     1     -10.801  14.694  66.864  1.00  0.00    -0.305 A  
HETATM   20  C   UNL     1     -10.162  16.473  69.004  1.00  0.00    -0.285 A  
HETATM   21  C   UNL     1     -10.943  16.095  66.750  1.00  0.00    -0.080 A  
HETATM   22  C   UNL     1     -10.643  16.970  67.803  1.00  0.00    -0.350 A  
HETATM   23  C   UNL     1      -9.994  15.103  69.155  1.00  0.00    -0.238 A  
BRANCH  19  24
HETATM   24  C   UNL     1     -11.169  13.823  65.706  1.00  0.00    -0.300 A  
HETATM   25  C   UNL     1     -12.486  13.386  65.472  1.00  0.00    -0.534 A  
HETATM   26  C   UNL     1     -12.810  12.553  64.392  1.00  0.00    -0.366 A  
HETATM   27  C   UNL     1     -11.816  12.104  63.532  1.00  0.00    -0.597 A  
HETATM   28  C   UNL     1     -10.502  12.506  63.739  1.00  0.00    -0.451 A  
HETATM   29  C   UNL     1     -10.189  13.365  64.799  1.00  0.00    -0.339 A  
ENDBRANCH  19  24
ENDBRANCH  17  18
ENDBRANCH  13  14
ENDBRANCH  10  13
ENDBRANCH   6   7
ENDBRANCH   5   6
ENDBRANCH   2   5
BRANCH   4  30
HETATM   30  C   UNL     1      -7.674   4.663  67.605  1.00  0.00    -0.086 A  
HETATM   31  C   UNL     1      -8.987   4.207  67.797  1.00  0.00    -0.142 A  
HETATM   32  C   UNL     1      -7.092   5.446  68.605  1.00  0.00    -0.065 A  
HETATM   33  C   UNL     1      -7.729   5.626  69.833  1.00  0.00    -0.083 A  
HETATM   34  C   UNL     1      -9.657   4.444  69.003  1.00  0.00    -0.244 A  
HETATM   35  C   UNL     1      -9.017   5.124  70.046  1.00  0.00    -0.153 A  
BRANCH  35  36
HETATM   36  C   UNL     1      -9.705   5.353  71.377  1.00  0.00    -0.161 C  
BRANCH  36  37
HETATM   37  N   UNL     1     -11.083   5.847  71.225  1.00  0.00    -0.266 NA 
HETATM   38  C   UNL     1     -11.194   6.895  70.206  1.00  0.00    -0.316 C  
HETATM   39  C   UNL     1     -11.693   6.274  72.493  1.00  0.00    -0.204 C  
HETATM   40  C   UNL     1     -11.150   7.605  73.019  1.00  0.00    -0.437 C  
HETATM   41  C   UNL     1     -10.626   8.247  70.648  1.00  0.00    -0.235 C  
HETATM   42  C   UNL     1     -11.251   8.716  71.967  1.00  0.00    -0.434 C  
BRANCH  42  43
HETATM   43  C   UNL     1     -12.697   9.177  71.783  1.00  0.00    -0.373 C  
HETATM   44  N   UNL     1     -12.957   9.851  70.628  1.00  0.00    -0.573 N  
HETATM   45  H2  UNL     1     -12.235  10.035  69.932  1.00  0.00     0.000 HD 
HETATM   46  O   UNL     1     -13.594   9.009  72.603  1.00  0.00    -0.465 OA 
HETATM   47  H1  UNL     1     -13.922  10.158  70.504  1.00  0.00     0.000 HD 
ENDBRANCH  42  43
ENDBRANCH  36  37
ENDBRANCH  35  36
ENDBRANCH   4  30
TORSDOF 11
ENDMDL
MODEL       22
REMARK 921   NORMALIZED FREE ENERGY PREDICTED BY IDOCK:   -6.86 KCAL/MOL
REMARK 922        TOTAL FREE ENERGY PREDICTED BY IDOCK:  -12.91 KCAL/MOL
REMARK 923 INTER-LIGAND FREE ENERGY PREDICTED BY IDOCK:  -11.88 KCAL/MOL
REMARK 924 INTRA-LIGAND FREE ENERGY PREDICTED BY IDOCK:   -1.03 KCAL/MOL
REMARK 927      BINDING AFFINITY PREDICTED BY RF-SCORE:    0.00 PKD
ROOT
HETATM    1  C   UNL     1     -12.896  11.718  63.731  1.00  0.00    -0.186 C  
HETATM    2  N   UNL     1     -11.947  12.433  64.571  1.00  0.00    -0.389 N  
HETATM    3  O   UNL     1     -12.623  14.403  63.572  1.00  0.00    -0.784 OA 
HETATM    4  C   UNL     1     -11.932  13.839  64.422  1.00  0.00    -0.445 C  
ENDROOT
BRANCH   2   5
HETATM    5  C   UNL     1     -11.304  11.757  65.699  1.00  0.00    -0.233 C  
BRANCH   5   6
HETATM    6  C   UNL     1      -9.795  11.463  65.701  1.00  0.00    -0.235 C  
BRANCH   6   7
HETATM    7  N   UNL     1      -9.201  11.723  67.035  1.00  0.00    -0.182 NA 
HETATM    8  C   UNL     1      -8.446  10.568  67.542  1.00  0.00    -0.118 C  
HETATM    9  C   UNL     1     -10.168  12.164  68.054  1.00  0.00    -0.201 C  
HETATM   10  C   UNL     1     -10.445   9.828  68.926  1.00  0.00    -0.214 C  
HETATM   11  C   UNL     1     -11.174  11.075  68.416  1.00  0.00    -0.337 C  
HETATM   12  C   UNL     1      -9.337   9.396  67.960  1.00  0.00    -0.140 C  
BRANCH  10  13
HETATM   13  O   UNL     1      -9.835  10.117  70.199  1.00  0.00    -0.207 OA 
BRANCH  13  14
HETATM   14  C   UNL     1     -10.268   9.341  71.230  1.00  0.00    -0.313 C  
HETATM   15  H   UNL     1      -8.355   8.544  71.211  1.00  0.00     0.000 HD 
HETATM   16  O   UNL     1     -11.337   9.481  71.801  1.00  0.00    -0.370 OA 
HETATM   17  N   UNL     1      -9.323   8.392  71.495  1.00  0.00    -0.179 N  
BRANCH  17  18
HETATM   18  C   UNL     1      -9.680   7.201  72.160  1.00  0.00    -0.146 A  
HETATM   19  C   UNL     1      -9.944   6.008  71.451  1.00  0.00    -0.223 A  
HETATM   20  C   UNL     1     -10.062   6.127  74.301  1.00  0.00    -0.322 A  
HETATM   21  C   UNL     1     -10.261   4.881  72.242  1.00  0.00    -0.254 A  
HETATM   22  C   UNL     1     -10.307   4.933  73.641  1.00  0.00    -0.259 A  
HETATM   23  C   UNL     1      -9.759   7.263  73.562  1.00  0.00    -0.315 A  
BRANCH  19  24
HETATM   24  C   UNL     1      -9.886   5.867  69.964  1.00  0.00    -0.225 A  
HETATM   25  C   UNL     1     -10.978   6.168  69.128  1.00  0.00    -0.450 A  
HETATM   26  C   UNL     1     -10.912   6.012  67.737  1.00  0.00    -0.333 A  
HETATM   27  C   UNL     1      -9.759   5.515  67.143  1.00  0.00    -0.155 A  
HETATM   28  C   UNL     1      -8.665   5.197  67.937  1.00  0.00    -0.102 A  
HETATM   29  C   UNL     1      -8.724   5.386  69.323  1.00  0.00    -0.105 A  
ENDBRANCH  19  24
ENDBRANCH  17  18
ENDBRANCH  13  14
ENDBRANCH  10  13
ENDBRANCH   6   7
ENDBRANCH   5   6
ENDBRANCH   2   5
BRANCH   4  30
HETATM   30  C   UNL     1     -11.150  14.713  65.359  1.00  0.00    -0.349 A  
HETATM   31  C   UNL     1     -11.748  15.066  66.579  1.00  0.00    -0.126 A  
HETATM   32  C   UNL     1      -9.866  15.192  65.088  1.00  0.00    -0.170 A  
HETATM   33  C   UNL     1      -9.129  15.857  66.069  1.00  0.00    -0.363 A  
HETATM   34  C   UNL     1     -11.035  15.793  67.541  1.00  0.00    -0.293 A  
HETATM   35  C   UNL     1      -9.705  16.161  67.307  1.00  0.00    -0.233 A  
BRANCH  35  36
HETATM   36  C   UNL     1      -8.899  16.908  68.350  1.00  0.00    -0.244 C  
BRANCH  36  37
HETATM   37  N   UNL     1      -7.689  17.530  67.792  1.00  0.00    -0.202 NA 
HETATM   38  C   UNL     1      -6.945  18.305  68.790  1.00  0.00    -0.270 C  
HETATM   39  C   UNL     1      -7.946  18.330  66.585  1.00  0.00    -0.251 C  
HETATM   40  C   UNL     1      -8.643  19.664  66.869  1.00  0.00    -0.359 C  
HETATM   41  C   UNL     1      -7.610  19.635  69.158  1.00  0.00    -0.273 C  
HETATM   42  C   UNL     1      -7.885  20.490  67.915  1.00  0.00    -0.133 C  
BRANCH  42  43
HETATM   43  C   UNL     1      -6.601  21.082  67.333  1.00  0.00    -0.376 C  
HETATM   44  N   UNL     1      -6.625  21.337  65.994  1.00  0.00    -0.507 N  
HETATM   45  H2  UNL     1      -7.445  21.145  65.419  1.00  0.00     0.000 HD 
HETATM   46  O   UNL     1      -5.579  21.299  67.974  1.00  0.00    -0.315 OA 
HETATM   47  H1  UNL     1      -5.768  21.732  65.606  1.00  0.00     0.000 HD 
ENDBRANCH  42  43
ENDBRANCH  36  37
ENDBRANCH  35  36
ENDBRANCH   4  30
TORSDOF 11
ENDMDL
MODEL       23
REMARK 921   NORMALIZED FREE ENERGY PREDICTED BY IDOCK:   -6.82 KCAL/MOL
REMARK 922        TOTAL FREE ENERGY PREDICTED BY IDOCK:  -12.84 KCAL/MOL
REMARK 923 INTER-LIGAND FREE ENERGY PREDICTED BY IDOCK:  -11.05 KCAL/MOL
REMARK 924 INTRA-LIGAND FREE ENERGY PREDICTED BY IDOCK:   -1.79 KCAL/MOL
REMARK 927      BINDING AFFINITY PREDICTED BY RF-SCORE:    0.00 PKD
ROOT
HETATM    1  C   UNL     1      -6.292   5.147  63.813  1.00  0.00    -0.022 C  
HETATM    2  N   UNL     1      -7.264   5.345  64.878  1.00  0.00    -0.064 N  
HETATM    3  O   UNL     1      -5.997   3.962  66.226  1.00  0.00    -0.025 OA 
HETATM    4  C   UNL     1      -6.972   4.706  66.104  1.00  0.00    -0.066 C  
ENDROOT
BRANCH   2   5
HETATM    5  C   UNL     1      -8.284   6.389  64.760  1.00  0.00    -0.092 C  
BRANCH   5   6
HETATM    6  C   UNL     1      -7.950   7.866  65.022  1.00  0.00    -0.137 C  
BRANCH   6   7
HETATM    7  N   UNL     1      -8.300   8.256  66.410  1.00  0.00    -0.113 NA 
HETATM    8  C   UNL     1      -9.726   8.585  66.552  1.00  0.00    -0.260 C  
HETATM    9  C   UNL     1      -7.485   9.354  66.956  1.00  0.00    -0.091 C  
HETATM   10  C   UNL     1      -9.208  11.063  66.323  1.00  0.00    -0.182 C  
HETATM   11  C   UNL     1      -7.728  10.677  66.236  1.00  0.00    -0.143 C  
HETATM   12  C   UNL     1     -10.112   9.907  65.884  1.00  0.00    -0.316 C  
BRANCH  10  13
HETATM   13  O   UNL     1      -9.539  11.391  67.687  1.00  0.00    -0.166 OA 
BRANCH  13  14
HETATM   14  C   UNL     1      -9.337  12.693  68.027  1.00  0.00    -0.209 C  
HETATM   15  H   UNL     1     -11.350  12.939  67.600  1.00  0.00     0.000 HD 
HETATM   16  O   UNL     1      -8.313  13.127  68.530  1.00  0.00    -0.141 OA 
HETATM   17  N   UNL     1     -10.451  13.412  67.701  1.00  0.00    -0.238 N  
BRANCH  17  18
HETATM   18  C   UNL     1     -10.363  14.805  67.503  1.00  0.00    -0.238 A  
HETATM   19  C   UNL     1     -10.848  15.721  68.463  1.00  0.00    -0.290 A  
HETATM   20  C   UNL     1      -9.601  16.588  66.046  1.00  0.00    -0.323 A  
HETATM   21  C   UNL     1     -10.669  17.088  68.153  1.00  0.00    -0.374 A  
HETATM   22  C   UNL     1     -10.046  17.516  66.974  1.00  0.00    -0.323 A  
HETATM   23  C   UNL     1      -9.768  15.234  66.304  1.00  0.00    -0.325 A  
BRANCH  19  24
HETATM   24  C   UNL     1     -11.497  15.340  69.756  1.00  0.00    -0.332 A  
HETATM   25  C   UNL     1     -12.279  14.180  69.901  1.00  0.00    -0.416 A  
HETATM   26  C   UNL     1     -12.895  13.849  71.115  1.00  0.00    -0.423 A  
HETATM   27  C   UNL     1     -12.776  14.692  72.213  1.00  0.00    -0.413 A  
HETATM   28  C   UNL     1     -12.020  15.853  72.103  1.00  0.00    -0.612 A  
HETATM   29  C   UNL     1     -11.379  16.161  70.898  1.00  0.00    -0.394 A  
ENDBRANCH  19  24
ENDBRANCH  17  18
ENDBRANCH  13  14
ENDBRANCH  10  13
ENDBRANCH   6   7
ENDBRANCH   5   6
ENDBRANCH   2   5
BRANCH   4  30
HETATM   30  C   UNL     1      -7.779   4.985  67.339  1.00  0.00    -0.092 A  
HETATM   31  C   UNL     1      -9.015   4.332  67.475  1.00  0.00    -0.133 A  
HETATM   32  C   UNL     1      -7.373   5.852  68.356  1.00  0.00    -0.084 A  
HETATM   33  C   UNL     1      -8.087   5.937  69.551  1.00  0.00    -0.106 A  
HETATM   34  C   UNL     1      -9.770   4.468  68.647  1.00  0.00    -0.203 A  
HETATM   35  C   UNL     1      -9.292   5.243  69.710  1.00  0.00    -0.182 A  
BRANCH  35  36
HETATM   36  C   UNL     1     -10.069   5.369  71.005  1.00  0.00    -0.216 C  
BRANCH  36  37
HETATM   37  N   UNL     1     -11.370   6.031  70.823  1.00  0.00    -0.279 NA 
HETATM   38  C   UNL     1     -11.263   7.275  70.054  1.00  0.00    -0.209 C  
HETATM   39  C   UNL     1     -12.096   6.249  72.084  1.00  0.00    -0.252 C  
HETATM   40  C   UNL     1     -11.511   7.373  72.943  1.00  0.00    -0.269 C  
HETATM   41  C   UNL     1     -10.642   8.433  70.839  1.00  0.00    -0.243 C  
HETATM   42  C   UNL     1     -11.386   8.683  72.157  1.00  0.00    -0.434 C  
BRANCH  42  43
HETATM   43  C   UNL     1     -12.753   9.328  71.928  1.00  0.00    -0.394 C  
HETATM   44  N   UNL     1     -13.730   8.960  72.804  1.00  0.00    -0.862 N  
HETATM   45  H2  UNL     1     -13.561   8.299  73.561  1.00  0.00     0.000 HD 
HETATM   46  O   UNL     1     -13.016  10.102  71.014  1.00  0.00    -0.364 OA 
HETATM   47  H1  UNL     1     -14.643   9.391  72.652  1.00  0.00     0.000 HD 
ENDBRANCH  42  43
ENDBRANCH  36  37
ENDBRANCH  35  36
ENDBRANCH   4  30
TORSDOF 11
ENDMDL
MODEL       24
REMARK 921   NORMALIZED FREE ENERGY PREDICTED BY IDOCK:   -6.81 KCAL/MOL
REMARK 922        TOTAL FREE ENERGY PREDICTED BY IDOCK:  -12.83 KCAL/MOL
REMARK 923 INTER-LIGAND FREE ENERGY PREDICTED BY IDOCK:   -9.44 KCAL/MOL
REMARK 924 INTRA-LIGAND FREE ENERGY PREDICTED BY IDOCK:   -3.39 KCAL/MOL
REMARK 927      BINDING AFFINITY PREDICTED BY RF-SCORE:    0.00 PKD
ROOT
HETATM    1  C   UNL     1      -8.510  15.642  66.638  1.00  0.00    -0.288 C  
HETATM    2  N   UNL     1      -8.989  14.588  67.520  1.00  0.00    -0.180 N  
HETATM    3  O   UNL     1     -11.137  15.388  67.228  1.00  0.00    -0.325 OA 
HETATM    4  C   UNL     1     -10.389  14.536  67.713  1.00  0.00    -0.237 C  
ENDROOT
BRANCH   2   5
HETATM    5  C   UNL     1      -8.104  13.487  67.902  1.00  0.00    -0.165 C  
BRANCH   5   6
HETATM    6  C   UNL     1      -7.898  12.270  66.985  1.00  0.00    -0.108 C  
BRANCH   6   7
HETATM    7  N   UNL     1      -6.828  11.384  67.503  1.00  0.00    -0.080 NA 
HETATM    8  C   UNL     1      -6.843  10.061  66.863  1.00  0.00    -0.087 C  
HETATM    9  C   UNL     1      -6.831  11.222  68.967  1.00  0.00    -0.099 C  
HETATM   10  C   UNL     1      -8.154   9.096  68.815  1.00  0.00    -0.101 C  
HETATM   11  C   UNL     1      -8.064  10.478  69.471  1.00  0.00    -0.105 C  
HETATM   12  C   UNL     1      -8.029   9.193  67.291  1.00  0.00    -0.102 C  
BRANCH  10  13
HETATM   13  O   UNL     1      -7.078   8.266  69.296  1.00  0.00    -0.057 OA 
BRANCH  13  14
HETATM   14  C   UNL     1      -7.399   7.465  70.348  1.00  0.00    -0.077 C  
HETATM   15  H   UNL     1      -6.655   5.923  69.181  1.00  0.00     0.000 HD 
HETATM   16  O   UNL     1      -7.763   7.869  71.441  1.00  0.00    -0.077 OA 
HETATM   17  N   UNL     1      -7.259   6.161  69.968  1.00  0.00    -0.071 N  
BRANCH  17  18
HETATM   18  C   UNL     1      -7.947   5.143  70.659  1.00  0.00    -0.088 A  
HETATM   19  C   UNL     1      -8.972   4.391  70.042  1.00  0.00    -0.146 A  
HETATM   20  C   UNL     1      -8.156   3.903  72.734  1.00  0.00    -0.093 A  
HETATM   21  C   UNL     1      -9.558   3.382  70.838  1.00  0.00    -0.239 A  
HETATM   22  C   UNL     1      -9.150   3.131  72.155  1.00  0.00    -0.147 A  
HETATM   23  C   UNL     1      -7.561   4.915  71.992  1.00  0.00    -0.088 A  
BRANCH  19  24
HETATM   24  C   UNL     1      -9.440   4.579  68.634  1.00  0.00    -0.220 A  
HETATM   25  C   UNL     1     -10.318   5.612  68.257  1.00  0.00    -0.253 A  
HETATM   26  C   UNL     1     -10.762   5.762  66.936  1.00  0.00    -0.381 A  
HETATM   27  C   UNL     1     -10.366   4.858  65.958  1.00  0.00    -0.307 A  
HETATM   28  C   UNL     1      -9.508   3.819  66.296  1.00  0.00    -0.190 A  
HETATM   29  C   UNL     1      -9.041   3.694  67.610  1.00  0.00    -0.189 A  
ENDBRANCH  19  24
ENDBRANCH  17  18
ENDBRANCH  13  14
ENDBRANCH  10  13
ENDBRANCH   6   7
ENDBRANCH   5   6
ENDBRANCH   2   5
BRANCH   4  30
HETATM   30  C   UNL     1     -11.034  13.388  68.433  1.00  0.00    -0.291 A  
HETATM   31  C   UNL     1     -11.465  13.600  69.751  1.00  0.00    -0.256 A  
HETATM   32  C   UNL     1     -11.229  12.125  67.867  1.00  0.00    -0.329 A  
HETATM   33  C   UNL     1     -11.984  11.155  68.527  1.00  0.00    -0.250 A  
HETATM   34  C   UNL     1     -12.165  12.604  70.444  1.00  0.00    -0.368 A  
HETATM   35  C   UNL     1     -12.463  11.386  69.821  1.00  0.00    -0.161 A  
BRANCH  35  36
HETATM   36  C   UNL     1     -13.258  10.311  70.533  1.00  0.00    -0.047 C  
BRANCH  36  37
HETATM   37  N   UNL     1     -12.555   9.771  71.707  1.00  0.00    -0.399 NA 
HETATM   38  C   UNL     1     -11.209   9.288  71.382  1.00  0.00    -0.362 C  
HETATM   39  C   UNL     1     -13.325   8.746  72.429  1.00  0.00    -0.399 C  
HETATM   40  C   UNL     1     -13.390   7.400  71.702  1.00  0.00    -0.426 C  
HETATM   41  C   UNL     1     -11.199   7.965  70.612  1.00  0.00    -0.269 C  
HETATM   42  C   UNL     1     -11.993   6.878  71.347  1.00  0.00    -0.393 C  
BRANCH  42  43
HETATM   43  C   UNL     1     -11.256   6.373  72.588  1.00  0.00    -0.255 C  
HETATM   44  N   UNL     1     -11.776   5.255  73.167  1.00  0.00    -0.535 N  
HETATM   45  H2  UNL     1     -12.603   4.785  72.797  1.00  0.00     0.000 HD 
HETATM   46  O   UNL     1     -10.280   6.920  73.092  1.00  0.00    -0.195 OA 
HETATM   47  H1  UNL     1     -11.285   4.917  73.995  1.00  0.00     0.000 HD 
ENDBRANCH  42  43
ENDBRANCH  36  37
ENDBRANCH  35  36
ENDBRANCH   4  30
TORSDOF 11
ENDMDL
MODEL       25
REMARK 921   NORMALIZED FREE ENERGY PREDICTED BY IDOCK:   -6.80 KCAL/MOL
REMARK 922        TOTAL FREE ENERGY PREDICTED BY IDOCK:  -12.80 KCAL/MOL
REMARK 923 INTER-LIGAND FREE ENERGY PREDICTED BY IDOCK:   -9.84 KCAL/MOL
REMARK 924 INTRA-LIGAND FREE ENERGY PREDICTED BY IDOCK:   -2.96 KCAL/MOL
REMARK 927      BINDING AFFINITY PREDICTED BY RF-SCORE:    0.00 PKD
ROOT
HETATM    1  C   UNL     1      -7.082   9.386  63.415  1.00  0.00    -0.096 C  
HETATM    2  N   UNL     1      -7.655  10.205  64.473  1.00  0.00    -0.142 N  
HETATM    3  O   UNL     1      -9.663  10.189  63.332  1.00  0.00    -0.271 OA 
HETATM    4  C   UNL     1      -9.026  10.521  64.333  1.00  0.00    -0.211 C  
ENDROOT
BRANCH   2   5
HETATM    5  C   UNL     1      -6.930  10.398  65.730  1.00  0.00    -0.136 C  
BRANCH   5   6
HETATM    6  C   UNL     1      -6.450   9.203  66.569  1.00  0.00    -0.067 C  
BRANCH   6   7
HETATM    7  N   UNL     1      -7.484   8.141  66.629  1.00  0.00    -0.088 NA 
HETATM    8  C   UNL     1      -8.214   8.146  67.905  1.00  0.00    -0.129 C  
HETATM    9  C   UNL     1      -6.979   6.785  66.356  1.00  0.00    -0.062 C  
HETATM   10  C   UNL     1      -6.717   6.298  68.802  1.00  0.00    -0.061 C  
HETATM   11  C   UNL     1      -6.023   6.289  67.436  1.00  0.00    -0.017 C  
HETATM   12  C   UNL     1      -7.373   7.653  69.085  1.00  0.00    -0.089 C  
BRANCH  10  13
HETATM   13  O   UNL     1      -7.750   5.293  68.822  1.00  0.00    -0.081 OA 
BRANCH  13  14
HETATM   14  C   UNL     1      -7.975   4.728  70.039  1.00  0.00    -0.069 C  
HETATM   15  H   UNL     1      -9.822   4.200  69.262  1.00  0.00     0.000 HD 
HETATM   16  O   UNL     1      -7.130   4.598  70.910  1.00  0.00    -0.036 OA 
HETATM   17  N   UNL     1      -9.287   4.356  70.116  1.00  0.00    -0.137 N  
BRANCH  17  18
HETATM   18  C   UNL     1      -9.903   4.188  71.373  1.00  0.00    -0.184 A  
HETATM   19  C   UNL     1     -10.462   5.279  72.075  1.00  0.00    -0.283 A  
HETATM   20  C   UNL     1     -10.560   2.616  73.100  1.00  0.00    -0.260 A  
HETATM   21  C   UNL     1     -11.076   4.966  73.309  1.00  0.00    -0.410 A  
HETATM   22  C   UNL     1     -11.138   3.658  73.808  1.00  0.00    -0.281 A  
HETATM   23  C   UNL     1      -9.935   2.880  71.888  1.00  0.00    -0.213 A  
BRANCH  19  24
HETATM   24  C   UNL     1     -10.461   6.695  71.595  1.00  0.00    -0.232 A  
HETATM   25  C   UNL     1     -11.285   7.142  70.546  1.00  0.00    -0.321 A  
HETATM   26  C   UNL     1     -11.258   8.469  70.095  1.00  0.00    -0.139 A  
HETATM   27  C   UNL     1     -10.376   9.381  70.660  1.00  0.00    -0.349 A  
HETATM   28  C   UNL     1      -9.539   8.973  71.691  1.00  0.00    -0.319 A  
HETATM   29  C   UNL     1      -9.595   7.655  72.160  1.00  0.00    -0.207 A  
ENDBRANCH  19  24
ENDBRANCH  17  18
ENDBRANCH  13  14
ENDBRANCH  10  13
ENDBRANCH   6   7
ENDBRANCH   5   6
ENDBRANCH   2   5
BRANCH   4  30
HETATM   30  C   UNL     1      -9.788  11.186  65.442  1.00  0.00    -0.289 A  
HETATM   31  C   UNL     1      -9.915  12.584  65.403  1.00  0.00    -0.236 A  
HETATM   32  C   UNL     1     -10.377  10.497  66.505  1.00  0.00    -0.294 A  
HETATM   33  C   UNL     1     -11.213  11.155  67.408  1.00  0.00    -0.363 A  
HETATM   34  C   UNL     1     -10.699  13.257  66.348  1.00  0.00    -0.291 A  
HETATM   35  C   UNL     1     -11.385  12.541  67.337  1.00  0.00    -0.371 A  
BRANCH  35  36
HETATM   36  C   UNL     1     -12.275  13.243  68.343  1.00  0.00    -0.065 C  
BRANCH  36  37
HETATM   37  N   UNL     1     -11.591  13.504  69.618  1.00  0.00    -0.287 NA 
HETATM   38  C   UNL     1     -12.370  13.054  70.776  1.00  0.00    -0.310 C  
HETATM   39  C   UNL     1     -11.167  14.904  69.778  1.00  0.00    -0.280 C  
HETATM   40  C   UNL     1     -12.323  15.866  70.065  1.00  0.00    -0.148 C  
HETATM   41  C   UNL     1     -13.572  13.946  71.094  1.00  0.00    -0.140 C  
HETATM   42  C   UNL     1     -13.156  15.412  71.269  1.00  0.00    -0.564 C  
BRANCH  42  43
HETATM   43  C   UNL     1     -12.406  15.640  72.582  1.00  0.00    -0.427 C  
HETATM   44  N   UNL     1     -12.617  14.705  73.551  1.00  0.00    -0.421 N  
HETATM   45  H2  UNL     1     -13.235  13.906  73.409  1.00  0.00     0.000 HD 
HETATM   46  O   UNL     1     -11.679  16.600  72.813  1.00  0.00    -0.472 OA 
HETATM   47  H1  UNL     1     -12.117  14.857  74.427  1.00  0.00     0.000 HD 
ENDBRANCH  42  43
ENDBRANCH  36  37
ENDBRANCH  35  36
ENDBRANCH   4  30
TORSDOF 11
ENDMDL
MODEL       26
REMARK 921   NORMALIZED FREE ENERGY PREDICTED BY IDOCK:   -6.79 KCAL/MOL
REMARK 922        TOTAL FREE ENERGY PREDICTED BY IDOCK:  -12.79 KCAL/MOL
REMARK 923 INTER-LIGAND FREE ENERGY PREDICTED BY IDOCK:  -10.73 KCAL/MOL
REMARK 924 INTRA-LIGAND FREE ENERGY PREDICTED BY IDOCK:   -2.06 KCAL/MOL
REMARK 927      BINDING AFFINITY PREDICTED BY RF-SCORE:    0.00 PKD
ROOT
HETATM    1  C   UNL     1      -6.878   3.706  64.006  1.00  0.00    -0.044 C  
HETATM    2  N   UNL     1      -7.678   4.143  65.140  1.00  0.00    -0.084 N  
HETATM    3  O   UNL     1      -6.700   2.479  66.409  1.00  0.00    -0.041 OA 
HETATM    4  C   UNL     1      -7.461   3.447  66.351  1.00  0.00    -0.076 C  
ENDROOT
BRANCH   2   5
HETATM    5  C   UNL     1      -8.404   5.413  65.084  1.00  0.00    -0.144 C  
BRANCH   5   6
HETATM    6  C   UNL     1      -7.760   6.724  65.564  1.00  0.00    -0.101 C  
BRANCH   6   7
HETATM    7  N   UNL     1      -8.669   7.465  66.472  1.00  0.00    -0.134 NA 
HETATM    8  C   UNL     1      -9.252   8.651  65.830  1.00  0.00    -0.181 C  
HETATM    9  C   UNL     1      -8.061   7.851  67.757  1.00  0.00    -0.128 C  
HETATM   10  C   UNL     1      -7.488  10.136  66.896  1.00  0.00    -0.096 C  
HETATM   11  C   UNL     1      -6.948   8.882  67.590  1.00  0.00    -0.075 C  
HETATM   12  C   UNL     1      -8.244   9.781  65.612  1.00  0.00    -0.130 C  
BRANCH  10  13
HETATM   13  O   UNL     1      -8.405  10.815  67.777  1.00  0.00    -0.112 OA 
BRANCH  13  14
HETATM   14  C   UNL     1      -9.000  11.916  67.245  1.00  0.00    -0.176 C  
HETATM   15  H   UNL     1     -10.783  10.962  67.695  1.00  0.00     0.000 HD 
HETATM   16  O   UNL     1      -8.411  12.937  66.927  1.00  0.00    -0.145 OA 
HETATM   17  N   UNL     1     -10.339  11.678  67.121  1.00  0.00    -0.212 N  
BRANCH  17  18
HETATM   18  C   UNL     1     -11.109  12.419  66.201  1.00  0.00    -0.302 A  
HETATM   19  C   UNL     1     -11.763  13.614  66.577  1.00  0.00    -0.414 A  
HETATM   20  C   UNL     1     -11.890  12.597  63.912  1.00  0.00    -0.544 A  
HETATM   21  C   UNL     1     -12.475  14.273  65.550  1.00  0.00    -0.434 A  
HETATM   22  C   UNL     1     -12.528  13.784  64.238  1.00  0.00    -0.308 A  
HETATM   23  C   UNL     1     -11.189  11.909  64.893  1.00  0.00    -0.350 A  
BRANCH  19  24
HETATM   24  C   UNL     1     -11.728  14.213  67.946  1.00  0.00    -0.402 A  
HETATM   25  C   UNL     1     -11.238  15.508  68.197  1.00  0.00    -0.343 A  
HETATM   26  C   UNL     1     -11.194  16.046  69.490  1.00  0.00    -0.348 A  
HETATM   27  C   UNL     1     -11.608  15.288  70.578  1.00  0.00    -0.340 A  
HETATM   28  C   UNL     1     -12.087  14.001  70.370  1.00  0.00    -0.426 A  
HETATM   29  C   UNL     1     -12.160  13.480  69.072  1.00  0.00    -0.330 A  
ENDBRANCH  19  24
ENDBRANCH  17  18
ENDBRANCH  13  14
ENDBRANCH  10  13
ENDBRANCH   6   7
ENDBRANCH   5   6
ENDBRANCH   2   5
BRANCH   4  30
HETATM   30  C   UNL     1      -8.068   3.920  67.640  1.00  0.00    -0.090 A  
HETATM   31  C   UNL     1      -7.231   4.570  68.560  1.00  0.00    -0.060 A  
HETATM   32  C   UNL     1      -9.414   3.750  67.975  1.00  0.00    -0.221 A  
HETATM   33  C   UNL     1      -9.951   4.359  69.109  1.00  0.00    -0.117 A  
HETATM   34  C   UNL     1      -7.754   5.125  69.735  1.00  0.00    -0.071 A  
HETATM   35  C   UNL     1      -9.126   5.057  69.999  1.00  0.00    -0.166 A  
BRANCH  35  36
HETATM   36  C   UNL     1      -9.722   5.688  71.241  1.00  0.00    -0.167 C  
BRANCH  36  37
HETATM   37  N   UNL     1     -11.126   6.087  71.056  1.00  0.00    -0.294 NA 
HETATM   38  C   UNL     1     -11.276   7.182  70.093  1.00  0.00    -0.262 C  
HETATM   39  C   UNL     1     -11.817   6.393  72.318  1.00  0.00    -0.271 C  
HETATM   40  C   UNL     1     -11.397   7.728  72.940  1.00  0.00    -0.406 C  
HETATM   41  C   UNL     1     -10.830   8.543  70.633  1.00  0.00    -0.255 C  
HETATM   42  C   UNL     1     -11.541   8.888  71.948  1.00  0.00    -0.442 C  
BRANCH  42  43
HETATM   43  C   UNL     1     -13.010   9.251  71.725  1.00  0.00    -0.396 C  
HETATM   44  N   UNL     1     -13.276   9.958  70.591  1.00  0.00    -0.611 N  
HETATM   45  H2  UNL     1     -12.544  10.227  69.934  1.00  0.00     0.000 HD 
HETATM   46  O   UNL     1     -13.921   8.980  72.500  1.00  0.00    -0.478 OA 
HETATM   47  H1  UNL     1     -14.256  10.199  70.442  1.00  0.00     0.000 HD 
ENDBRANCH  42  43
ENDBRANCH  36  37
ENDBRANCH  35  36
ENDBRANCH   4  30
TORSDOF 11
ENDMDL
MODEL       27
REMARK 921   NORMALIZED FREE ENERGY PREDICTED BY IDOCK:   -6.78 KCAL/MOL
REMARK 922        TOTAL FREE ENERGY PREDICTED BY IDOCK:  -12.77 KCAL/MOL
REMARK 923 INTER-LIGAND FREE ENERGY PREDICTED BY IDOCK:  -11.28 KCAL/MOL
REMARK 924 INTRA-LIGAND FREE ENERGY PREDICTED BY IDOCK:   -1.49 KCAL/MOL
REMARK 927      BINDING AFFINITY PREDICTED BY RF-SCORE:    0.00 PKD
ROOT
HETATM    1  C   UNL     1     -13.228  15.571  71.016  1.00  0.00    -0.474 C  
HETATM    2  N   UNL     1     -12.763  14.220  70.737  1.00  0.00    -0.340 N  
HETATM    3  O   UNL     1     -13.604  13.559  72.784  1.00  0.00    -0.672 OA 
HETATM    4  C   UNL     1     -13.060  13.251  71.722  1.00  0.00    -0.379 C  
ENDROOT
BRANCH   2   5
HETATM    5  C   UNL     1     -12.314  13.859  69.391  1.00  0.00    -0.197 C  
BRANCH   5   6
HETATM    6  C   UNL     1     -11.398  14.787  68.577  1.00  0.00    -0.290 C  
BRANCH   6   7
HETATM    7  N   UNL     1     -11.595  14.591  67.120  1.00  0.00    -0.375 NA 
HETATM    8  C   UNL     1     -12.140  13.262  66.807  1.00  0.00    -0.345 C  
HETATM    9  C   UNL     1     -10.391  14.833  66.307  1.00  0.00    -0.297 C  
HETATM   10  C   UNL     1      -9.809  12.393  66.290  1.00  0.00    -0.247 C  
HETATM   11  C   UNL     1      -9.292  13.807  66.571  1.00  0.00    -0.249 C  
HETATM   12  C   UNL     1     -11.132  12.129  67.014  1.00  0.00    -0.347 C  
BRANCH  10  13
HETATM   13  O   UNL     1     -10.039  12.239  64.875  1.00  0.00    -0.275 OA 
BRANCH  13  14
HETATM   14  C   UNL     1      -9.625  11.052  64.354  1.00  0.00    -0.259 C  
HETATM   15  H   UNL     1      -8.605  10.817  66.142  1.00  0.00     0.000 HD 
HETATM   16  O   UNL     1     -10.050  10.563  63.320  1.00  0.00    -0.256 OA 
HETATM   17  N   UNL     1      -8.662  10.526  65.166  1.00  0.00    -0.182 N  
BRANCH  17  18
HETATM   18  C   UNL     1      -7.745   9.582  64.660  1.00  0.00    -0.120 A  
HETATM   19  C   UNL     1      -7.848   8.208  64.975  1.00  0.00    -0.128 A  
HETATM   20  C   UNL     1      -5.807   9.212  63.249  1.00  0.00    -0.088 A  
HETATM   21  C   UNL     1      -6.884   7.367  64.376  1.00  0.00    -0.054 A  
HETATM   22  C   UNL     1      -5.889   7.854  63.518  1.00  0.00    -0.058 A  
HETATM   23  C   UNL     1      -6.727  10.077  63.827  1.00  0.00    -0.128 A  
BRANCH  19  24
HETATM   24  C   UNL     1      -8.898   7.610  65.856  1.00  0.00    -0.163 A  
HETATM   25  C   UNL     1      -9.768   8.390  66.640  1.00  0.00    -0.320 A  
HETATM   26  C   UNL     1     -10.733   7.812  67.475  1.00  0.00    -0.265 A  
HETATM   27  C   UNL     1     -10.831   6.430  67.577  1.00  0.00    -0.438 A  
HETATM   28  C   UNL     1      -9.981   5.627  66.827  1.00  0.00    -0.207 A  
HETATM   29  C   UNL     1      -9.042   6.210  65.969  1.00  0.00    -0.136 A  
ENDBRANCH  19  24
ENDBRANCH  17  18
ENDBRANCH  13  14
ENDBRANCH  10  13
ENDBRANCH   6   7
ENDBRANCH   5   6
ENDBRANCH   2   5
BRANCH   4  30
HETATM   30  C   UNL     1     -12.818  11.790  71.475  1.00  0.00    -0.450 A  
HETATM   31  C   UNL     1     -11.834  11.438  70.537  1.00  0.00    -0.394 A  
HETATM   32  C   UNL     1     -13.511  10.765  72.123  1.00  0.00    -0.227 A  
HETATM   33  C   UNL     1     -13.122   9.433  71.974  1.00  0.00    -0.516 A  
HETATM   34  C   UNL     1     -11.487  10.097  70.334  1.00  0.00    -0.400 A  
HETATM   35  C   UNL     1     -12.104   9.086  71.080  1.00  0.00    -0.345 A  
BRANCH  35  36
HETATM   36  C   UNL     1     -11.713   7.632  70.911  1.00  0.00    -0.271 C  
BRANCH  36  37
HETATM   37  N   UNL     1     -10.708   7.197  71.893  1.00  0.00    -0.214 NA 
HETATM   38  C   UNL     1      -9.357   7.656  71.553  1.00  0.00    -0.136 C  
HETATM   39  C   UNL     1     -10.727   5.748  72.145  1.00  0.00    -0.231 C  
HETATM   40  C   UNL     1     -10.140   4.917  71.000  1.00  0.00    -0.288 C  
HETATM   41  C   UNL     1      -8.725   6.897  70.383  1.00  0.00    -0.147 C  
HETATM   42  C   UNL     1      -8.729   5.383  70.625  1.00  0.00    -0.135 C  
BRANCH  42  43
HETATM   43  C   UNL     1      -7.707   4.971  71.684  1.00  0.00    -0.106 C  
HETATM   44  N   UNL     1      -7.875   3.725  72.211  1.00  0.00    -0.067 N  
HETATM   45  H2  UNL     1      -8.633   3.109  71.918  1.00  0.00     0.000 HD 
HETATM   46  O   UNL     1      -6.799   5.686  72.094  1.00  0.00    -0.071 OA 
HETATM   47  H1  UNL     1      -7.192   3.450  72.918  1.00  0.00     0.000 HD 
ENDBRANCH  42  43
ENDBRANCH  36  37
ENDBRANCH  35  36
ENDBRANCH   4  30
TORSDOF 11
ENDMDL
MODEL       28
REMARK 921   NORMALIZED FREE ENERGY PREDICTED BY IDOCK:   -6.77 KCAL/MOL
REMARK 922        TOTAL FREE ENERGY PREDICTED BY IDOCK:  -12.76 KCAL/MOL
REMARK 923 INTER-LIGAND FREE ENERGY PREDICTED BY IDOCK:   -9.68 KCAL/MOL
REMARK 924 INTRA-LIGAND FREE ENERGY PREDICTED BY IDOCK:   -3.09 KCAL/MOL
REMARK 927      BINDING AFFINITY PREDICTED BY RF-SCORE:    0.00 PKD
ROOT
HETATM    1  C   UNL     1      -5.286   4.060  65.480  1.00  0.00    -0.009 C  
HETATM    2  N   UNL     1      -6.089   5.125  66.062  1.00  0.00    -0.029 N  
HETATM    3  O   UNL     1      -6.485   5.924  63.931  1.00  0.00    -0.028 OA 
HETATM    4  C   UNL     1      -6.698   6.009  65.142  1.00  0.00    -0.044 C  
ENDROOT
BRANCH   2   5
HETATM    5  C   UNL     1      -6.481   5.066  67.471  1.00  0.00    -0.045 C  
BRANCH   5   6
HETATM    6  C   UNL     1      -7.131   3.808  68.069  1.00  0.00    -0.051 C  
BRANCH   6   7
HETATM    7  N   UNL     1      -7.204   3.894  69.547  1.00  0.00    -0.046 NA 
HETATM    8  C   UNL     1      -8.116   2.892  70.119  1.00  0.00    -0.041 C  
HETATM    9  C   UNL     1      -7.556   5.229  70.061  1.00  0.00    -0.068 C  
HETATM   10  C   UNL     1      -9.981   4.614  70.242  1.00  0.00    -0.239 C  
HETATM   11  C   UNL     1      -8.980   5.638  69.698  1.00  0.00    -0.135 C  
HETATM   12  C   UNL     1      -9.591   3.187  69.842  1.00  0.00    -0.144 C  
BRANCH  10  13
HETATM   13  O   UNL     1     -10.001   4.681  71.682  1.00  0.00    -0.178 OA 
BRANCH  13  14
HETATM   14  C   UNL     1     -10.921   5.537  72.202  1.00  0.00    -0.231 C  
HETATM   15  H   UNL     1     -11.524   5.813  70.239  1.00  0.00     0.000 HD 
HETATM   16  O   UNL     1     -11.144   5.675  73.394  1.00  0.00    -0.269 OA 
HETATM   17  N   UNL     1     -11.526   6.209  71.179  1.00  0.00    -0.286 N  
BRANCH  17  18
HETATM   18  C   UNL     1     -12.154   7.448  71.418  1.00  0.00    -0.327 A  
HETATM   19  C   UNL     1     -11.429   8.661  71.401  1.00  0.00    -0.352 A  
HETATM   20  C   UNL     1     -14.244   8.593  71.874  1.00  0.00    -0.507 A  
HETATM   21  C   UNL     1     -12.186   9.832  71.626  1.00  0.00    -0.488 A  
HETATM   22  C   UNL     1     -13.570   9.803  71.845  1.00  0.00    -0.421 A  
HETATM   23  C   UNL     1     -13.537   7.415  71.671  1.00  0.00    -0.449 A  
BRANCH  19  24
HETATM   24  C   UNL     1      -9.960   8.774  71.146  1.00  0.00    -0.317 A  
HETATM   25  C   UNL     1      -8.995   8.558  72.147  1.00  0.00    -0.300 A  
HETATM   26  C   UNL     1      -7.623   8.688  71.894  1.00  0.00    -0.106 A  
HETATM   27  C   UNL     1      -7.177   9.074  70.636  1.00  0.00    -0.093 A  
HETATM   28  C   UNL     1      -8.102   9.307  69.626  1.00  0.00    -0.116 A  
HETATM   29  C   UNL     1      -9.469   9.143  69.875  1.00  0.00    -0.199 A  
ENDBRANCH  19  24
ENDBRANCH  17  18
ENDBRANCH  13  14
ENDBRANCH  10  13
ENDBRANCH   6   7
ENDBRANCH   5   6
ENDBRANCH   2   5
BRANCH   4  30
HETATM   30  C   UNL     1      -7.707   7.026  65.591  1.00  0.00    -0.102 A  
HETATM   31  C   UNL     1      -7.464   8.373  65.278  1.00  0.00    -0.086 A  
HETATM   32  C   UNL     1      -8.869   6.710  66.300  1.00  0.00    -0.156 A  
HETATM   33  C   UNL     1      -9.846   7.677  66.539  1.00  0.00    -0.242 A  
HETATM   34  C   UNL     1      -8.413   9.358  65.578  1.00  0.00    -0.153 A  
HETATM   35  C   UNL     1      -9.629   9.011  66.177  1.00  0.00    -0.341 A  
BRANCH  35  36
HETATM   36  C   UNL     1     -10.690  10.052  66.469  1.00  0.00    -0.024 C  
BRANCH  36  37
HETATM   37  N   UNL     1     -10.133  11.409  66.592  1.00  0.00    -0.207 NA 
HETATM   38  C   UNL     1     -10.266  11.948  67.949  1.00  0.00    -0.193 C  
HETATM   39  C   UNL     1     -10.663  12.350  65.594  1.00  0.00    -0.264 C  
HETATM   40  C   UNL     1     -12.104  12.789  65.868  1.00  0.00    -0.485 C  
HETATM   41  C   UNL     1     -11.694  12.366  68.309  1.00  0.00    -0.398 C  
HETATM   42  C   UNL     1     -12.267  13.353  67.285  1.00  0.00    -0.282 C  
BRANCH  42  43
HETATM   43  C   UNL     1     -11.633  14.739  67.408  1.00  0.00    -0.360 C  
HETATM   44  N   UNL     1     -11.921  15.417  68.555  1.00  0.00    -0.550 N  
HETATM   45  H2  UNL     1     -12.519  15.026  69.282  1.00  0.00     0.000 HD 
HETATM   46  O   UNL     1     -10.935  15.266  66.549  1.00  0.00    -0.315 OA 
HETATM   47  H1  UNL     1     -11.498  16.342  68.638  1.00  0.00     0.000 HD 
ENDBRANCH  42  43
ENDBRANCH  36  37
ENDBRANCH  35  36
ENDBRANCH   4  30
TORSDOF 11
ENDMDL
MODEL       29
REMARK 921   NORMALIZED FREE ENERGY PREDICTED BY IDOCK:   -6.77 KCAL/MOL
REMARK 922        TOTAL FREE ENERGY PREDICTED BY IDOCK:  -12.76 KCAL/MOL
REMARK 923 INTER-LIGAND FREE ENERGY PREDICTED BY IDOCK:  -10.94 KCAL/MOL
REMARK 924 INTRA-LIGAND FREE ENERGY PREDICTED BY IDOCK:   -1.82 KCAL/MOL
REMARK 927      BINDING AFFINITY PREDICTED BY RF-SCORE:    0.00 PKD
ROOT
HETATM    1  C   UNL     1     -12.951  15.345  70.847  1.00  0.00    -0.478 C  
HETATM    2  N   UNL     1     -12.470  13.982  70.681  1.00  0.00    -0.347 N  
HETATM    3  O   UNL     1     -13.775  13.354  72.481  1.00  0.00    -0.613 OA 
HETATM    4  C   UNL     1     -13.011  13.026  71.571  1.00  0.00    -0.305 C  
ENDROOT
BRANCH   2   5
HETATM    5  C   UNL     1     -11.735  13.602  69.474  1.00  0.00    -0.322 C  
BRANCH   5   6
HETATM    6  C   UNL     1     -11.736  14.494  68.222  1.00  0.00    -0.335 C  
BRANCH   6   7
HETATM    7  N   UNL     1     -12.283  13.770  67.049  1.00  0.00    -0.386 NA 
HETATM    8  C   UNL     1     -11.907  12.349  67.048  1.00  0.00    -0.297 C  
HETATM    9  C   UNL     1     -11.939  14.370  65.749  1.00  0.00    -0.357 C  
HETATM   10  C   UNL     1      -9.984  12.827  65.457  1.00  0.00    -0.221 C  
HETATM   11  C   UNL     1     -10.447  14.287  65.444  1.00  0.00    -0.382 C  
HETATM   12  C   UNL     1     -10.427  12.113  66.738  1.00  0.00    -0.245 C  
BRANCH  10  13
HETATM   13  O   UNL     1     -10.566  12.129  64.338  1.00  0.00    -0.285 OA 
BRANCH  13  14
HETATM   14  C   UNL     1      -9.705  11.329  63.652  1.00  0.00    -0.321 C  
HETATM   15  H   UNL     1     -10.411   9.811  64.873  1.00  0.00     0.000 HD 
HETATM   16  O   UNL     1      -9.087  11.669  62.656  1.00  0.00    -0.330 OA 
HETATM   17  N   UNL     1      -9.645  10.113  64.271  1.00  0.00    -0.304 N  
BRANCH  17  18
HETATM   18  C   UNL     1      -8.528   9.275  64.080  1.00  0.00    -0.193 A  
HETATM   19  C   UNL     1      -7.514   9.159  65.056  1.00  0.00    -0.105 A  
HETATM   20  C   UNL     1      -7.435   7.677  62.617  1.00  0.00    -0.101 A  
HETATM   21  C   UNL     1      -6.467   8.260  64.751  1.00  0.00    -0.064 A  
HETATM   22  C   UNL     1      -6.432   7.522  63.561  1.00  0.00    -0.054 A  
HETATM   23  C   UNL     1      -8.477   8.560  62.870  1.00  0.00    -0.094 A  
BRANCH  19  24
HETATM   24  C   UNL     1      -7.496   9.890  66.361  1.00  0.00    -0.101 A  
HETATM   25  C   UNL     1      -6.872  11.140  66.523  1.00  0.00    -0.126 A  
HETATM   26  C   UNL     1      -6.849  11.802  67.758  1.00  0.00    -0.090 A  
HETATM   27  C   UNL     1      -7.421  11.213  68.878  1.00  0.00    -0.125 A  
HETATM   28  C   UNL     1      -8.036   9.973  68.759  1.00  0.00    -0.106 A  
HETATM   29  C   UNL     1      -8.086   9.332  67.515  1.00  0.00    -0.107 A  
ENDBRANCH  19  24
ENDBRANCH  17  18
ENDBRANCH  13  14
ENDBRANCH  10  13
ENDBRANCH   6   7
ENDBRANCH   5   6
ENDBRANCH   2   5
BRANCH   4  30
HETATM   30  C   UNL     1     -12.757  11.558  71.386  1.00  0.00    -0.469 A  
HETATM   31  C   UNL     1     -11.712  11.177  70.529  1.00  0.00    -0.392 A  
HETATM   32  C   UNL     1     -13.497  10.554  72.015  1.00  0.00    -0.330 A  
HETATM   33  C   UNL     1     -13.104   9.218  71.933  1.00  0.00    -0.490 A  
HETATM   34  C   UNL     1     -11.357   9.830  70.391  1.00  0.00    -0.362 A  
HETATM   35  C   UNL     1     -12.026   8.842  71.123  1.00  0.00    -0.344 A  
BRANCH  35  36
HETATM   36  C   UNL     1     -11.631   7.383  71.025  1.00  0.00    -0.288 C  
BRANCH  36  37
HETATM   37  N   UNL     1     -10.172   7.190  71.029  1.00  0.00    -0.196 NA 
HETATM   38  C   UNL     1      -9.700   6.457  69.851  1.00  0.00    -0.166 C  
HETATM   39  C   UNL     1      -9.667   6.581  72.269  1.00  0.00    -0.153 C  
HETATM   40  C   UNL     1      -9.984   5.088  72.393  1.00  0.00    -0.226 C  
HETATM   41  C   UNL     1     -10.024   4.961  69.886  1.00  0.00    -0.317 C  
HETATM   42  C   UNL     1      -9.503   4.301  71.168  1.00  0.00    -0.233 C  
BRANCH  42  43
HETATM   43  C   UNL     1      -7.981   4.160  71.161  1.00  0.00    -0.071 C  
HETATM   44  N   UNL     1      -7.372   4.281  72.374  1.00  0.00    -0.066 N  
HETATM   45  H2  UNL     1      -7.898   4.455  73.231  1.00  0.00     0.000 HD 
HETATM   46  O   UNL     1      -7.301   3.984  70.155  1.00  0.00    -0.044 OA 
HETATM   47  H1  UNL     1      -6.356   4.186  72.369  1.00  0.00     0.000 HD 
ENDBRANCH  42  43
ENDBRANCH  36  37
ENDBRANCH  35  36
ENDBRANCH   4  30
TORSDOF 11
ENDMDL
MODEL       30
REMARK 921   NORMALIZED FREE ENERGY PREDICTED BY IDOCK:   -6.76 KCAL/MOL
REMARK 922        TOTAL FREE ENERGY PREDICTED BY IDOCK:  -12.74 KCAL/MOL
REMARK 923 INTER-LIGAND FREE ENERGY PREDICTED BY IDOCK:  -10.43 KCAL/MOL
REMARK 924 INTRA-LIGAND FREE ENERGY PREDICTED BY IDOCK:   -2.31 KCAL/MOL
REMARK 927      BINDING AFFINITY PREDICTED BY RF-SCORE:    0.00 PKD
ROOT
HETATM    1  C   UNL     1     -12.737  15.580  72.004  1.00  0.00    -0.411 C  
HETATM    2  N   UNL     1     -12.583  14.908  70.722  1.00  0.00    -0.331 N  
HETATM    3  O   UNL     1     -11.050  16.525  70.113  1.00  0.00    -0.348 OA 
HETATM    4  C   UNL     1     -11.638  15.477  69.838  1.00  0.00    -0.335 C  
ENDROOT
BRANCH   2   5
HETATM    5  C   UNL     1     -13.136  13.567  70.522  1.00  0.00     0.157 C  
BRANCH   5   6
HETATM    6  C   UNL     1     -12.465  12.325  71.131  1.00  0.00    -0.226 C  
BRANCH   6   7
HETATM    7  N   UNL     1     -12.714  11.121  70.302  1.00  0.00    -0.194 NA 
HETATM    8  C   UNL     1     -12.426   9.876  71.028  1.00  0.00    -0.346 C  
HETATM    9  C   UNL     1     -12.003  11.114  69.013  1.00  0.00    -0.320 C  
HETATM   10  C   UNL     1     -10.124   9.749  69.959  1.00  0.00    -0.257 C  
HETATM   11  C   UNL     1     -10.490  11.016  69.180  1.00  0.00    -0.238 C  
HETATM   12  C   UNL     1     -10.932   9.639  71.256  1.00  0.00    -0.399 C  
BRANCH  10  13
HETATM   13  O   UNL     1     -10.419   8.590  69.155  1.00  0.00    -0.217 OA 
BRANCH  13  14
HETATM   14  C   UNL     1      -9.701   7.478  69.468  1.00  0.00    -0.164 C  
HETATM   15  H   UNL     1     -11.301   6.427  68.676  1.00  0.00     0.000 HD 
HETATM   16  O   UNL     1      -8.542   7.487  69.853  1.00  0.00    -0.137 OA 
HETATM   17  N   UNL     1     -10.491   6.378  69.294  1.00  0.00    -0.208 N  
BRANCH  17  18
HETATM   18  C   UNL     1     -10.191   5.175  69.965  1.00  0.00    -0.284 A  
HETATM   19  C   UNL     1      -9.594   4.083  69.296  1.00  0.00    -0.247 A  
HETATM   20  C   UNL     1     -10.212   3.990  72.082  1.00  0.00    -0.210 A  
HETATM   21  C   UNL     1      -9.318   2.950  70.093  1.00  0.00    -0.212 A  
HETATM   22  C   UNL     1      -9.608   2.906  71.464  1.00  0.00    -0.225 A  
HETATM   23  C   UNL     1     -10.512   5.120  71.332  1.00  0.00    -0.249 A  
BRANCH  19  24
HETATM   24  C   UNL     1      -9.229   4.066  67.846  1.00  0.00    -0.200 A  
HETATM   25  C   UNL     1     -10.074   4.575  66.843  1.00  0.00    -0.200 A  
HETATM   26  C   UNL     1      -9.725   4.533  65.486  1.00  0.00    -0.204 A  
HETATM   27  C   UNL     1      -8.529   3.946  65.090  1.00  0.00    -0.112 A  
HETATM   28  C   UNL     1      -7.674   3.423  66.052  1.00  0.00    -0.081 A  
HETATM   29  C   UNL     1      -8.014   3.497  67.408  1.00  0.00    -0.082 A  
ENDBRANCH  19  24
ENDBRANCH  17  18
ENDBRANCH  13  14
ENDBRANCH  10  13
ENDBRANCH   6   7
ENDBRANCH   5   6
ENDBRANCH   2   5
BRANCH   4  30
HETATM   30  C   UNL     1     -11.235  14.778  68.573  1.00  0.00    -0.291 A  
HETATM   31  C   UNL     1     -12.247  14.440  67.661  1.00  0.00    -0.200 A  
HETATM   32  C   UNL     1      -9.916  14.446  68.252  1.00  0.00    -0.232 A  
HETATM   33  C   UNL     1      -9.591  13.951  66.989  1.00  0.00    -0.254 A  
HETATM   34  C   UNL     1     -11.931  13.879  66.417  1.00  0.00    -0.467 A  
HETATM   35  C   UNL     1     -10.595  13.665  66.057  1.00  0.00    -0.290 A  
BRANCH  35  36
HETATM   36  C   UNL     1     -10.225  13.102  64.700  1.00  0.00    -0.306 C  
BRANCH  36  37
HETATM   37  N   UNL     1     -10.515  11.664  64.585  1.00  0.00    -0.284 NA 
HETATM   38  C   UNL     1      -9.814  10.868  65.597  1.00  0.00    -0.241 C  
HETATM   39  C   UNL     1     -10.283  11.127  63.236  1.00  0.00    -0.350 C  
HETATM   40  C   UNL     1      -8.801  10.977  62.881  1.00  0.00    -0.255 C  
HETATM   41  C   UNL     1      -8.314  10.715  65.330  1.00  0.00    -0.142 C  
HETATM   42  C   UNL     1      -8.046  10.151  63.929  1.00  0.00    -0.157 C  
BRANCH  42  43
HETATM   43  C   UNL     1      -8.403   8.668  63.831  1.00  0.00    -0.114 C  
HETATM   44  N   UNL     1      -8.786   8.235  62.598  1.00  0.00    -0.428 N  
HETATM   45  H2  UNL     1      -8.831   8.859  61.792  1.00  0.00     0.000 HD 
HETATM   46  O   UNL     1      -8.397   7.885  64.775  1.00  0.00    -0.136 OA 
HETATM   47  H1  UNL     1      -9.024   7.245  62.532  1.00  0.00     0.000 HD 
ENDBRANCH  42  43
ENDBRANCH  36  37
ENDBRANCH  35  36
ENDBRANCH   4  30
TORSDOF 11
ENDMDL
MODEL       31
REMARK 921   NORMALIZED FREE ENERGY PREDICTED BY IDOCK:   -6.75 KCAL/MOL
REMARK 922        TOTAL FREE ENERGY PREDICTED BY IDOCK:  -12.73 KCAL/MOL
REMARK 923 INTER-LIGAND FREE ENERGY PREDICTED BY IDOCK:  -11.30 KCAL/MOL
REMARK 924 INTRA-LIGAND FREE ENERGY PREDICTED BY IDOCK:   -1.43 KCAL/MOL
REMARK 927      BINDING AFFINITY PREDICTED BY RF-SCORE:    0.00 PKD
ROOT
HETATM    1  C   UNL     1     -12.551  13.783  70.268  1.00  0.00    -0.222 C  
HETATM    2  N   UNL     1     -12.089  12.403  70.255  1.00  0.00    -0.341 N  
HETATM    3  O   UNL     1     -13.228  12.055  72.234  1.00  0.00    -0.455 OA 
HETATM    4  C   UNL     1     -12.549  11.591  71.316  1.00  0.00    -0.347 C  
ENDROOT
BRANCH   2   5
HETATM    5  C   UNL     1     -11.465  11.847  69.053  1.00  0.00    -0.297 C  
BRANCH   5   6
HETATM    6  C   UNL     1     -11.721  12.453  67.664  1.00  0.00    -0.346 C  
BRANCH   6   7
HETATM    7  N   UNL     1     -10.452  12.866  67.018  1.00  0.00    -0.238 NA 
HETATM    8  C   UNL     1      -9.816  13.995  67.711  1.00  0.00    -0.232 C  
HETATM    9  C   UNL     1     -10.574  13.175  65.583  1.00  0.00    -0.277 C  
HETATM   10  C   UNL     1     -10.826  15.627  66.047  1.00  0.00    -0.275 C  
HETATM   11  C   UNL     1     -11.423  14.416  65.323  1.00  0.00    -0.350 C  
HETATM   12  C   UNL     1     -10.559  15.319  67.523  1.00  0.00    -0.273 C  
BRANCH  10  13
HETATM   13  O   UNL     1      -9.570  15.981  65.434  1.00  0.00    -0.409 OA 
BRANCH  13  14
HETATM   14  C   UNL     1      -8.962  17.075  65.968  1.00  0.00    -0.133 C  
HETATM   15  H   UNL     1      -7.213  15.977  65.791  1.00  0.00     0.000 HD 
HETATM   16  O   UNL     1      -9.507  18.151  66.154  1.00  0.00    -0.466 OA 
HETATM   17  N   UNL     1      -7.667  16.757  66.265  1.00  0.00    -0.306 N  
BRANCH  17  18
HETATM   18  C   UNL     1      -6.956  17.506  67.226  1.00  0.00    -0.166 A  
HETATM   19  C   UNL     1      -6.199  18.643  66.865  1.00  0.00    -0.193 A  
HETATM   20  C   UNL     1      -6.410  17.767  69.575  1.00  0.00    -0.217 A  
HETATM   21  C   UNL     1      -5.561  19.318  67.930  1.00  0.00    -0.195 A  
HETATM   22  C   UNL     1      -5.673  18.899  69.262  1.00  0.00    -0.230 A  
HETATM   23  C   UNL     1      -7.043  17.065  68.558  1.00  0.00    -0.202 A  
BRANCH  19  24
HETATM   24  C   UNL     1      -6.055  19.168  65.473  1.00  0.00    -0.262 A  
HETATM   25  C   UNL     1      -5.313  18.501  64.481  1.00  0.00    -0.157 A  
HETATM   26  C   UNL     1      -5.173  19.017  63.186  1.00  0.00    -0.294 A  
HETATM   27  C   UNL     1      -5.746  20.239  62.855  1.00  0.00    -0.289 A  
HETATM   28  C   UNL     1      -6.477  20.932  63.812  1.00  0.00    -0.216 A  
HETATM   29  C   UNL     1      -6.641  20.395  65.094  1.00  0.00    -0.327 A  
ENDBRANCH  19  24
ENDBRANCH  17  18
ENDBRANCH  13  14
ENDBRANCH  10  13
ENDBRANCH   6   7
ENDBRANCH   5   6
ENDBRANCH   2   5
BRANCH   4  30
HETATM   30  C   UNL     1     -12.314  10.108  71.319  1.00  0.00    -0.501 A  
HETATM   31  C   UNL     1     -10.989   9.654  71.408  1.00  0.00    -0.354 A  
HETATM   32  C   UNL     1     -13.336   9.158  71.239  1.00  0.00    -0.286 A  
HETATM   33  C   UNL     1     -13.065   7.801  71.417  1.00  0.00    -0.310 A  
HETATM   34  C   UNL     1     -10.707   8.287  71.518  1.00  0.00    -0.295 A  
HETATM   35  C   UNL     1     -11.747   7.352  71.562  1.00  0.00    -0.314 A  
BRANCH  35  36
HETATM   36  C   UNL     1     -11.470   5.871  71.726  1.00  0.00    -0.198 C  
BRANCH  36  37
HETATM   37  N   UNL     1     -10.047   5.585  71.966  1.00  0.00    -0.181 NA 
HETATM   38  C   UNL     1      -9.326   5.252  70.733  1.00  0.00    -0.159 C  
HETATM   39  C   UNL     1      -9.824   4.564  73.001  1.00  0.00    -0.140 C  
HETATM   40  C   UNL     1     -10.154   3.141  72.543  1.00  0.00    -0.231 C  
HETATM   41  C   UNL     1      -9.645   3.857  70.190  1.00  0.00    -0.267 C  
HETATM   42  C   UNL     1      -9.415   2.774  71.251  1.00  0.00    -0.219 C  
BRANCH  42  43
HETATM   43  C   UNL     1      -7.927   2.534  71.511  1.00  0.00    -0.051 C  
HETATM   44  N   UNL     1      -7.135   2.498  70.403  1.00  0.00    -0.033 N  
HETATM   45  H2  UNL     1      -7.509   2.623  69.463  1.00  0.00     0.000 HD 
HETATM   46  O   UNL     1      -7.433   2.346  72.618  1.00  0.00    -0.044 OA 
HETATM   47  H1  UNL     1      -6.142   2.339  70.576  1.00  0.00     0.000 HD 
ENDBRANCH  42  43
ENDBRANCH  36  37
ENDBRANCH  35  36
ENDBRANCH   4  30
TORSDOF 11
ENDMDL
MODEL       32
REMARK 921   NORMALIZED FREE ENERGY PREDICTED BY IDOCK:   -6.75 KCAL/MOL
REMARK 922        TOTAL FREE ENERGY PREDICTED BY IDOCK:  -12.72 KCAL/MOL
REMARK 923 INTER-LIGAND FREE ENERGY PREDICTED BY IDOCK:  -11.41 KCAL/MOL
REMARK 924 INTRA-LIGAND FREE ENERGY PREDICTED BY IDOCK:   -1.31 KCAL/MOL
REMARK 927      BINDING AFFINITY PREDICTED BY RF-SCORE:    0.00 PKD
ROOT
HETATM    1  C   UNL     1      -6.402  16.966  69.281  1.00  0.00    -0.223 C  
HETATM    2  N   UNL     1      -7.550  16.197  68.823  1.00  0.00    -0.180 N  
HETATM    3  O   UNL     1      -8.536  18.171  68.140  1.00  0.00    -0.259 OA 
HETATM    4  C   UNL     1      -8.581  16.941  68.204  1.00  0.00    -0.221 C  
ENDROOT
BRANCH   2   5
HETATM    5  C   UNL     1      -7.471  14.739  68.731  1.00  0.00    -0.133 C  
BRANCH   5   6
HETATM    6  C   UNL     1      -6.661  14.050  67.620  1.00  0.00    -0.173 C  
BRANCH   6   7
HETATM    7  N   UNL     1      -6.004  12.819  68.122  1.00  0.00    -0.076 NA 
HETATM    8  C   UNL     1      -5.768  11.838  67.052  1.00  0.00    -0.134 C  
HETATM    9  C   UNL     1      -6.707  12.168  69.240  1.00  0.00    -0.084 C  
HETATM   10  C   UNL     1      -7.887  10.588  67.689  1.00  0.00    -0.105 C  
HETATM   11  C   UNL     1      -8.061  11.599  68.827  1.00  0.00    -0.072 C  
HETATM   12  C   UNL     1      -7.050  11.172  66.547  1.00  0.00    -0.124 C  
BRANCH  10  13
HETATM   13  O   UNL     1      -7.203   9.420  68.187  1.00  0.00    -0.076 OA 
BRANCH  13  14
HETATM   14  C   UNL     1      -7.934   8.646  69.034  1.00  0.00    -0.115 C  
HETATM   15  H   UNL     1      -9.442   8.826  67.624  1.00  0.00     0.000 HD 
HETATM   16  O   UNL     1      -7.487   8.087  70.023  1.00  0.00    -0.071 OA 
HETATM   17  N   UNL     1      -9.229   8.619  68.600  1.00  0.00    -0.139 N  
BRANCH  17  18
HETATM   18  C   UNL     1     -10.271   8.306  69.496  1.00  0.00    -0.210 A  
HETATM   19  C   UNL     1     -10.849   7.017  69.538  1.00  0.00    -0.265 A  
HETATM   20  C   UNL     1     -11.694   9.108  71.289  1.00  0.00    -0.396 A  
HETATM   21  C   UNL     1     -11.863   6.830  70.504  1.00  0.00    -0.418 A  
HETATM   22  C   UNL     1     -12.271   7.850  71.374  1.00  0.00    -0.337 A  
HETATM   23  C   UNL     1     -10.702   9.340  70.345  1.00  0.00    -0.300 A  
BRANCH  19  24
HETATM   24  C   UNL     1     -10.447   5.872  68.665  1.00  0.00    -0.302 A  
HETATM   25  C   UNL     1      -9.730   4.762  69.148  1.00  0.00    -0.258 A  
HETATM   26  C   UNL     1      -9.345   3.707  68.311  1.00  0.00    -0.228 A  
HETATM   27  C   UNL     1      -9.637   3.748  66.953  1.00  0.00    -0.207 A  
HETATM   28  C   UNL     1     -10.334   4.834  66.438  1.00  0.00    -0.312 A  
HETATM   29  C   UNL     1     -10.745   5.870  67.285  1.00  0.00    -0.380 A  
ENDBRANCH  19  24
ENDBRANCH  17  18
ENDBRANCH  13  14
ENDBRANCH  10  13
ENDBRANCH   6   7
ENDBRANCH   5   6
ENDBRANCH   2   5
BRANCH   4  30
HETATM   30  C   UNL     1      -9.724  16.259  67.512  1.00  0.00    -0.234 A  
HETATM   31  C   UNL     1      -9.768  16.313  66.110  1.00  0.00    -0.357 A  
HETATM   32  C   UNL     1     -10.744  15.576  68.180  1.00  0.00    -0.282 A  
HETATM   33  C   UNL     1     -11.682  14.823  67.473  1.00  0.00    -0.370 A  
HETATM   34  C   UNL     1     -10.749  15.614  65.397  1.00  0.00    -0.424 A  
HETATM   35  C   UNL     1     -11.692  14.831  66.074  1.00  0.00    -0.248 A  
BRANCH  35  36
HETATM   36  C   UNL     1     -12.735  14.029  65.323  1.00  0.00    -0.439 C  
BRANCH  36  37
HETATM   37  N   UNL     1     -12.474  12.581  65.362  1.00  0.00    -0.647 NA 
HETATM   38  C   UNL     1     -11.206  12.258  66.025  1.00  0.00    -0.332 C  
HETATM   39  C   UNL     1     -12.562  11.936  64.043  1.00  0.00    -0.282 C  
HETATM   40  C   UNL     1     -11.374  12.245  63.128  1.00  0.00    -0.254 C  
HETATM   41  C   UNL     1      -9.970  12.585  65.182  1.00  0.00    -0.212 C  
HETATM   42  C   UNL     1     -10.036  11.919  63.803  1.00  0.00    -0.423 C  
BRANCH  42  43
HETATM   43  C   UNL     1      -9.808  10.410  63.885  1.00  0.00    -0.267 C  
HETATM   44  N   UNL     1      -9.572   9.785  62.697  1.00  0.00    -0.560 N  
HETATM   45  H2  UNL     1      -9.548  10.291  61.812  1.00  0.00     0.000 HD 
HETATM   46  O   UNL     1      -9.859   9.751  64.918  1.00  0.00    -0.284 OA 
HETATM   47  H1  UNL     1      -9.419   8.778  62.752  1.00  0.00     0.000 HD 
ENDBRANCH  42  43
ENDBRANCH  36  37
ENDBRANCH  35  36
ENDBRANCH   4  30
TORSDOF 11
ENDMDL
MODEL       33
REMARK 921   NORMALIZED FREE ENERGY PREDICTED BY IDOCK:   -6.74 KCAL/MOL
REMARK 922        TOTAL FREE ENERGY PREDICTED BY IDOCK:  -12.71 KCAL/MOL
REMARK 923 INTER-LIGAND FREE ENERGY PREDICTED BY IDOCK:  -10.58 KCAL/MOL
REMARK 924 INTRA-LIGAND FREE ENERGY PREDICTED BY IDOCK:   -2.13 KCAL/MOL
REMARK 927      BINDING AFFINITY PREDICTED BY RF-SCORE:    0.00 PKD
ROOT
HETATM    1  C   UNL     1     -13.179  11.316  71.831  1.00  0.00    -0.386 C  
HETATM    2  N   UNL     1     -12.311  10.515  70.980  1.00  0.00    -0.362 N  
HETATM    3  O   UNL     1     -12.217   8.927  72.655  1.00  0.00    -0.293 OA 
HETATM    4  C   UNL     1     -11.912   9.266  71.510  1.00  0.00    -0.368 C  
ENDROOT
BRANCH   2   5
HETATM    5  C   UNL     1     -12.147  10.855  69.566  1.00  0.00    -0.309 C  
BRANCH   5   6
HETATM    6  C   UNL     1     -11.220  11.999  69.121  1.00  0.00    -0.246 C  
BRANCH   6   7
HETATM    7  N   UNL     1     -12.001  13.189  68.706  1.00  0.00    -0.315 NA 
HETATM    8  C   UNL     1     -11.971  13.395  67.251  1.00  0.00    -0.347 C  
HETATM    9  C   UNL     1     -11.613  14.437  69.387  1.00  0.00    -0.304 C  
HETATM   10  C   UNL     1     -10.101  15.098  67.498  1.00  0.00    -0.232 C  
HETATM   11  C   UNL     1     -10.207  14.894  69.013  1.00  0.00    -0.243 C  
HETATM   12  C   UNL     1     -10.613  13.873  66.734  1.00  0.00    -0.277 C  
BRANCH  10  13
HETATM   13  O   UNL     1     -10.905  16.230  67.110  1.00  0.00    -0.290 OA 
BRANCH  13  14
HETATM   14  C   UNL     1     -10.333  17.443  67.338  1.00  0.00    -0.343 C  
HETATM   15  H   UNL     1      -9.038  16.932  65.804  1.00  0.00     0.000 HD 
HETATM   16  O   UNL     1     -10.793  18.298  68.079  1.00  0.00    -0.321 OA 
HETATM   17  N   UNL     1      -9.174  17.526  66.621  1.00  0.00    -0.255 N  
BRANCH  17  18
HETATM   18  C   UNL     1      -8.165  18.432  67.008  1.00  0.00    -0.247 A  
HETATM   19  C   UNL     1      -7.049  18.015  67.768  1.00  0.00    -0.207 A  
HETATM   20  C   UNL     1      -7.358  20.717  66.898  1.00  0.00    -0.339 A  
HETATM   21  C   UNL     1      -6.096  19.017  68.061  1.00  0.00    -0.228 A  
HETATM   22  C   UNL     1      -6.239  20.340  67.624  1.00  0.00    -0.262 A  
HETATM   23  C   UNL     1      -8.325  19.766  66.598  1.00  0.00    -0.360 A  
BRANCH  19  24
HETATM   24  C   UNL     1      -6.813  16.617  68.244  1.00  0.00    -0.147 A  
HETATM   25  C   UNL     1      -6.768  16.276  69.608  1.00  0.00    -0.154 A  
HETATM   26  C   UNL     1      -6.526  14.964  70.037  1.00  0.00    -0.167 A  
HETATM   27  C   UNL     1      -6.287  13.958  69.109  1.00  0.00    -0.107 A  
HETATM   28  C   UNL     1      -6.312  14.260  67.753  1.00  0.00    -0.168 A  
HETATM   29  C   UNL     1      -6.587  15.565  67.330  1.00  0.00    -0.174 A  
ENDBRANCH  19  24
ENDBRANCH  17  18
ENDBRANCH  13  14
ENDBRANCH  10  13
ENDBRANCH   6   7
ENDBRANCH   5   6
ENDBRANCH   2   5
BRANCH   4  30
HETATM   30  C   UNL     1     -11.185   8.259  70.667  1.00  0.00    -0.270 A  
HETATM   31  C   UNL     1      -9.888   8.578  70.237  1.00  0.00    -0.194 A  
HETATM   32  C   UNL     1     -11.725   7.027  70.288  1.00  0.00    -0.284 A  
HETATM   33  C   UNL     1     -10.938   6.069  69.648  1.00  0.00    -0.470 A  
HETATM   34  C   UNL     1      -9.118   7.643  69.535  1.00  0.00    -0.146 A  
HETATM   35  C   UNL     1      -9.624   6.366  69.268  1.00  0.00    -0.145 A  
BRANCH  35  36
HETATM   36  C   UNL     1      -8.793   5.322  68.550  1.00  0.00    -0.097 C  
BRANCH  36  37
HETATM   37  N   UNL     1      -8.471   5.708  67.167  1.00  0.00    -0.111 NA 
HETATM   38  C   UNL     1      -9.670   5.945  66.357  1.00  0.00    -0.134 C  
HETATM   39  C   UNL     1      -7.556   4.771  66.498  1.00  0.00    -0.087 C  
HETATM   40  C   UNL     1      -8.216   3.448  66.099  1.00  0.00    -0.097 C  
HETATM   41  C   UNL     1     -10.408   4.664  65.960  1.00  0.00    -0.318 C  
HETATM   42  C   UNL     1      -9.475   3.672  65.255  1.00  0.00    -0.162 C  
BRANCH  42  43
HETATM   43  C   UNL     1      -9.122   4.126  63.839  1.00  0.00    -0.140 C  
HETATM   44  N   UNL     1     -10.180   4.456  63.046  1.00  0.00    -0.394 N  
HETATM   45  H2  UNL     1     -11.144   4.403  63.375  1.00  0.00     0.000 HD 
HETATM   46  O   UNL     1      -7.984   4.175  63.385  1.00  0.00    -0.080 OA 
HETATM   47  H1  UNL     1      -9.944   4.760  62.100  1.00  0.00     0.000 HD 
ENDBRANCH  42  43
ENDBRANCH  36  37
ENDBRANCH  35  36
ENDBRANCH   4  30
TORSDOF 11
ENDMDL
MODEL       34
REMARK 921   NORMALIZED FREE ENERGY PREDICTED BY IDOCK:   -6.73 KCAL/MOL
REMARK 922        TOTAL FREE ENERGY PREDICTED BY IDOCK:  -12.69 KCAL/MOL
REMARK 923 INTER-LIGAND FREE ENERGY PREDICTED BY IDOCK:   -9.98 KCAL/MOL
REMARK 924 INTRA-LIGAND FREE ENERGY PREDICTED BY IDOCK:   -2.71 KCAL/MOL
REMARK 927      BINDING AFFINITY PREDICTED BY RF-SCORE:    0.00 PKD
ROOT
HETATM    1  C   UNL     1      -9.768   6.857  74.024  1.00  0.00    -0.292 C  
HETATM    2  N   UNL     1      -9.497   6.384  72.674  1.00  0.00    -0.148 N  
HETATM    3  O   UNL     1     -11.692   5.676  72.534  1.00  0.00    -0.297 OA 
HETATM    4  C   UNL     1     -10.598   5.826  71.986  1.00  0.00    -0.226 C  
ENDROOT
BRANCH   2   5
HETATM    5  C   UNL     1      -8.258   6.766  71.995  1.00  0.00    -0.104 C  
BRANCH   5   6
HETATM    6  C   UNL     1      -7.968   8.228  71.621  1.00  0.00    -0.128 C  
BRANCH   6   7
HETATM    7  N   UNL     1      -7.235   8.317  70.335  1.00  0.00    -0.043 NA 
HETATM    8  C   UNL     1      -6.587   9.624  70.153  1.00  0.00    -0.081 C  
HETATM    9  C   UNL     1      -8.049   8.002  69.149  1.00  0.00    -0.119 C  
HETATM   10  C   UNL     1      -8.537  10.427  68.735  1.00  0.00    -0.141 C  
HETATM   11  C   UNL     1      -9.148   9.033  68.904  1.00  0.00    -0.140 C  
HETATM   12  C   UNL     1      -7.577  10.759  69.882  1.00  0.00     0.128 C  
BRANCH  10  13
HETATM   13  O   UNL     1      -7.790  10.477  67.503  1.00  0.00    -0.104 OA 
BRANCH  13  14
HETATM   14  C   UNL     1      -8.547  10.594  66.379  1.00  0.00    -0.149 C  
HETATM   15  H   UNL     1      -8.627  12.611  66.848  1.00  0.00     0.000 HD 
HETATM   16  O   UNL     1      -8.723   9.701  65.566  1.00  0.00    -0.138 OA 
HETATM   17  N   UNL     1      -9.073  11.853  66.331  1.00  0.00    -0.214 N  
BRANCH  17  18
HETATM   18  C   UNL     1     -10.231  12.109  65.569  1.00  0.00    -0.265 A  
HETATM   19  C   UNL     1     -11.458  12.454  66.179  1.00  0.00    -0.430 A  
HETATM   20  C   UNL     1     -11.181  12.282  63.343  1.00  0.00    -0.497 A  
HETATM   21  C   UNL     1     -12.531  12.715  65.298  1.00  0.00    -0.483 A  
HETATM   22  C   UNL     1     -12.395  12.644  63.905  1.00  0.00    -0.546 A  
HETATM   23  C   UNL     1     -10.102  12.005  64.173  1.00  0.00    -0.340 A  
BRANCH  19  24
HETATM   24  C   UNL     1     -11.673  12.579  67.654  1.00  0.00    -0.423 A  
HETATM   25  C   UNL     1     -11.770  11.462  68.505  1.00  0.00    -0.386 A  
HETATM   26  C   UNL     1     -11.991  11.597  69.882  1.00  0.00    -0.414 A  
HETATM   27  C   UNL     1     -12.157  12.856  70.444  1.00  0.00    -0.385 A  
HETATM   28  C   UNL     1     -12.079  13.982  69.632  1.00  0.00    -0.408 A  
HETATM   29  C   UNL     1     -11.824  13.843  68.263  1.00  0.00    -0.412 A  
ENDBRANCH  19  24
ENDBRANCH  17  18
ENDBRANCH  13  14
ENDBRANCH  10  13
ENDBRANCH   6   7
ENDBRANCH   5   6
ENDBRANCH   2   5
BRANCH   4  30
HETATM   30  C   UNL     1     -10.511   5.483  70.527  1.00  0.00    -0.347 A  
HETATM   31  C   UNL     1     -11.194   6.306  69.618  1.00  0.00    -0.506 A  
HETATM   32  C   UNL     1      -9.792   4.396  70.024  1.00  0.00    -0.294 A  
HETATM   33  C   UNL     1      -9.612   4.231  68.650  1.00  0.00    -0.210 A  
HETATM   34  C   UNL     1     -11.072   6.103  68.238  1.00  0.00    -0.336 A  
HETATM   35  C   UNL     1     -10.248   5.086  67.743  1.00  0.00    -0.156 A  
BRANCH  35  36
HETATM   36  C   UNL     1     -10.064   4.876  66.254  1.00  0.00    -0.257 C  
BRANCH  36  37
HETATM   37  N   UNL     1      -8.717   4.392  65.912  1.00  0.00    -0.117 NA 
HETATM   38  C   UNL     1      -7.795   5.484  65.586  1.00  0.00    -0.101 C  
HETATM   39  C   UNL     1      -8.716   3.366  64.858  1.00  0.00    -0.112 C  
HETATM   40  C   UNL     1      -8.999   3.921  63.459  1.00  0.00    -0.109 C  
HETATM   41  C   UNL     1      -8.050   6.119  64.217  1.00  0.00    -0.093 C  
HETATM   42  C   UNL     1      -8.049   5.068  63.100  1.00  0.00    -0.099 C  
BRANCH  42  43
HETATM   43  C   UNL     1      -6.641   4.552  62.802  1.00  0.00    -0.026 C  
HETATM   44  N   UNL     1      -5.649   5.485  62.852  1.00  0.00    -0.014 N  
HETATM   45  H2  UNL     1      -5.834   6.463  63.073  1.00  0.00     0.000 HD 
HETATM   46  O   UNL     1      -6.371   3.394  62.499  1.00  0.00    -0.017 OA 
HETATM   47  H1  UNL     1      -4.709   5.140  62.654  1.00  0.00     0.000 HD 
ENDBRANCH  42  43
ENDBRANCH  36  37
ENDBRANCH  35  36
ENDBRANCH   4  30
TORSDOF 11
ENDMDL
MODEL       35
REMARK 921   NORMALIZED FREE ENERGY PREDICTED BY IDOCK:   -6.68 KCAL/MOL
REMARK 922        TOTAL FREE ENERGY PREDICTED BY IDOCK:  -12.61 KCAL/MOL
REMARK 923 INTER-LIGAND FREE ENERGY PREDICTED BY IDOCK:  -10.04 KCAL/MOL
REMARK 924 INTRA-LIGAND FREE ENERGY PREDICTED BY IDOCK:   -2.57 KCAL/MOL
REMARK 927      BINDING AFFINITY PREDICTED BY RF-SCORE:    0.00 PKD
ROOT
HETATM    1  C   UNL     1     -10.776  10.106  66.029  1.00  0.00     0.103 C  
HETATM    2  N   UNL     1     -10.351  11.488  66.192  1.00  0.00    -0.237 N  
HETATM    3  O   UNL     1     -12.341  12.161  65.230  1.00  0.00    -0.513 OA 
HETATM    4  C   UNL     1     -11.278  12.470  65.774  1.00  0.00    -0.320 C  
ENDROOT
BRANCH   2   5
HETATM    5  C   UNL     1      -9.189  11.809  67.022  1.00  0.00    -0.187 C  
BRANCH   5   6
HETATM    6  C   UNL     1      -9.048  11.255  68.449  1.00  0.00    -0.170 C  
BRANCH   6   7
HETATM    7  N   UNL     1      -7.803  10.462  68.595  1.00  0.00    -0.102 NA 
HETATM    8  C   UNL     1      -7.852   9.205  67.836  1.00  0.00    -0.100 C  
HETATM    9  C   UNL     1      -7.422  10.181  69.989  1.00  0.00    -0.162 C  
HETATM   10  C   UNL     1      -8.532   7.932  69.928  1.00  0.00    -0.127 C  
HETATM   11  C   UNL     1      -8.413   9.256  70.691  1.00  0.00    -0.258 C  
HETATM   12  C   UNL     1      -8.804   8.169  68.440  1.00  0.00    -0.133 C  
BRANCH  10  13
HETATM   13  O   UNL     1      -7.296   7.200  70.042  1.00  0.00    -0.077 OA 
BRANCH  13  14
HETATM   14  C   UNL     1      -7.322   6.167  70.927  1.00  0.00    -0.080 C  
HETATM   15  H   UNL     1      -8.308   5.131  69.428  1.00  0.00     0.000 HD 
HETATM   16  O   UNL     1      -6.726   6.151  71.992  1.00  0.00    -0.061 OA 
HETATM   17  N   UNL     1      -8.126   5.181  70.430  1.00  0.00    -0.089 N  
BRANCH  17  18
HETATM   18  C   UNL     1      -8.703   4.232  71.298  1.00  0.00    -0.102 A  
HETATM   19  C   UNL     1      -9.913   4.493  71.980  1.00  0.00    -0.255 A  
HETATM   20  C   UNL     1      -8.535   2.007  72.250  1.00  0.00    -0.057 A  
HETATM   21  C   UNL     1     -10.397   3.445  72.794  1.00  0.00    -0.240 A  
HETATM   22  C   UNL     1      -9.730   2.219  72.918  1.00  0.00    -0.160 A  
HETATM   23  C   UNL     1      -8.016   3.015  71.448  1.00  0.00    -0.055 A  
BRANCH  19  24
HETATM   24  C   UNL     1     -10.696   5.762  71.875  1.00  0.00    -0.297 A  
HETATM   25  C   UNL     1     -11.443   6.103  70.733  1.00  0.00    -0.321 A  
HETATM   26  C   UNL     1     -12.156   7.306  70.644  1.00  0.00    -0.226 A  
HETATM   27  C   UNL     1     -12.113   8.223  71.687  1.00  0.00    -0.346 A  
HETATM   28  C   UNL     1     -11.376   7.926  72.827  1.00  0.00    -0.453 A  
HETATM   29  C   UNL     1     -10.694   6.708  72.923  1.00  0.00    -0.285 A  
ENDBRANCH  19  24
ENDBRANCH  17  18
ENDBRANCH  13  14
ENDBRANCH  10  13
ENDBRANCH   6   7
ENDBRANCH   5   6
ENDBRANCH   2   5
BRANCH   4  30
HETATM   30  C   UNL     1     -11.055  13.925  66.065  1.00  0.00    -0.289 A  
HETATM   31  C   UNL     1     -11.674  14.469  67.202  1.00  0.00    -0.420 A  
HETATM   32  C   UNL     1     -10.269  14.767  65.273  1.00  0.00    -0.415 A  
HETATM   33  C   UNL     1      -9.966  16.063  65.690  1.00  0.00    -0.346 A  
HETATM   34  C   UNL     1     -11.425  15.792  67.587  1.00  0.00    -0.119 A  
HETATM   35  C   UNL     1     -10.538  16.588  66.854  1.00  0.00    -0.238 A  
BRANCH  35  36
HETATM   36  C   UNL     1     -10.218  18.007  67.276  1.00  0.00    -0.364 C  
BRANCH  36  37
HETATM   37  N   UNL     1      -9.519  18.070  68.569  1.00  0.00    -0.311 NA 
HETATM   38  C   UNL     1      -9.214  19.445  68.975  1.00  0.00    -0.271 C  
HETATM   39  C   UNL     1      -8.318  17.222  68.626  1.00  0.00    -0.255 C  
HETATM   40  C   UNL     1      -7.136  17.777  67.826  1.00  0.00    -0.199 C  
HETATM   41  C   UNL     1      -8.068  20.082  68.184  1.00  0.00    -0.232 C  
HETATM   42  C   UNL     1      -6.802  19.218  68.231  1.00  0.00    -0.296 C  
BRANCH  42  43
HETATM   43  C   UNL     1      -6.127  19.267  69.602  1.00  0.00    -0.269 C  
HETATM   44  N   UNL     1      -6.132  20.484  70.217  1.00  0.00    -0.472 N  
HETATM   45  H2  UNL     1      -6.557  21.307  69.790  1.00  0.00     0.000 HD 
HETATM   46  O   UNL     1      -5.573  18.316  70.143  1.00  0.00    -0.230 OA 
HETATM   47  H1  UNL     1      -5.682  20.517  71.132  1.00  0.00     0.000 HD 
ENDBRANCH  42  43
ENDBRANCH  36  37
ENDBRANCH  35  36
ENDBRANCH   4  30
TORSDOF 11
ENDMDL
MODEL       36
REMARK 921   NORMALIZED FREE ENERGY PREDICTED BY IDOCK:   -6.67 KCAL/MOL
REMARK 922        TOTAL FREE ENERGY PREDICTED BY IDOCK:  -12.59 KCAL/MOL
REMARK 923 INTER-LIGAND FREE ENERGY PREDICTED BY IDOCK:   -9.25 KCAL/MOL
REMARK 924 INTRA-LIGAND FREE ENERGY PREDICTED BY IDOCK:   -3.34 KCAL/MOL
REMARK 927      BINDING AFFINITY PREDICTED BY RF-SCORE:    0.00 PKD
ROOT
HETATM    1  C   UNL     1     -11.569  15.827  69.157  1.00  0.00    -0.392 C  
HETATM    2  N   UNL     1     -11.192  14.657  68.379  1.00  0.00    -0.262 N  
HETATM    3  O   UNL     1      -9.167  15.672  67.925  1.00  0.00    -0.189 OA 
HETATM    4  C   UNL     1      -9.893  14.681  67.822  1.00  0.00    -0.216 C  
ENDROOT
BRANCH   2   5
HETATM    5  C   UNL     1     -11.990  13.432  68.456  1.00  0.00    -0.328 C  
BRANCH   5   6
HETATM    6  C   UNL     1     -11.977  12.545  69.711  1.00  0.00    -0.289 C  
BRANCH   6   7
HETATM    7  N   UNL     1     -12.356  11.149  69.384  1.00  0.00    -0.343 NA 
HETATM    8  C   UNL     1     -12.660  10.360  70.586  1.00  0.00    -0.348 C  
HETATM    9  C   UNL     1     -11.371  10.430  68.559  1.00  0.00    -0.220 C  
HETATM   10  C   UNL     1     -10.311   9.389  70.580  1.00  0.00    -0.284 C  
HETATM   11  C   UNL     1     -10.058  10.186  69.297  1.00  0.00    -0.237 C  
HETATM   12  C   UNL     1     -11.422  10.026  71.422  1.00  0.00    -0.329 C  
BRANCH  10  13
HETATM   13  O   UNL     1     -10.725   8.051  70.240  1.00  0.00    -0.231 OA 
BRANCH  13  14
HETATM   14  C   UNL     1     -10.007   7.061  70.837  1.00  0.00    -0.193 C  
HETATM   15  H   UNL     1     -11.627   5.849  70.391  1.00  0.00     0.000 HD 
HETATM   16  O   UNL     1      -8.842   7.164  71.187  1.00  0.00    -0.142 OA 
HETATM   17  N   UNL     1     -10.806   5.964  70.985  1.00  0.00    -0.273 N  
BRANCH  17  18
HETATM   18  C   UNL     1     -10.501   4.990  71.958  1.00  0.00    -0.203 A  
HETATM   19  C   UNL     1      -9.676   3.882  71.661  1.00  0.00    -0.240 A  
HETATM   20  C   UNL     1     -10.772   4.293  74.265  1.00  0.00    -0.268 A  
HETATM   21  C   UNL     1      -9.425   2.999  72.735  1.00  0.00    -0.152 A  
HETATM   22  C   UNL     1      -9.951   3.204  74.017  1.00  0.00    -0.166 A  
HETATM   23  C   UNL     1     -11.056   5.180  73.235  1.00  0.00    -0.392 A  
BRANCH  19  24
HETATM   24  C   UNL     1      -9.055   3.611  70.328  1.00  0.00    -0.200 A  
HETATM   25  C   UNL     1      -9.649   2.769  69.370  1.00  0.00    -0.051 A  
HETATM   26  C   UNL     1      -9.043   2.511  68.133  1.00  0.00    -0.229 A  
HETATM   27  C   UNL     1      -7.805   3.063  67.832  1.00  0.00    -0.067 A  
HETATM   28  C   UNL     1      -7.183   3.891  68.758  1.00  0.00    -0.054 A  
HETATM   29  C   UNL     1      -7.808   4.172  69.978  1.00  0.00    -0.052 A  
ENDBRANCH  19  24
ENDBRANCH  17  18
ENDBRANCH  13  14
ENDBRANCH  10  13
ENDBRANCH   6   7
ENDBRANCH   5   6
ENDBRANCH   2   5
BRANCH   4  30
HETATM   30  C   UNL     1      -9.304  13.465  67.168  1.00  0.00    -0.240 A  
HETATM   31  C   UNL     1      -8.139  12.919  67.729  1.00  0.00    -0.166 A  
HETATM   32  C   UNL     1      -9.847  12.848  66.038  1.00  0.00    -0.256 A  
HETATM   33  C   UNL     1      -9.350  11.627  65.582  1.00  0.00    -0.195 A  
HETATM   34  C   UNL     1      -7.596  11.728  67.231  1.00  0.00    -0.150 A  
HETATM   35  C   UNL     1      -8.221  11.052  66.176  1.00  0.00    -0.155 A  
BRANCH  35  36
HETATM   36  C   UNL     1      -7.678   9.739  65.650  1.00  0.00    -0.115 C  
BRANCH  36  37
HETATM   37  N   UNL     1      -8.730   8.874  65.093  1.00  0.00    -0.186 NA 
HETATM   38  C   UNL     1      -9.638   8.361  66.124  1.00  0.00    -0.176 C  
HETATM   39  C   UNL     1      -8.206   7.782  64.258  1.00  0.00    -0.026 C  
HETATM   40  C   UNL     1      -7.542   6.659  65.059  1.00  0.00    -0.099 C  
HETATM   41  C   UNL     1      -9.022   7.263  66.996  1.00  0.00    -0.140 C  
HETATM   42  C   UNL     1      -8.473   6.111  66.147  1.00  0.00    -0.137 C  
BRANCH  42  43
HETATM   43  C   UNL     1      -9.592   5.260  65.545  1.00  0.00     0.006 C  
HETATM   44  N   UNL     1     -10.794   5.334  66.180  1.00  0.00    -0.715 N  
HETATM   45  H2  UNL     1     -10.939   5.919  67.004  1.00  0.00     0.000 HD 
HETATM   46  O   UNL     1      -9.460   4.517  64.578  1.00  0.00    -0.151 OA 
HETATM   47  H1  UNL     1     -11.541   4.767  65.778  1.00  0.00     0.000 HD 
ENDBRANCH  42  43
ENDBRANCH  36  37
ENDBRANCH  35  36
ENDBRANCH   4  30
TORSDOF 11
ENDMDL
MODEL       37
REMARK 921   NORMALIZED FREE ENERGY PREDICTED BY IDOCK:   -6.64 KCAL/MOL
REMARK 922        TOTAL FREE ENERGY PREDICTED BY IDOCK:  -12.55 KCAL/MOL
REMARK 923 INTER-LIGAND FREE ENERGY PREDICTED BY IDOCK:  -10.35 KCAL/MOL
REMARK 924 INTRA-LIGAND FREE ENERGY PREDICTED BY IDOCK:   -2.20 KCAL/MOL
REMARK 927      BINDING AFFINITY PREDICTED BY RF-SCORE:    0.00 PKD
ROOT
HETATM    1  C   UNL     1     -10.453   9.757  66.233  1.00  0.00    -0.090 C  
HETATM    2  N   UNL     1     -10.046  11.153  66.180  1.00  0.00    -0.230 N  
HETATM    3  O   UNL     1     -12.275  11.747  66.044  1.00  0.00    -0.322 OA 
HETATM    4  C   UNL     1     -11.096  12.099  66.126  1.00  0.00    -0.312 C  
ENDROOT
BRANCH   2   5
HETATM    5  C   UNL     1      -8.666  11.530  66.487  1.00  0.00    -0.183 C  
BRANCH   5   6
HETATM    6  C   UNL     1      -7.802  10.695  67.445  1.00  0.00    -0.110 C  
BRANCH   6   7
HETATM    7  N   UNL     1      -8.013  11.108  68.854  1.00  0.00    -0.142 NA 
HETATM    8  C   UNL     1      -6.810  10.918  69.676  1.00  0.00    -0.137 C  
HETATM    9  C   UNL     1      -9.163  10.462  69.510  1.00  0.00    -0.120 C  
HETATM   10  C   UNL     1      -7.701   8.695  70.525  1.00  0.00    -0.086 C  
HETATM   11  C   UNL     1      -8.962   8.961  69.697  1.00  0.00    -0.147 C  
HETATM   12  C   UNL     1      -6.493   9.448  69.958  1.00  0.00    -0.057 C  
BRANCH  10  13
HETATM   13  O   UNL     1      -7.911   9.147  71.877  1.00  0.00    -0.335 OA 
BRANCH  13  14
HETATM   14  C   UNL     1      -7.852   8.171  72.823  1.00  0.00    -0.145 C  
HETATM   15  H   UNL     1      -6.780   7.101  71.408  1.00  0.00     0.000 HD 
HETATM   16  O   UNL     1      -8.212   8.305  73.981  1.00  0.00    -0.246 OA 
HETATM   17  N   UNL     1      -7.345   7.037  72.255  1.00  0.00    -0.084 N  
BRANCH  17  18
HETATM   18  C   UNL     1      -7.601   5.778  72.836  1.00  0.00    -0.096 A  
HETATM   19  C   UNL     1      -8.808   5.084  72.597  1.00  0.00    -0.124 A  
HETATM   20  C   UNL     1      -6.742   3.995  74.239  1.00  0.00    -0.057 A  
HETATM   21  C   UNL     1      -8.922   3.819  73.215  1.00  0.00    -0.108 A  
HETATM   22  C   UNL     1      -7.905   3.276  74.011  1.00  0.00    -0.066 A  
HETATM   23  C   UNL     1      -6.593   5.249  73.661  1.00  0.00    -0.073 A  
BRANCH  19  24
HETATM   24  C   UNL     1      -9.925   5.584  71.738  1.00  0.00    -0.228 A  
HETATM   25  C   UNL     1      -9.926   5.448  70.337  1.00  0.00    -0.291 A  
HETATM   26  C   UNL     1     -10.973   5.940  69.545  1.00  0.00    -0.438 A  
HETATM   27  C   UNL     1     -12.036   6.616  70.132  1.00  0.00    -0.250 A  
HETATM   28  C   UNL     1     -12.063   6.778  71.512  1.00  0.00    -0.410 A  
HETATM   29  C   UNL     1     -11.031   6.256  72.300  1.00  0.00    -0.297 A  
ENDBRANCH  19  24
ENDBRANCH  17  18
ENDBRANCH  13  14
ENDBRANCH  10  13
ENDBRANCH   6   7
ENDBRANCH   5   6
ENDBRANCH   2   5
BRANCH   4  30
HETATM   30  C   UNL     1     -10.827  13.569  66.267  1.00  0.00    -0.291 A  
HETATM   31  C   UNL     1     -10.523  14.294  65.105  1.00  0.00    -0.432 A  
HETATM   32  C   UNL     1     -10.864  14.254  67.485  1.00  0.00    -0.284 A  
HETATM   33  C   UNL     1     -10.773  15.645  67.525  1.00  0.00    -0.303 A  
HETATM   34  C   UNL     1     -10.362  15.684  65.151  1.00  0.00    -0.366 A  
HETATM   35  C   UNL     1     -10.524  16.375  66.357  1.00  0.00    -0.288 A  
BRANCH  35  36
HETATM   36  C   UNL     1     -10.400  17.884  66.425  1.00  0.00    -0.365 C  
BRANCH  36  37
HETATM   37  N   UNL     1      -9.054  18.358  66.068  1.00  0.00    -0.498 NA 
HETATM   38  C   UNL     1      -8.004  17.713  66.862  1.00  0.00    -0.226 C  
HETATM   39  C   UNL     1      -8.922  19.823  66.105  1.00  0.00    -0.336 C  
HETATM   40  C   UNL     1      -8.878  20.400  67.522  1.00  0.00    -0.386 C  
HETATM   41  C   UNL     1      -7.932  18.211  68.309  1.00  0.00    -0.304 C  
HETATM   42  C   UNL     1      -7.789  19.736  68.373  1.00  0.00    -0.329 C  
BRANCH  42  43
HETATM   43  C   UNL     1      -6.394  20.198  67.951  1.00  0.00    -0.241 C  
HETATM   44  N   UNL     1      -6.351  21.348  67.221  1.00  0.00    -0.330 N  
HETATM   45  H2  UNL     1      -7.194  21.866  66.972  1.00  0.00     0.000 HD 
HETATM   46  O   UNL     1      -5.355  19.595  68.195  1.00  0.00    -0.186 OA 
HETATM   47  H1  UNL     1      -5.420  21.657  66.939  1.00  0.00     0.000 HD 
ENDBRANCH  42  43
ENDBRANCH  36  37
ENDBRANCH  35  36
ENDBRANCH   4  30
TORSDOF 11
ENDMDL
MODEL       38
REMARK 921   NORMALIZED FREE ENERGY PREDICTED BY IDOCK:   -6.63 KCAL/MOL
REMARK 922        TOTAL FREE ENERGY PREDICTED BY IDOCK:  -12.53 KCAL/MOL
REMARK 923 INTER-LIGAND FREE ENERGY PREDICTED BY IDOCK:  -11.91 KCAL/MOL
REMARK 924 INTRA-LIGAND FREE ENERGY PREDICTED BY IDOCK:   -0.62 KCAL/MOL
REMARK 927      BINDING AFFINITY PREDICTED BY RF-SCORE:    0.00 PKD
ROOT
HETATM    1  C   UNL     1     -12.164  11.439  70.796  1.00  0.00    -0.376 C  
HETATM    2  N   UNL     1     -11.547  10.369  70.027  1.00  0.00    -0.280 N  
HETATM    3  O   UNL     1     -10.972   9.340  72.014  1.00  0.00    -0.315 OA 
HETATM    4  C   UNL     1     -10.997   9.308  70.781  1.00  0.00    -0.284 C  
ENDROOT
BRANCH   2   5
HETATM    5  C   UNL     1     -11.780  10.268  68.585  1.00  0.00     0.095 C  
BRANCH   5   6
HETATM    6  C   UNL     1     -10.857  10.968  67.575  1.00  0.00    -0.263 C  
BRANCH   6   7
HETATM    7  N   UNL     1     -11.640  11.755  66.591  1.00  0.00    -0.528 NA 
HETATM    8  C   UNL     1     -10.957  11.860  65.293  1.00  0.00    -0.302 C  
HETATM    9  C   UNL     1     -12.023  13.099  67.055  1.00  0.00    -0.355 C  
HETATM   10  C   UNL     1     -10.045  14.146  65.923  1.00  0.00    -0.321 C  
HETATM   11  C   UNL     1     -10.819  14.019  67.238  1.00  0.00    -0.288 C  
HETATM   12  C   UNL     1      -9.728  12.771  65.326  1.00  0.00    -0.024 C  
BRANCH  10  13
HETATM   13  O   UNL     1     -10.842  14.872  64.966  1.00  0.00    -0.371 OA 
BRANCH  13  14
HETATM   14  C   UNL     1     -10.704  16.224  65.014  1.00  0.00    -0.298 C  
HETATM   15  H   UNL     1      -9.013  15.841  66.148  1.00  0.00     0.000 HD 
HETATM   16  O   UNL     1     -11.372  17.013  64.365  1.00  0.00    -1.140 OA 
HETATM   17  N   UNL     1      -9.720  16.535  65.909  1.00  0.00    -0.297 N  
BRANCH  17  18
HETATM   18  C   UNL     1      -9.680  17.814  66.502  1.00  0.00    -0.320 A  
HETATM   19  C   UNL     1      -8.816  18.101  67.582  1.00  0.00    -0.253 A  
HETATM   20  C   UNL     1     -10.534  20.084  66.456  1.00  0.00    -0.525 A  
HETATM   21  C   UNL     1      -8.853  19.430  68.062  1.00  0.00    -0.369 A  
HETATM   22  C   UNL     1      -9.685  20.408  67.503  1.00  0.00    -0.571 A  
HETATM   23  C   UNL     1     -10.539  18.786  65.962  1.00  0.00    -0.442 A  
BRANCH  19  24
HETATM   24  C   UNL     1      -7.880  17.120  68.212  1.00  0.00    -0.227 A  
HETATM   25  C   UNL     1      -6.488  17.155  68.004  1.00  0.00    -0.151 A  
HETATM   26  C   UNL     1      -5.627  16.216  68.587  1.00  0.00    -0.105 A  
HETATM   27  C   UNL     1      -6.140  15.188  69.369  1.00  0.00    -0.112 A  
HETATM   28  C   UNL     1      -7.510  15.115  69.587  1.00  0.00    -0.181 A  
HETATM   29  C   UNL     1      -8.362  16.075  69.030  1.00  0.00    -0.243 A  
ENDBRANCH  19  24
ENDBRANCH  17  18
ENDBRANCH  13  14
ENDBRANCH  10  13
ENDBRANCH   6   7
ENDBRANCH   5   6
ENDBRANCH   2   5
BRANCH   4  30
HETATM   30  C   UNL     1     -10.510   8.052  70.119  1.00  0.00    -0.225 A  
HETATM   31  C   UNL     1      -9.275   8.098  69.454  1.00  0.00    -0.155 A  
HETATM   32  C   UNL     1     -11.213   6.844  70.127  1.00  0.00    -0.361 A  
HETATM   33  C   UNL     1     -10.629   5.674  69.640  1.00  0.00    -0.401 A  
HETATM   34  C   UNL     1      -8.715   6.939  68.903  1.00  0.00    -0.130 A  
HETATM   35  C   UNL     1      -9.372   5.709  69.026  1.00  0.00    -0.150 A  
BRANCH  35  36
HETATM   36  C   UNL     1      -8.766   4.433  68.478  1.00  0.00    -0.096 C  
BRANCH  36  37
HETATM   37  N   UNL     1      -9.611   3.798  67.454  1.00  0.00    -0.192 NA 
HETATM   38  C   UNL     1      -8.914   2.724  66.740  1.00  0.00    -0.152 C  
HETATM   39  C   UNL     1     -10.210   4.758  66.514  1.00  0.00    -0.259 C  
HETATM   40  C   UNL     1      -9.212   5.332  65.504  1.00  0.00    -0.122 C  
HETATM   41  C   UNL     1      -7.867   3.226  65.743  1.00  0.00    -0.085 C  
HETATM   42  C   UNL     1      -8.468   4.225  64.748  1.00  0.00    -0.119 C  
BRANCH  42  43
HETATM   43  C   UNL     1      -9.378   3.540  63.728  1.00  0.00    -0.124 C  
HETATM   44  N   UNL     1     -10.331   4.332  63.163  1.00  0.00    -0.404 N  
HETATM   45  H2  UNL     1     -10.431   5.318  63.404  1.00  0.00     0.000 HD 
HETATM   46  O   UNL     1      -9.321   2.352  63.429  1.00  0.00    -0.092 OA 
HETATM   47  H1  UNL     1     -10.938   3.875  62.482  1.00  0.00     0.000 HD 
ENDBRANCH  42  43
ENDBRANCH  36  37
ENDBRANCH  35  36
ENDBRANCH   4  30
TORSDOF 11
ENDMDL
MODEL       39
REMARK 921   NORMALIZED FREE ENERGY PREDICTED BY IDOCK:   -6.63 KCAL/MOL
REMARK 922        TOTAL FREE ENERGY PREDICTED BY IDOCK:  -12.52 KCAL/MOL
REMARK 923 INTER-LIGAND FREE ENERGY PREDICTED BY IDOCK:  -10.01 KCAL/MOL
REMARK 924 INTRA-LIGAND FREE ENERGY PREDICTED BY IDOCK:   -2.51 KCAL/MOL
REMARK 927      BINDING AFFINITY PREDICTED BY RF-SCORE:    0.00 PKD
ROOT
HETATM    1  C   UNL     1      -6.902   9.736  64.965  1.00  0.00    -0.115 C  
HETATM    2  N   UNL     1      -7.734  10.561  65.828  1.00  0.00    -0.147 N  
HETATM    3  O   UNL     1      -9.550  10.030  64.503  1.00  0.00    -0.293 OA 
HETATM    4  C   UNL     1      -9.110  10.598  65.505  1.00  0.00    -0.190 C  
ENDROOT
BRANCH   2   5
HETATM    5  C   UNL     1      -7.216  11.043  67.110  1.00  0.00    -0.112 C  
BRANCH   5   6
HETATM    6  C   UNL     1      -7.687  10.436  68.442  1.00  0.00    -0.098 C  
BRANCH   6   7
HETATM    7  N   UNL     1      -6.673   9.507  68.995  1.00  0.00    -0.050 NA 
HETATM    8  C   UNL     1      -6.811   8.147  68.454  1.00  0.00    -0.068 C  
HETATM    9  C   UNL     1      -6.640   9.450  70.466  1.00  0.00    -0.084 C  
HETATM   10  C   UNL     1      -8.127   7.431  70.507  1.00  0.00    -0.104 C  
HETATM   11  C   UNL     1      -7.910   8.844  71.056  1.00  0.00    -0.164 C  
HETATM   12  C   UNL     1      -8.045   7.409  68.977  1.00  0.00    -0.127 C  
BRANCH  10  13
HETATM   13  O   UNL     1      -7.103   6.554  71.018  1.00  0.00    -0.066 OA 
BRANCH  13  14
HETATM   14  C   UNL     1      -7.511   5.713  72.006  1.00  0.00    -0.095 C  
HETATM   15  H   UNL     1      -8.252   4.540  70.467  1.00  0.00     0.000 HD 
HETATM   16  O   UNL     1      -7.206   5.825  73.182  1.00  0.00    -0.087 OA 
HETATM   17  N   UNL     1      -8.316   4.752  71.462  1.00  0.00    -0.107 N  
BRANCH  17  18
HETATM   18  C   UNL     1      -9.233   4.054  72.273  1.00  0.00    -0.121 A  
HETATM   19  C   UNL     1     -10.481   4.613  72.630  1.00  0.00    -0.258 A  
HETATM   20  C   UNL     1      -9.704   1.998  73.472  1.00  0.00    -0.120 A  
HETATM   21  C   UNL     1     -11.318   3.794  73.421  1.00  0.00    -0.224 A  
HETATM   22  C   UNL     1     -10.945   2.505  73.825  1.00  0.00    -0.300 A  
HETATM   23  C   UNL     1      -8.844   2.774  72.706  1.00  0.00    -0.095 A  
BRANCH  19  24
HETATM   24  C   UNL     1     -10.960   5.967  72.214  1.00  0.00    -0.313 A  
HETATM   25  C   UNL     1     -10.947   7.077  73.078  1.00  0.00    -0.327 A  
HETATM   26  C   UNL     1     -11.419   8.334  72.677  1.00  0.00    -0.423 A  
HETATM   27  C   UNL     1     -11.952   8.509  71.407  1.00  0.00    -0.345 A  
HETATM   28  C   UNL     1     -11.992   7.432  70.530  1.00  0.00    -0.140 A  
HETATM   29  C   UNL     1     -11.489   6.187  70.924  1.00  0.00    -0.317 A  
ENDBRANCH  19  24
ENDBRANCH  17  18
ENDBRANCH  13  14
ENDBRANCH  10  13
ENDBRANCH   6   7
ENDBRANCH   5   6
ENDBRANCH   2   5
BRANCH   4  30
HETATM   30  C   UNL     1     -10.107  11.245  66.421  1.00  0.00    -0.260 A  
HETATM   31  C   UNL     1     -10.716  10.443  67.398  1.00  0.00    -0.338 A  
HETATM   32  C   UNL     1     -10.463  12.595  66.356  1.00  0.00    -0.267 A  
HETATM   33  C   UNL     1     -11.267  13.170  67.341  1.00  0.00    -0.319 A  
HETATM   34  C   UNL     1     -11.578  11.004  68.349  1.00  0.00    -0.372 A  
HETATM   35  C   UNL     1     -11.830  12.381  68.350  1.00  0.00    -0.361 A  
BRANCH  35  36
HETATM   36  C   UNL     1     -12.723  13.018  69.395  1.00  0.00     0.682 C  
BRANCH  36  37
HETATM   37  N   UNL     1     -11.983  13.428  70.599  1.00  0.00    -0.280 NA 
HETATM   38  C   UNL     1     -12.586  12.910  71.831  1.00  0.00     0.031 C  
HETATM   39  C   UNL     1     -11.766  14.880  70.685  1.00  0.00    -0.303 C  
HETATM   40  C   UNL     1     -13.027  15.669  71.048  1.00  0.00    -0.518 C  
HETATM   41  C   UNL     1     -13.880  13.625  72.230  1.00  0.00    -0.689 C  
HETATM   42  C   UNL     1     -13.678  15.141  72.332  1.00  0.00    -0.600 C  
BRANCH  42  43
HETATM   43  C   UNL     1     -12.865  15.529  73.567  1.00  0.00    -0.560 C  
HETATM   44  N   UNL     1     -13.016  16.815  73.992  1.00  0.00    -0.459 N  
HETATM   45  H2  UNL     1     -13.631  17.475  73.516  1.00  0.00     0.000 HD 
HETATM   46  O   UNL     1     -12.088  14.783  74.154  1.00  0.00    -0.510 OA 
HETATM   47  H1  UNL     1     -12.474  17.073  74.817  1.00  0.00     0.000 HD 
ENDBRANCH  42  43
ENDBRANCH  36  37
ENDBRANCH  35  36
ENDBRANCH   4  30
TORSDOF 11
ENDMDL
MODEL       40
REMARK 921   NORMALIZED FREE ENERGY PREDICTED BY IDOCK:   -6.55 KCAL/MOL
REMARK 922        TOTAL FREE ENERGY PREDICTED BY IDOCK:  -12.39 KCAL/MOL
REMARK 923 INTER-LIGAND FREE ENERGY PREDICTED BY IDOCK:   -8.06 KCAL/MOL
REMARK 924 INTRA-LIGAND FREE ENERGY PREDICTED BY IDOCK:   -4.34 KCAL/MOL
REMARK 927      BINDING AFFINITY PREDICTED BY RF-SCORE:    0.00 PKD
ROOT
HETATM    1  C   UNL     1     -10.363   6.931  74.052  1.00  0.00    -0.320 C  
HETATM    2  N   UNL     1      -9.921   6.511  72.730  1.00  0.00    -0.170 N  
HETATM    3  O   UNL     1     -12.119   6.036  72.200  1.00  0.00    -0.304 OA 
HETATM    4  C   UNL     1     -10.941   6.105  71.840  1.00  0.00    -0.263 C  
ENDROOT
BRANCH   2   5
HETATM    5  C   UNL     1      -8.559   6.803  72.281  1.00  0.00    -0.120 C  
BRANCH   5   6
HETATM    6  C   UNL     1      -8.109   8.240  71.972  1.00  0.00    -0.141 C  
BRANCH   6   7
HETATM    7  N   UNL     1      -6.855   8.250  71.180  1.00  0.00    -0.048 NA 
HETATM    8  C   UNL     1      -6.324   9.608  70.996  1.00  0.00    -0.063 C  
HETATM    9  C   UNL     1      -6.957   7.580  69.873  1.00  0.00    -0.059 C  
HETATM   10  C   UNL     1      -7.404   9.752  68.700  1.00  0.00    -0.074 C  
HETATM   11  C   UNL     1      -7.888   8.314  68.911  1.00  0.00    -0.111 C  
HETATM   12  C   UNL     1      -7.158  10.460  70.036  1.00  0.00    -0.155 C  
BRANCH  10  13
HETATM   13  O   UNL     1      -6.160   9.737  67.971  1.00  0.00    -0.053 OA 
BRANCH  13  14
HETATM   14  C   UNL     1      -6.286   9.558  66.628  1.00  0.00    -0.066 C  
HETATM   15  H   UNL     1      -7.141  11.446  66.629  1.00  0.00     0.000 HD 
HETATM   16  O   UNL     1      -5.795   8.632  66.002  1.00  0.00    -0.046 OA 
HETATM   17  N   UNL     1      -7.053  10.567  66.119  1.00  0.00    -0.130 N  
BRANCH  17  18
HETATM   18  C   UNL     1      -7.725  10.397  64.891  1.00  0.00    -0.084 A  
HETATM   19  C   UNL     1      -9.127  10.540  64.789  1.00  0.00    -0.242 A  
HETATM   20  C   UNL     1      -7.502   9.937  62.520  1.00  0.00    -0.126 A  
HETATM   21  C   UNL     1      -9.669  10.373  63.495  1.00  0.00    -0.333 A  
HETATM   22  C   UNL     1      -8.873  10.090  62.377  1.00  0.00    -0.263 A  
HETATM   23  C   UNL     1      -6.929  10.080  63.777  1.00  0.00    -0.124 A  
BRANCH  19  24
HETATM   24  C   UNL     1     -10.038  10.869  65.928  1.00  0.00    -0.307 A  
HETATM   25  C   UNL     1     -10.579  12.153  66.123  1.00  0.00    -0.290 A  
HETATM   26  C   UNL     1     -11.415  12.450  67.207  1.00  0.00    -0.421 A  
HETATM   27  C   UNL     1     -11.707  11.474  68.152  1.00  0.00    -0.357 A  
HETATM   28  C   UNL     1     -11.182  10.196  67.998  1.00  0.00    -0.247 A  
HETATM   29  C   UNL     1     -10.374   9.898  66.895  1.00  0.00    -0.300 A  
ENDBRANCH  19  24
ENDBRANCH  17  18
ENDBRANCH  13  14
ENDBRANCH  10  13
ENDBRANCH   6   7
ENDBRANCH   5   6
ENDBRANCH   2   5
BRANCH   4  30
HETATM   30  C   UNL     1     -10.650   5.838  70.392  1.00  0.00    -0.365 A  
HETATM   31  C   UNL     1      -9.881   4.708  70.076  1.00  0.00    -0.294 A  
HETATM   32  C   UNL     1     -11.100   6.647  69.345  1.00  0.00    -0.365 A  
HETATM   33  C   UNL     1     -10.939   6.252  68.017  1.00  0.00    -0.418 A  
HETATM   34  C   UNL     1      -9.659   4.344  68.742  1.00  0.00    -0.224 A  
HETATM   35  C   UNL     1     -10.220   5.094  67.701  1.00  0.00    -0.197 A  
BRANCH  35  36
HETATM   36  C   UNL     1     -10.032   4.696  66.252  1.00  0.00    -0.247 C  
BRANCH  36  37
HETATM   37  N   UNL     1      -8.618   4.489  65.900  1.00  0.00    -0.114 NA 
HETATM   38  C   UNL     1      -7.841   5.731  65.946  1.00  0.00    -0.101 C  
HETATM   39  C   UNL     1      -8.431   3.794  64.617  1.00  0.00    -0.097 C  
HETATM   40  C   UNL     1      -8.729   4.668  63.396  1.00  0.00    -0.132 C  
HETATM   41  C   UNL     1      -8.123   6.677  64.775  1.00  0.00    -0.099 C  
HETATM   42  C   UNL     1      -7.931   5.977  63.425  1.00  0.00    -0.112 C  
BRANCH  42  43
HETATM   43  C   UNL     1      -6.454   5.734  63.113  1.00  0.00    -0.028 C  
HETATM   44  N   UNL     1      -5.592   6.689  63.562  1.00  0.00    -0.030 N  
HETATM   45  H2  UNL     1      -5.912   7.512  64.073  1.00  0.00     0.000 HD 
HETATM   46  O   UNL     1      -6.023   4.780  62.474  1.00  0.00    -0.013 OA 
HETATM   47  H1  UNL     1      -4.607   6.527  63.354  1.00  0.00     0.000 HD 
ENDBRANCH  42  43
ENDBRANCH  36  37
ENDBRANCH  35  36
ENDBRANCH   4  30
TORSDOF 11
ENDMDL
MODEL       41
REMARK 921   NORMALIZED FREE ENERGY PREDICTED BY IDOCK:   -6.53 KCAL/MOL
REMARK 922        TOTAL FREE ENERGY PREDICTED BY IDOCK:  -12.37 KCAL/MOL
REMARK 923 INTER-LIGAND FREE ENERGY PREDICTED BY IDOCK:  -10.63 KCAL/MOL
REMARK 924 INTRA-LIGAND FREE ENERGY PREDICTED BY IDOCK:   -1.74 KCAL/MOL
REMARK 927      BINDING AFFINITY PREDICTED BY RF-SCORE:    0.00 PKD
ROOT
HETATM    1  C   UNL     1     -12.241  10.987  69.516  1.00  0.00    -0.282 C  
HETATM    2  N   UNL     1     -11.642  11.942  68.596  1.00  0.00    -0.285 N  
HETATM    3  O   UNL     1     -11.775  13.547  70.252  1.00  0.00    -0.266 OA 
HETATM    4  C   UNL     1     -11.410  13.236  69.116  1.00  0.00    -0.282 C  
ENDROOT
BRANCH   2   5
HETATM    5  C   UNL     1     -11.041  11.481  67.344  1.00  0.00    -0.282 C  
BRANCH   5   6
HETATM    6  C   UNL     1     -10.920   9.983  67.018  1.00  0.00    -0.049 C  
BRANCH   6   7
HETATM    7  N   UNL     1      -9.545   9.490  67.271  1.00  0.00    -0.146 NA 
HETATM    8  C   UNL     1      -9.217   8.312  66.455  1.00  0.00    -0.187 C  
HETATM    9  C   UNL     1      -9.253   9.205  68.686  1.00  0.00    -0.136 C  
HETATM   10  C   UNL     1      -9.788   6.772  68.394  1.00  0.00    -0.136 C  
HETATM   11  C   UNL     1     -10.063   8.029  69.224  1.00  0.00    -0.198 C  
HETATM   12  C   UNL     1      -9.953   7.045  66.896  1.00  0.00    -0.283 C  
BRANCH  10  13
HETATM   13  O   UNL     1      -8.431   6.337  68.617  1.00  0.00    -0.121 OA 
BRANCH  13  14
HETATM   14  C   UNL     1      -8.301   5.284  69.469  1.00  0.00    -0.095 C  
HETATM   15  H   UNL     1     -10.250   4.828  68.933  1.00  0.00     0.000 HD 
HETATM   16  O   UNL     1      -7.254   4.944  69.996  1.00  0.00    -0.052 OA 
HETATM   17  N   UNL     1      -9.523   4.699  69.637  1.00  0.00    -0.144 N  
BRANCH  17  18
HETATM   18  C   UNL     1      -9.784   3.917  70.781  1.00  0.00    -0.185 A  
HETATM   19  C   UNL     1     -10.383   4.469  71.935  1.00  0.00    -0.198 A  
HETATM   20  C   UNL     1      -9.678   1.707  71.777  1.00  0.00    -0.200 A  
HETATM   21  C   UNL     1     -10.616   3.568  72.998  1.00  0.00    -0.251 A  
HETATM   22  C   UNL     1     -10.283   2.209  72.918  1.00  0.00    -0.218 A  
HETATM   23  C   UNL     1      -9.419   2.561  70.713  1.00  0.00    -0.210 A  
BRANCH  19  24
HETATM   24  C   UNL     1     -10.793   5.900  72.083  1.00  0.00    -0.290 A  
HETATM   25  C   UNL     1     -12.028   6.389  71.619  1.00  0.00    -0.347 A  
HETATM   26  C   UNL     1     -12.388   7.737  71.748  1.00  0.00    -0.346 A  
HETATM   27  C   UNL     1     -11.503   8.645  72.317  1.00  0.00    -0.423 A  
HETATM   28  C   UNL     1     -10.270   8.200  72.776  1.00  0.00    -0.372 A  
HETATM   29  C   UNL     1      -9.930   6.847  72.674  1.00  0.00    -0.191 A  
ENDBRANCH  19  24
ENDBRANCH  17  18
ENDBRANCH  13  14
ENDBRANCH  10  13
ENDBRANCH   6   7
ENDBRANCH   5   6
ENDBRANCH   2   5
BRANCH   4  30
HETATM   30  C   UNL     1     -10.622  14.255  68.346  1.00  0.00    -0.255 A  
HETATM   31  C   UNL     1     -11.324  15.318  67.758  1.00  0.00    -0.331 A  
HETATM   32  C   UNL     1      -9.235  14.206  68.183  1.00  0.00    -0.194 A  
HETATM   33  C   UNL     1      -8.546  15.271  67.602  1.00  0.00    -0.178 A  
HETATM   34  C   UNL     1     -10.640  16.357  67.113  1.00  0.00    -0.276 A  
HETATM   35  C   UNL     1      -9.241  16.359  67.065  1.00  0.00    -0.236 A  
BRANCH  35  36
HETATM   36  C   UNL     1      -8.477  17.493  66.412  1.00  0.00    -0.252 C  
BRANCH  36  37
HETATM   37  N   UNL     1      -8.446  18.707  67.244  1.00  0.00    -0.263 NA 
HETATM   38  C   UNL     1      -7.470  19.690  66.763  1.00  0.00    -0.244 C  
HETATM   39  C   UNL     1      -8.256  18.429  68.676  1.00  0.00    -0.294 C  
HETATM   40  C   UNL     1      -6.830  18.003  69.035  1.00  0.00    -0.250 C  
HETATM   41  C   UNL     1      -6.016  19.306  67.049  1.00  0.00    -0.177 C  
HETATM   42  C   UNL     1      -5.792  19.015  68.538  1.00  0.00    -0.227 C  
BRANCH  42  43
HETATM   43  C   UNL     1      -5.812  20.292  69.379  1.00  0.00    -0.325 C  
HETATM   44  N   UNL     1      -5.196  21.372  68.823  1.00  0.00    -0.470 N  
HETATM   45  H2  UNL     1      -4.751  21.332  67.906  1.00  0.00     0.000 HD 
HETATM   46  O   UNL     1      -6.304  20.382  70.499  1.00  0.00    -0.482 OA 
HETATM   47  H1  UNL     1      -5.210  22.225  69.384  1.00  0.00     0.000 HD 
ENDBRANCH  42  43
ENDBRANCH  36  37
ENDBRANCH  35  36
ENDBRANCH   4  30
TORSDOF 11
ENDMDL
MODEL       42
REMARK 921   NORMALIZED FREE ENERGY PREDICTED BY IDOCK:   -6.52 KCAL/MOL
REMARK 922        TOTAL FREE ENERGY PREDICTED BY IDOCK:  -12.35 KCAL/MOL
REMARK 923 INTER-LIGAND FREE ENERGY PREDICTED BY IDOCK:  -10.04 KCAL/MOL
REMARK 924 INTRA-LIGAND FREE ENERGY PREDICTED BY IDOCK:   -2.32 KCAL/MOL
REMARK 927      BINDING AFFINITY PREDICTED BY RF-SCORE:    0.00 PKD
ROOT
HETATM    1  C   UNL     1     -11.139   5.390  73.474  1.00  0.00    -0.216 C  
HETATM    2  N   UNL     1     -10.912   6.711  72.908  1.00  0.00    -0.256 N  
HETATM    3  O   UNL     1     -12.891   6.496  71.736  1.00  0.00    -0.293 OA 
HETATM    4  C   UNL     1     -11.924   7.194  72.047  1.00  0.00    -0.295 C  
ENDROOT
BRANCH   2   5
HETATM    5  C   UNL     1      -9.870   7.579  73.457  1.00  0.00    -0.317 C  
BRANCH   5   6
HETATM    6  C   UNL     1      -8.430   7.539  72.920  1.00  0.00    -0.125 C  
BRANCH   6   7
HETATM    7  N   UNL     1      -8.199   6.329  72.095  1.00  0.00    -0.109 NA 
HETATM    8  C   UNL     1      -6.903   5.698  72.383  1.00  0.00    -0.077 C  
HETATM    9  C   UNL     1      -8.327   6.550  70.644  1.00  0.00    -0.133 C  
HETATM   10  C   UNL     1      -5.852   6.872  70.389  1.00  0.00    -0.024 C  
HETATM   11  C   UNL     1      -7.235   7.463  70.094  1.00  0.00    -0.070 C  
HETATM   12  C   UNL     1      -5.708   6.504  71.869  1.00  0.00    -0.036 C  
BRANCH  10  13
HETATM   13  O   UNL     1      -5.668   5.671  69.614  1.00  0.00    -0.011 OA 
BRANCH  13  14
HETATM   14  C   UNL     1      -5.940   5.800  68.287  1.00  0.00    -0.017 C  
HETATM   15  H   UNL     1      -7.603   4.631  68.688  1.00  0.00     0.000 HD 
HETATM   16  O   UNL     1      -5.344   6.545  67.526  1.00  0.00    -0.004 OA 
HETATM   17  N   UNL     1      -6.965   4.957  67.963  1.00  0.00    -0.060 N  
BRANCH  17  18
HETATM   18  C   UNL     1      -7.142   4.536  66.629  1.00  0.00    -0.071 A  
HETATM   19  C   UNL     1      -7.979   5.241  65.736  1.00  0.00    -0.105 A  
HETATM   20  C   UNL     1      -6.524   2.922  64.927  1.00  0.00    -0.034 A  
HETATM   21  C   UNL     1      -8.043   4.729  64.420  1.00  0.00    -0.110 A  
HETATM   22  C   UNL     1      -7.320   3.599  64.017  1.00  0.00    -0.059 A  
HETATM   23  C   UNL     1      -6.442   3.383  66.235  1.00  0.00    -0.036 A  
BRANCH  19  24
HETATM   24  C   UNL     1      -8.758   6.470  66.083  1.00  0.00    -0.153 A  
HETATM   25  C   UNL     1      -8.318   7.766  65.758  1.00  0.00    -0.140 A  
HETATM   26  C   UNL     1      -9.051   8.907  66.109  1.00  0.00    -0.251 A  
HETATM   27  C   UNL     1     -10.233   8.786  66.829  1.00  0.00    -0.354 A  
HETATM   28  C   UNL     1     -10.692   7.522  67.178  1.00  0.00    -0.379 A  
HETATM   29  C   UNL     1      -9.973   6.384  66.796  1.00  0.00    -0.225 A  
ENDBRANCH  19  24
ENDBRANCH  17  18
ENDBRANCH  13  14
ENDBRANCH  10  13
ENDBRANCH   6   7
ENDBRANCH   5   6
ENDBRANCH   2   5
BRANCH   4  30
HETATM   30  C   UNL     1     -11.915   8.611  71.553  1.00  0.00    -0.362 A  
HETATM   31  C   UNL     1     -10.953   8.965  70.594  1.00  0.00    -0.287 A  
HETATM   32  C   UNL     1     -12.807   9.594  71.992  1.00  0.00    -0.497 A  
HETATM   33  C   UNL     1     -12.855  10.843  71.372  1.00  0.00    -0.554 A  
HETATM   34  C   UNL     1     -10.955  10.242  70.018  1.00  0.00    -0.371 A  
HETATM   35  C   UNL     1     -11.932  11.178  70.376  1.00  0.00    -0.469 A  
BRANCH  35  36
HETATM   36  C   UNL     1     -11.981  12.550  69.733  1.00  0.00    -0.289 C  
BRANCH  36  37
HETATM   37  N   UNL     1     -10.819  12.814  68.872  1.00  0.00    -0.226 NA 
HETATM   38  C   UNL     1     -10.557  14.248  68.707  1.00  0.00    -0.252 C  
HETATM   39  C   UNL     1     -10.891  12.137  67.568  1.00  0.00    -0.243 C  
HETATM   40  C   UNL     1     -11.899  12.768  66.603  1.00  0.00    -0.462 C  
HETATM   41  C   UNL     1     -11.557  14.955  67.788  1.00  0.00    -0.358 C  
HETATM   42  C   UNL     1     -11.647  14.269  66.420  1.00  0.00    -0.381 C  
BRANCH  42  43
HETATM   43  C   UNL     1     -10.403  14.525  65.569  1.00  0.00    -0.359 C  
HETATM   44  N   UNL     1     -10.144  13.592  64.610  1.00  0.00    -0.630 N  
HETATM   45  H2  UNL     1     -10.740  12.776  64.470  1.00  0.00     0.000 HD 
HETATM   46  O   UNL     1      -9.636  15.470  65.720  1.00  0.00    -0.337 OA 
HETATM   47  H1  UNL     1      -9.313  13.762  64.042  1.00  0.00     0.000 HD 
ENDBRANCH  42  43
ENDBRANCH  36  37
ENDBRANCH  35  36
ENDBRANCH   4  30
TORSDOF 11
ENDMDL
MODEL       43
REMARK 921   NORMALIZED FREE ENERGY PREDICTED BY IDOCK:   -6.49 KCAL/MOL
REMARK 922        TOTAL FREE ENERGY PREDICTED BY IDOCK:  -12.30 KCAL/MOL
REMARK 923 INTER-LIGAND FREE ENERGY PREDICTED BY IDOCK:  -11.84 KCAL/MOL
REMARK 924 INTRA-LIGAND FREE ENERGY PREDICTED BY IDOCK:   -0.46 KCAL/MOL
REMARK 927      BINDING AFFINITY PREDICTED BY RF-SCORE:    0.00 PKD
ROOT
HETATM    1  C   UNL     1      -7.352   8.036  63.778  1.00  0.00    -0.102 C  
HETATM    2  N   UNL     1      -8.070   7.726  65.005  1.00  0.00    -0.137 N  
HETATM    3  O   UNL     1      -6.727   5.864  65.262  1.00  0.00    -0.042 OA 
HETATM    4  C   UNL     1      -7.618   6.587  65.711  1.00  0.00    -0.085 C  
ENDROOT
BRANCH   2   5
HETATM    5  C   UNL     1      -8.969   8.714  65.603  1.00  0.00    -0.182 C  
BRANCH   5   6
HETATM    6  C   UNL     1      -9.882   9.594  64.734  1.00  0.00     0.085 C  
BRANCH   6   7
HETATM    7  N   UNL     1      -9.209  10.863  64.365  1.00  0.00    -0.210 NA 
HETATM    8  C   UNL     1      -8.905  11.694  65.539  1.00  0.00     0.113 C  
HETATM    9  C   UNL     1      -9.934  11.667  63.367  1.00  0.00    -0.425 C  
HETATM   10  C   UNL     1     -11.009  13.065  65.151  1.00  0.00    -0.295 C  
HETATM   11  C   UNL     1     -11.255  12.211  63.903  1.00  0.00    -0.485 C  
HETATM   12  C   UNL     1     -10.148  12.321  66.175  1.00  0.00    -0.265 C  
BRANCH  10  13
HETATM   13  O   UNL     1     -10.311  14.270  64.777  1.00  0.00    -0.433 OA 
BRANCH  13  14
HETATM   14  C   UNL     1      -9.836  15.002  65.820  1.00  0.00    -0.353 C  
HETATM   15  H   UNL     1     -11.818  15.508  66.148  1.00  0.00     0.000 HD 
HETATM   16  O   UNL     1      -8.684  14.969  66.223  1.00  0.00    -0.216 OA 
HETATM   17  N   UNL     1     -10.848  15.774  66.315  1.00  0.00    -0.278 N  
BRANCH  17  18
HETATM   18  C   UNL     1     -10.555  16.938  67.055  1.00  0.00    -0.230 A  
HETATM   19  C   UNL     1     -10.739  16.990  68.455  1.00  0.00    -0.361 A  
HETATM   20  C   UNL     1      -9.717  19.213  66.983  1.00  0.00    -0.389 A  
HETATM   21  C   UNL     1     -10.378  18.206  69.077  1.00  0.00    -0.135 A  
HETATM   22  C   UNL     1      -9.863  19.294  68.359  1.00  0.00    -0.492 A  
HETATM   23  C   UNL     1     -10.071  18.040  66.329  1.00  0.00    -0.363 A  
BRANCH  19  24
HETATM   24  C   UNL     1     -11.253  15.863  69.292  1.00  0.00    -0.335 A  
HETATM   25  C   UNL     1     -11.467  14.570  68.778  1.00  0.00    -0.322 A  
HETATM   26  C   UNL     1     -11.969  13.530  69.572  1.00  0.00    -0.390 A  
HETATM   27  C   UNL     1     -12.305  13.764  70.900  1.00  0.00    -0.456 A  
HETATM   28  C   UNL     1     -12.118  15.031  71.438  1.00  0.00    -0.396 A  
HETATM   29  C   UNL     1     -11.586  16.057  70.650  1.00  0.00    -0.409 A  
ENDBRANCH  19  24
ENDBRANCH  17  18
ENDBRANCH  13  14
ENDBRANCH  10  13
ENDBRANCH   6   7
ENDBRANCH   5   6
ENDBRANCH   2   5
BRANCH   4  30
HETATM   30  C   UNL     1      -8.133   6.268  67.085  1.00  0.00    -0.109 A  
HETATM   31  C   UNL     1      -7.562   6.946  68.173  1.00  0.00    -0.108 A  
HETATM   32  C   UNL     1      -9.145   5.339  67.340  1.00  0.00    -0.112 A  
HETATM   33  C   UNL     1      -9.693   5.212  68.617  1.00  0.00    -0.210 A  
HETATM   34  C   UNL     1      -8.064   6.770  69.468  1.00  0.00    -0.126 A  
HETATM   35  C   UNL     1      -9.161   5.930  69.694  1.00  0.00    -0.145 A  
BRANCH  35  36
HETATM   36  C   UNL     1      -9.751   5.759  71.078  1.00  0.00    -0.170 C  
BRANCH  36  37
HETATM   37  N   UNL     1     -11.191   6.058  71.122  1.00  0.00    -0.286 NA 
HETATM   38  C   UNL     1     -11.596   7.015  70.087  1.00  0.00    -0.225 C  
HETATM   39  C   UNL     1     -11.659   6.485  72.449  1.00  0.00    -0.255 C  
HETATM   40  C   UNL     1     -11.232   7.907  72.824  1.00  0.00    -0.466 C  
HETATM   41  C   UNL     1     -11.161   8.454  70.374  1.00  0.00    -0.240 C  
HETATM   42  C   UNL     1     -11.641   8.924  71.752  1.00  0.00    -0.422 C  
BRANCH  42  43
HETATM   43  C   UNL     1     -13.148   9.180  71.775  1.00  0.00    -0.392 C  
HETATM   44  N   UNL     1     -13.651   9.832  70.690  1.00  0.00    -0.539 N  
HETATM   45  H2  UNL     1     -13.061  10.130  69.913  1.00  0.00     0.000 HD 
HETATM   46  O   UNL     1     -13.895   8.873  72.699  1.00  0.00    -0.445 OA 
HETATM   47  H1  UNL     1     -14.657  10.003  70.705  1.00  0.00     0.000 HD 
ENDBRANCH  42  43
ENDBRANCH  36  37
ENDBRANCH  35  36
ENDBRANCH   4  30
TORSDOF 11
ENDMDL
MODEL       44
REMARK 921   NORMALIZED FREE ENERGY PREDICTED BY IDOCK:   -6.46 KCAL/MOL
REMARK 922        TOTAL FREE ENERGY PREDICTED BY IDOCK:  -12.24 KCAL/MOL
REMARK 923 INTER-LIGAND FREE ENERGY PREDICTED BY IDOCK:  -10.48 KCAL/MOL
REMARK 924 INTRA-LIGAND FREE ENERGY PREDICTED BY IDOCK:   -1.77 KCAL/MOL
REMARK 927      BINDING AFFINITY PREDICTED BY RF-SCORE:    0.00 PKD
ROOT
HETATM    1  C   UNL     1      -5.400  10.628  65.707  1.00  0.00    -0.115 C  
HETATM    2  N   UNL     1      -6.523  10.623  66.632  1.00  0.00    -0.091 N  
HETATM    3  O   UNL     1      -7.046   8.492  65.909  1.00  0.00    -0.073 OA 
HETATM    4  C   UNL     1      -7.281   9.430  66.674  1.00  0.00    -0.086 C  
ENDROOT
BRANCH   2   5
HETATM    5  C   UNL     1      -6.639  11.662  67.657  1.00  0.00    -0.082 C  
BRANCH   5   6
HETATM    6  C   UNL     1      -5.777  12.934  67.608  1.00  0.00    -0.130 C  
BRANCH   6   7
HETATM    7  N   UNL     1      -6.552  14.085  67.086  1.00  0.00    -0.056 NA 
HETATM    8  C   UNL     1      -6.198  15.344  67.757  1.00  0.00    -0.159 C  
HETATM    9  C   UNL     1      -8.012  13.902  67.123  1.00  0.00    -0.050 C  
HETATM   10  C   UNL     1      -8.193  15.112  69.313  1.00  0.00    -0.216 C  
HETATM   11  C   UNL     1      -8.557  13.836  68.548  1.00  0.00    -0.122 C  
HETATM   12  C   UNL     1      -6.697  15.423  69.201  1.00  0.00    -0.138 C  
BRANCH  10  13
HETATM   13  O   UNL     1      -8.920  16.227  68.758  1.00  0.00    -0.220 OA 
BRANCH  13  14
HETATM   14  C   UNL     1     -10.078  16.532  69.403  1.00  0.00    -0.230 C  
HETATM   15  H   UNL     1      -9.394  15.252  70.882  1.00  0.00     0.000 HD 
HETATM   16  O   UNL     1     -10.859  17.402  69.051  1.00  0.00    -0.181 OA 
HETATM   17  N   UNL     1     -10.215  15.704  70.480  1.00  0.00    -0.027 N  
BRANCH  17  18
HETATM   18  C   UNL     1     -11.489  15.470  71.038  1.00  0.00    -0.383 A  
HETATM   19  C   UNL     1     -12.391  14.548  70.461  1.00  0.00    -0.403 A  
HETATM   20  C   UNL     1     -13.029  16.001  72.835  1.00  0.00    -0.555 A  
HETATM   21  C   UNL     1     -13.621  14.388  71.138  1.00  0.00    -0.338 A  
HETATM   22  C   UNL     1     -13.932  15.089  72.310  1.00  0.00    -0.611 A  
HETATM   23  C   UNL     1     -11.813  16.199  72.195  1.00  0.00    -0.626 A  
BRANCH  19  24
HETATM   24  C   UNL     1     -12.121  13.743  69.231  1.00  0.00    -0.374 A  
HETATM   25  C   UNL     1     -11.761  12.383  69.277  1.00  0.00    -0.386 A  
HETATM   26  C   UNL     1     -11.492  11.648  68.114  1.00  0.00    -0.382 A  
HETATM   27  C   UNL     1     -11.540  12.264  66.870  1.00  0.00    -0.427 A  
HETATM   28  C   UNL     1     -11.881  13.609  66.787  1.00  0.00    -0.452 A  
HETATM   29  C   UNL     1     -12.181  14.329  67.949  1.00  0.00    -0.185 A  
ENDBRANCH  19  24
ENDBRANCH  17  18
ENDBRANCH  13  14
ENDBRANCH  10  13
ENDBRANCH   6   7
ENDBRANCH   5   6
ENDBRANCH   2   5
BRANCH   4  30
HETATM   30  C   UNL     1      -8.337   9.214  67.718  1.00  0.00    -0.117 A  
HETATM   31  C   UNL     1      -9.527   8.582  67.325  1.00  0.00    -0.199 A  
HETATM   32  C   UNL     1      -8.205   9.606  69.052  1.00  0.00    -0.113 A  
HETATM   33  C   UNL     1      -9.150   9.226  70.006  1.00  0.00    -0.229 A  
HETATM   34  C   UNL     1     -10.511   8.259  68.268  1.00  0.00    -0.211 A  
HETATM   35  C   UNL     1     -10.311   8.546  69.624  1.00  0.00    -0.218 A  
BRANCH  35  36
HETATM   36  C   UNL     1     -11.340   8.166  70.669  1.00  0.00    -0.249 C  
BRANCH  36  37
HETATM   37  N   UNL     1     -11.634   6.725  70.678  1.00  0.00    -0.349 NA 
HETATM   38  C   UNL     1     -12.159   6.267  71.968  1.00  0.00    -0.266 C  
HETATM   39  C   UNL     1     -10.501   5.895  70.243  1.00  0.00    -0.261 C  
HETATM   40  C   UNL     1      -9.380   5.792  71.281  1.00  0.00    -0.166 C  
HETATM   41  C   UNL     1     -11.099   6.184  73.070  1.00  0.00    -0.250 C  
HETATM   42  C   UNL     1      -9.907   5.319  72.641  1.00  0.00    -0.188 C  
BRANCH  42  43
HETATM   43  C   UNL     1     -10.260   3.832  72.614  1.00  0.00    -0.167 C  
HETATM   44  N   UNL     1     -11.042   3.394  73.641  1.00  0.00    -0.234 N  
HETATM   45  H2  UNL     1     -11.370   4.018  74.378  1.00  0.00     0.000 HD 
HETATM   46  O   UNL     1      -9.865   3.035  71.770  1.00  0.00    -0.164 OA 
HETATM   47  H1  UNL     1     -11.278   2.402  73.623  1.00  0.00     0.000 HD 
ENDBRANCH  42  43
ENDBRANCH  36  37
ENDBRANCH  35  36
ENDBRANCH   4  30
TORSDOF 11
ENDMDL
MODEL       45
REMARK 921   NORMALIZED FREE ENERGY PREDICTED BY IDOCK:   -6.38 KCAL/MOL
REMARK 922        TOTAL FREE ENERGY PREDICTED BY IDOCK:  -12.12 KCAL/MOL
REMARK 923 INTER-LIGAND FREE ENERGY PREDICTED BY IDOCK:  -11.69 KCAL/MOL
REMARK 924 INTRA-LIGAND FREE ENERGY PREDICTED BY IDOCK:   -0.44 KCAL/MOL
REMARK 927      BINDING AFFINITY PREDICTED BY RF-SCORE:    0.00 PKD
ROOT
HETATM    1  C   UNL     1     -12.917  10.869  71.421  1.00  0.00    -0.424 C  
HETATM    2  N   UNL     1     -11.933   9.993  70.804  1.00  0.00    -0.313 N  
HETATM    3  O   UNL     1     -12.149   8.562  72.605  1.00  0.00    -0.378 OA 
HETATM    4  C   UNL     1     -11.650   8.797  71.502  1.00  0.00    -0.303 C  
ENDROOT
BRANCH   2   5
HETATM    5  C   UNL     1     -11.527  10.205  69.414  1.00  0.00    -0.142 C  
BRANCH   5   6
HETATM    6  C   UNL     1     -10.924  11.541  68.951  1.00  0.00    -0.229 C  
BRANCH   6   7
HETATM    7  N   UNL     1     -11.788  12.196  67.938  1.00  0.00    -0.490 NA 
HETATM    8  C   UNL     1     -11.374  11.877  66.564  1.00  0.00    -0.341 C  
HETATM    9  C   UNL     1     -11.903  13.656  68.091  1.00  0.00    -0.372 C  
HETATM   10  C   UNL     1     -10.083  14.061  66.414  1.00  0.00    -0.294 C  
HETATM   11  C   UNL     1     -10.584  14.377  67.826  1.00  0.00    -0.246 C  
HETATM   12  C   UNL     1     -10.063  12.551  66.154  1.00  0.00    -0.265 C  
BRANCH  10  13
HETATM   13  O   UNL     1     -10.963  14.665  65.445  1.00  0.00    -0.316 OA 
BRANCH  13  14
HETATM   14  C   UNL     1     -10.729  15.984  65.205  1.00  0.00    -0.409 C  
HETATM   15  H   UNL     1      -9.141  15.768  66.518  1.00  0.00     0.000 HD 
HETATM   16  O   UNL     1     -11.297  16.644  64.349  1.00  0.00    -1.023 OA 
HETATM   17  N   UNL     1      -9.780  16.430  66.079  1.00  0.00    -0.323 N  
BRANCH  17  18
HETATM   18  C   UNL     1      -9.681  17.805  66.377  1.00  0.00    -0.308 A  
HETATM   19  C   UNL     1      -8.625  18.317  67.163  1.00  0.00    -0.249 A  
HETATM   20  C   UNL     1     -10.642  20.009  66.058  1.00  0.00    -0.472 A  
HETATM   21  C   UNL     1      -8.628  19.717  67.359  1.00  0.00    -0.353 A  
HETATM   22  C   UNL     1      -9.609  20.551  66.807  1.00  0.00    -0.450 A  
HETATM   23  C   UNL     1     -10.685  18.637  65.851  1.00  0.00    -0.274 A  
BRANCH  19  24
HETATM   24  C   UNL     1      -7.527  17.496  67.760  1.00  0.00    -0.197 A  
HETATM   25  C   UNL     1      -7.741  16.595  68.819  1.00  0.00    -0.233 A  
HETATM   26  C   UNL     1      -6.697  15.847  69.380  1.00  0.00    -0.189 A  
HETATM   27  C   UNL     1      -5.397  16.006  68.917  1.00  0.00    -0.107 A  
HETATM   28  C   UNL     1      -5.145  16.895  67.879  1.00  0.00    -0.119 A  
HETATM   29  C   UNL     1      -6.198  17.614  67.301  1.00  0.00    -0.172 A  
ENDBRANCH  19  24
ENDBRANCH  17  18
ENDBRANCH  13  14
ENDBRANCH  10  13
ENDBRANCH   6   7
ENDBRANCH   5   6
ENDBRANCH   2   5
BRANCH   4  30
HETATM   30  C   UNL     1     -10.809   7.716  70.886  1.00  0.00    -0.250 A  
HETATM   31  C   UNL     1     -11.464   6.711  70.158  1.00  0.00    -0.444 A  
HETATM   32  C   UNL     1      -9.417   7.655  70.996  1.00  0.00    -0.164 A  
HETATM   33  C   UNL     1      -8.683   6.723  70.262  1.00  0.00    -0.144 A  
HETATM   34  C   UNL     1     -10.733   5.732  69.474  1.00  0.00    -0.408 A  
HETATM   35  C   UNL     1      -9.333   5.754  69.489  1.00  0.00    -0.157 A  
BRANCH  35  36
HETATM   36  C   UNL     1      -8.520   4.733  68.720  1.00  0.00    -0.081 C  
BRANCH  36  37
HETATM   37  N   UNL     1      -7.710   5.341  67.653  1.00  0.00    -0.091 NA 
HETATM   38  C   UNL     1      -8.479   6.284  66.835  1.00  0.00    -0.109 C  
HETATM   39  C   UNL     1      -7.016   4.354  66.812  1.00  0.00    -0.063 C  
HETATM   40  C   UNL     1      -7.943   3.609  65.847  1.00  0.00    -0.093 C  
HETATM   41  C   UNL     1      -9.462   5.608  65.875  1.00  0.00    -0.087 C  
HETATM   42  C   UNL     1      -8.760   4.577  64.984  1.00  0.00    -0.138 C  
BRANCH  42  43
HETATM   43  C   UNL     1      -7.890   5.241  63.916  1.00  0.00    -0.098 C  
HETATM   44  N   UNL     1      -8.475   6.265  63.234  1.00  0.00    -0.328 N  
HETATM   45  H2  UNL     1      -9.430   6.568  63.423  1.00  0.00     0.000 HD 
HETATM   46  O   UNL     1      -6.750   4.892  63.629  1.00  0.00    -0.039 OA 
HETATM   47  H1  UNL     1      -7.894   6.709  62.522  1.00  0.00     0.000 HD 
ENDBRANCH  42  43
ENDBRANCH  36  37
ENDBRANCH  35  36
ENDBRANCH   4  30
TORSDOF 11
ENDMDL
MODEL       46
REMARK 921   NORMALIZED FREE ENERGY PREDICTED BY IDOCK:   -6.38 KCAL/MOL
REMARK 922        TOTAL FREE ENERGY PREDICTED BY IDOCK:  -12.12 KCAL/MOL
REMARK 923 INTER-LIGAND FREE ENERGY PREDICTED BY IDOCK:  -11.23 KCAL/MOL
REMARK 924 INTRA-LIGAND FREE ENERGY PREDICTED BY IDOCK:   -0.89 KCAL/MOL
REMARK 927      BINDING AFFINITY PREDICTED BY RF-SCORE:    0.00 PKD
ROOT
HETATM    1  C   UNL     1     -11.461  16.601  68.350  1.00  0.00    -0.023 C  
HETATM    2  N   UNL     1     -11.506  15.201  68.747  1.00  0.00    -0.301 N  
HETATM    3  O   UNL     1     -12.353  15.860  70.793  1.00  0.00    -0.406 OA 
HETATM    4  C   UNL     1     -12.034  14.943  70.033  1.00  0.00    -0.329 C  
ENDROOT
BRANCH   2   5
HETATM    5  C   UNL     1     -11.317  14.146  67.751  1.00  0.00    -0.306 C  
BRANCH   5   6
HETATM    6  C   UNL     1     -12.214  14.050  66.506  1.00  0.00    -0.451 C  
BRANCH   6   7
HETATM    7  N   UNL     1     -12.300  12.653  66.015  1.00  0.00    -0.569 NA 
HETATM    8  C   UNL     1     -11.085  11.882  66.316  1.00  0.00    -0.314 C  
HETATM    9  C   UNL     1     -12.615  12.532  64.581  1.00  0.00    -0.426 C  
HETATM   10  C   UNL     1     -10.190  12.317  63.978  1.00  0.00    -0.373 C  
HETATM   11  C   UNL     1     -11.497  13.063  63.690  1.00  0.00    -0.449 C  
HETATM   12  C   UNL     1      -9.876  12.302  65.477  1.00  0.00    -0.223 C  
BRANCH  10  13
HETATM   13  O   UNL     1     -10.312  10.950  63.537  1.00  0.00    -0.352 OA 
BRANCH  13  14
HETATM   14  C   UNL     1      -9.162  10.397  63.065  1.00  0.00    -0.295 C  
HETATM   15  H   UNL     1      -9.995   8.589  63.640  1.00  0.00     0.000 HD 
HETATM   16  O   UNL     1      -8.307  11.003  62.439  1.00  0.00    -0.247 OA 
HETATM   17  N   UNL     1      -9.128   9.079  63.420  1.00  0.00     0.143 N  
BRANCH  17  18
HETATM   18  C   UNL     1      -7.897   8.393  63.484  1.00  0.00    -0.152 A  
HETATM   19  C   UNL     1      -7.081   8.444  64.636  1.00  0.00    -0.080 A  
HETATM   20  C   UNL     1      -6.352   6.916  62.337  1.00  0.00    -0.047 A  
HETATM   21  C   UNL     1      -5.889   7.687  64.578  1.00  0.00    -0.037 A  
HETATM   22  C   UNL     1      -5.536   6.925  63.457  1.00  0.00    -0.032 A  
HETATM   23  C   UNL     1      -7.527   7.657  62.345  1.00  0.00    -0.098 A  
BRANCH  19  24
HETATM   24  C   UNL     1      -7.405   9.208  65.880  1.00  0.00    -0.094 A  
HETATM   25  C   UNL     1      -6.530  10.158  66.438  1.00  0.00    -0.082 A  
HETATM   26  C   UNL     1      -6.841  10.852  67.615  1.00  0.00    -0.081 A  
HETATM   27  C   UNL     1      -8.026  10.587  68.290  1.00  0.00    -0.113 A  
HETATM   28  C   UNL     1      -8.910   9.647  67.775  1.00  0.00    -0.125 A  
HETATM   29  C   UNL     1      -8.609   8.982  66.580  1.00  0.00    -0.134 A  
ENDBRANCH  19  24
ENDBRANCH  17  18
ENDBRANCH  13  14
ENDBRANCH  10  13
ENDBRANCH   6   7
ENDBRANCH   5   6
ENDBRANCH   2   5
BRANCH   4  30
HETATM   30  C   UNL     1     -12.321  13.543  70.490  1.00  0.00    -0.412 A  
HETATM   31  C   UNL     1     -11.777  12.485  69.744  1.00  0.00    -0.355 A  
HETATM   32  C   UNL     1     -13.096  13.233  71.611  1.00  0.00    -0.453 A  
HETATM   33  C   UNL     1     -13.185  11.921  72.078  1.00  0.00    -0.461 A  
HETATM   34  C   UNL     1     -11.922  11.160  70.172  1.00  0.00    -0.449 A  
HETATM   35  C   UNL     1     -12.595  10.871  71.365  1.00  0.00    -0.508 A  
BRANCH  35  36
HETATM   36  C   UNL     1     -12.725   9.450  71.872  1.00  0.00    -0.401 C  
BRANCH  36  37
HETATM   37  N   UNL     1     -11.422   8.793  72.059  1.00  0.00    -0.361 NA 
HETATM   38  C   UNL     1     -10.680   8.652  70.802  1.00  0.00    -0.216 C  
HETATM   39  C   UNL     1     -11.512   7.507  72.767  1.00  0.00    -0.300 C  
HETATM   40  C   UNL     1     -12.093   6.375  71.915  1.00  0.00    -0.362 C  
HETATM   41  C   UNL     1     -11.236   7.566  69.877  1.00  0.00    -0.124 C  
HETATM   42  C   UNL     1     -11.335   6.213  70.592  1.00  0.00    -0.368 C  
BRANCH  42  43
HETATM   43  C   UNL     1      -9.961   5.581  70.812  1.00  0.00    -0.201 C  
HETATM   44  N   UNL     1      -9.257   5.294  69.681  1.00  0.00    -0.114 N  
HETATM   45  H2  UNL     1      -9.623   5.488  68.749  1.00  0.00     0.000 HD 
HETATM   46  O   UNL     1      -9.490   5.297  71.909  1.00  0.00    -0.143 OA 
HETATM   47  H1  UNL     1      -8.340   4.872  69.828  1.00  0.00     0.000 HD 
ENDBRANCH  42  43
ENDBRANCH  36  37
ENDBRANCH  35  36
ENDBRANCH   4  30
TORSDOF 11
ENDMDL
MODEL       47
REMARK 921   NORMALIZED FREE ENERGY PREDICTED BY IDOCK:   -6.37 KCAL/MOL
REMARK 922        TOTAL FREE ENERGY PREDICTED BY IDOCK:  -12.09 KCAL/MOL
REMARK 923 INTER-LIGAND FREE ENERGY PREDICTED BY IDOCK:  -10.29 KCAL/MOL
REMARK 924 INTRA-LIGAND FREE ENERGY PREDICTED BY IDOCK:   -1.81 KCAL/MOL
REMARK 927      BINDING AFFINITY PREDICTED BY RF-SCORE:    0.00 PKD
ROOT
HETATM    1  C   UNL     1      -5.821   5.652  62.618  1.00  0.00    -0.014 C  
HETATM    2  N   UNL     1      -6.860   6.428  63.279  1.00  0.00    -0.043 N  
HETATM    3  O   UNL     1      -5.848   8.353  62.500  1.00  0.00    -0.081 OA 
HETATM    4  C   UNL     1      -6.786   7.829  63.105  1.00  0.00    -0.071 C  
ENDROOT
BRANCH   2   5
HETATM    5  C   UNL     1      -8.055   5.764  63.803  1.00  0.00    -0.108 C  
BRANCH   5   6
HETATM    6  C   UNL     1      -7.950   4.601  64.803  1.00  0.00    -0.096 C  
BRANCH   6   7
HETATM    7  N   UNL     1      -9.216   4.426  65.555  1.00  0.00    -0.141 NA 
HETATM    8  C   UNL     1      -9.648   5.668  66.213  1.00  0.00    -0.147 C  
HETATM    9  C   UNL     1      -9.192   3.331  66.538  1.00  0.00    -0.154 C  
HETATM   10  C   UNL     1      -8.610   4.904  68.403  1.00  0.00    -0.097 C  
HETATM   11  C   UNL     1      -8.230   3.601  67.691  1.00  0.00    -0.091 C  
HETATM   12  C   UNL     1      -8.774   6.056  67.408  1.00  0.00    -0.104 C  
BRANCH  10  13
HETATM   13  O   UNL     1      -9.866   4.727  69.088  1.00  0.00    -0.175 OA 
BRANCH  13  14
HETATM   14  C   UNL     1      -9.870   5.126  70.388  1.00  0.00    -0.218 C  
HETATM   15  H   UNL     1      -9.234   6.955  69.653  1.00  0.00     0.000 HD 
HETATM   16  O   UNL     1     -10.322   4.470  71.313  1.00  0.00    -0.145 OA 
HETATM   17  N   UNL     1      -9.279   6.354  70.475  1.00  0.00    -0.158 N  
BRANCH  17  18
HETATM   18  C   UNL     1      -8.732   6.793  71.698  1.00  0.00    -0.126 A  
HETATM   19  C   UNL     1      -9.340   7.820  72.454  1.00  0.00    -0.224 A  
HETATM   20  C   UNL     1      -6.971   6.496  73.339  1.00  0.00    -0.077 A  
HETATM   21  C   UNL     1      -8.706   8.142  73.675  1.00  0.00    -0.309 A  
HETATM   22  C   UNL     1      -7.551   7.485  74.118  1.00  0.00    -0.163 A  
HETATM   23  C   UNL     1      -7.554   6.156  72.126  1.00  0.00    -0.096 A  
BRANCH  19  24
HETATM   24  C   UNL     1     -10.587   8.546  72.062  1.00  0.00    -0.408 A  
HETATM   25  C   UNL     1     -10.582   9.652  71.192  1.00  0.00    -0.327 A  
HETATM   26  C   UNL     1     -11.758  10.332  70.850  1.00  0.00    -0.472 A  
HETATM   27  C   UNL     1     -12.974   9.947  71.400  1.00  0.00    -0.504 A  
HETATM   28  C   UNL     1     -13.017   8.866  72.273  1.00  0.00    -0.479 A  
HETATM   29  C   UNL     1     -11.843   8.169  72.584  1.00  0.00    -0.389 A  
ENDBRANCH  19  24
ENDBRANCH  17  18
ENDBRANCH  13  14
ENDBRANCH  10  13
ENDBRANCH   6   7
ENDBRANCH   5   6
ENDBRANCH   2   5
BRANCH   4  30
HETATM   30  C   UNL     1      -7.896   8.730  63.561  1.00  0.00    -0.149 A  
HETATM   31  C   UNL     1      -8.164   8.795  64.937  1.00  0.00    -0.160 A  
HETATM   32  C   UNL     1      -8.676   9.504  62.697  1.00  0.00    -0.233 A  
HETATM   33  C   UNL     1      -9.576  10.445  63.198  1.00  0.00    -0.346 A  
HETATM   34  C   UNL     1      -9.116   9.690  65.439  1.00  0.00    -0.265 A  
HETATM   35  C   UNL     1      -9.803  10.551  64.574  1.00  0.00    -0.401 A  
BRANCH  35  36
HETATM   36  C   UNL     1     -10.805  11.559  65.097  1.00  0.00    -0.265 C  
BRANCH  36  37
HETATM   37  N   UNL     1     -10.171  12.643  65.864  1.00  0.00    -0.269 NA 
HETATM   38  C   UNL     1      -9.991  12.298  67.278  1.00  0.00    -0.204 C  
HETATM   39  C   UNL     1     -10.853  13.938  65.718  1.00  0.00    -0.289 C  
HETATM   40  C   UNL     1     -12.182  14.021  66.474  1.00  0.00    -0.485 C  
HETATM   41  C   UNL     1     -11.290  12.316  68.087  1.00  0.00    -0.349 C  
HETATM   42  C   UNL     1     -12.018  13.660  67.954  1.00  0.00    -0.382 C  
BRANCH  42  43
HETATM   43  C   UNL     1     -11.307  14.774  68.724  1.00  0.00    -0.282 C  
HETATM   44  N   UNL     1     -10.822  14.426  69.948  1.00  0.00    -0.457 N  
HETATM   45  H2  UNL     1     -10.926  13.485  70.327  1.00  0.00     0.000 HD 
HETATM   46  O   UNL     1     -11.185  15.928  68.327  1.00  0.00    -0.334 OA 
HETATM   47  H1  UNL     1     -10.347  15.169  70.462  1.00  0.00     0.000 HD 
ENDBRANCH  42  43
ENDBRANCH  36  37
ENDBRANCH  35  36
ENDBRANCH   4  30
TORSDOF 11
ENDMDL
MODEL       48
REMARK 921   NORMALIZED FREE ENERGY PREDICTED BY IDOCK:   -6.36 KCAL/MOL
REMARK 922        TOTAL FREE ENERGY PREDICTED BY IDOCK:  -12.08 KCAL/MOL
REMARK 923 INTER-LIGAND FREE ENERGY PREDICTED BY IDOCK:  -11.62 KCAL/MOL
REMARK 924 INTRA-LIGAND FREE ENERGY PREDICTED BY IDOCK:   -0.46 KCAL/MOL
REMARK 927      BINDING AFFINITY PREDICTED BY RF-SCORE:    0.00 PKD
ROOT
HETATM    1  C   UNL     1     -11.485  16.399  68.081  1.00  0.00    -0.108 C  
HETATM    2  N   UNL     1     -11.491  15.015  68.531  1.00  0.00    -0.303 N  
HETATM    3  O   UNL     1     -12.379  15.723  70.542  1.00  0.00    -0.402 OA 
HETATM    4  C   UNL     1     -12.024  14.789  69.820  1.00  0.00    -0.321 C  
ENDROOT
BRANCH   2   5
HETATM    5  C   UNL     1     -11.259  13.929  67.577  1.00  0.00    -0.303 C  
BRANCH   5   6
HETATM    6  C   UNL     1     -12.080  13.812  66.282  1.00  0.00    -0.446 C  
BRANCH   6   7
HETATM    7  N   UNL     1     -12.228  12.396  65.868  1.00  0.00    -0.632 NA 
HETATM    8  C   UNL     1     -11.303  11.507  66.585  1.00  0.00    -0.214 C  
HETATM    9  C   UNL     1     -12.101  12.171  64.418  1.00  0.00    -0.357 C  
HETATM   10  C   UNL     1      -9.674  11.578  64.636  1.00  0.00    -0.212 C  
HETATM   11  C   UNL     1     -10.693  12.456  63.903  1.00  0.00    -0.465 C  
HETATM   12  C   UNL     1      -9.844  11.676  66.155  1.00  0.00    -0.250 C  
BRANCH  10  13
HETATM   13  O   UNL     1      -9.866  10.201  64.256  1.00  0.00    -0.315 OA 
BRANCH  13  14
HETATM   14  C   UNL     1      -8.944   9.336  64.757  1.00  0.00    -0.168 C  
HETATM   15  H   UNL     1     -10.532   8.515  65.804  1.00  0.00     0.000 HD 
HETATM   16  O   UNL     1      -7.791   9.246  64.364  1.00  0.00    -0.113 OA 
HETATM   17  N   UNL     1      -9.518   8.613  65.764  1.00  0.00    -0.174 N  
BRANCH  17  18
HETATM   18  C   UNL     1      -8.712   8.002  66.747  1.00  0.00    -0.133 A  
HETATM   19  C   UNL     1      -8.358   6.637  66.669  1.00  0.00    -0.117 A  
HETATM   20  C   UNL     1      -7.448   8.314  68.794  1.00  0.00    -0.096 A  
HETATM   21  C   UNL     1      -7.521   6.160  67.704  1.00  0.00    -0.088 A  
HETATM   22  C   UNL     1      -7.062   6.984  68.740  1.00  0.00    -0.089 A  
HETATM   23  C   UNL     1      -8.280   8.822  67.804  1.00  0.00    -0.111 A  
BRANCH  19  24
HETATM   24  C   UNL     1      -8.782   5.704  65.581  1.00  0.00    -0.151 A  
HETATM   25  C   UNL     1      -8.148   5.661  64.326  1.00  0.00    -0.127 A  
HETATM   26  C   UNL     1      -8.572   4.794  63.310  1.00  0.00    -0.127 A  
HETATM   27  C   UNL     1      -9.670   3.966  63.510  1.00  0.00    -0.157 A  
HETATM   28  C   UNL     1     -10.329   3.990  64.733  1.00  0.00    -0.212 A  
HETATM   29  C   UNL     1      -9.880   4.834  65.755  1.00  0.00    -0.214 A  
ENDBRANCH  19  24
ENDBRANCH  17  18
ENDBRANCH  13  14
ENDBRANCH  10  13
ENDBRANCH   6   7
ENDBRANCH   5   6
ENDBRANCH   2   5
BRANCH   4  30
HETATM   30  C   UNL     1     -12.274  13.398  70.327  1.00  0.00    -0.405 A  
HETATM   31  C   UNL     1     -11.657  12.334  69.651  1.00  0.00    -0.348 A  
HETATM   32  C   UNL     1     -13.081  13.104  71.429  1.00  0.00    -0.352 A  
HETATM   33  C   UNL     1     -13.136  11.811  71.950  1.00  0.00    -0.482 A  
HETATM   34  C   UNL     1     -11.765  11.023  70.132  1.00  0.00    -0.442 A  
HETATM   35  C   UNL     1     -12.475  10.758  71.309  1.00  0.00    -0.504 A  
BRANCH  35  36
HETATM   36  C   UNL     1     -12.569   9.355  71.873  1.00  0.00    -0.401 C  
BRANCH  36  37
HETATM   37  N   UNL     1     -11.249   8.755  72.124  1.00  0.00    -0.362 NA 
HETATM   38  C   UNL     1     -10.474   8.570  70.893  1.00  0.00    -0.203 C  
HETATM   39  C   UNL     1     -11.312   7.509  72.902  1.00  0.00    -0.304 C  
HETATM   40  C   UNL     1     -11.835   6.311  72.104  1.00  0.00    -0.365 C  
HETATM   41  C   UNL     1     -10.972   7.415  70.020  1.00  0.00    -0.264 C  
HETATM   42  C   UNL     1     -11.041   6.102  70.809  1.00  0.00    -0.375 C  
BRANCH  42  43
HETATM   43  C   UNL     1      -9.652   5.531  71.094  1.00  0.00    -0.162 C  
HETATM   44  N   UNL     1      -9.265   4.498  70.294  1.00  0.00    -0.107 N  
HETATM   45  H2  UNL     1      -9.863   4.130  69.555  1.00  0.00     0.000 HD 
HETATM   46  O   UNL     1      -8.910   5.917  71.991  1.00  0.00    -0.137 OA 
HETATM   47  H1  UNL     1      -8.337   4.117  70.484  1.00  0.00     0.000 HD 
ENDBRANCH  42  43
ENDBRANCH  36  37
ENDBRANCH  35  36
ENDBRANCH   4  30
TORSDOF 11
ENDMDL
MODEL       49
REMARK 921   NORMALIZED FREE ENERGY PREDICTED BY IDOCK:   -6.35 KCAL/MOL
REMARK 922        TOTAL FREE ENERGY PREDICTED BY IDOCK:  -12.06 KCAL/MOL
REMARK 923 INTER-LIGAND FREE ENERGY PREDICTED BY IDOCK:   -9.49 KCAL/MOL
REMARK 924 INTRA-LIGAND FREE ENERGY PREDICTED BY IDOCK:   -2.58 KCAL/MOL
REMARK 927      BINDING AFFINITY PREDICTED BY RF-SCORE:    0.00 PKD
ROOT
HETATM    1  C   UNL     1      -9.645   1.843  73.980  1.00  0.00    -0.075 C  
HETATM    2  N   UNL     1      -9.347   2.850  72.974  1.00  0.00    -0.089 N  
HETATM    3  O   UNL     1      -7.294   1.844  72.644  1.00  0.00    -0.030 OA 
HETATM    4  C   UNL     1      -8.102   2.715  72.317  1.00  0.00    -0.055 C  
ENDROOT
BRANCH   2   5
HETATM    5  C   UNL     1     -10.406   3.729  72.475  1.00  0.00    -0.132 C  
BRANCH   5   6
HETATM    6  C   UNL     1     -10.389   5.241  72.754  1.00  0.00    -0.196 C  
BRANCH   6   7
HETATM    7  N   UNL     1     -10.207   6.014  71.501  1.00  0.00    -0.199 NA 
HETATM    8  C   UNL     1      -9.412   7.233  71.711  1.00  0.00    -0.150 C  
HETATM    9  C   UNL     1     -11.462   6.358  70.813  1.00  0.00    -0.353 C  
HETATM   10  C   UNL     1     -11.531   8.623  71.889  1.00  0.00    -0.348 C  
HETATM   11  C   UNL     1     -12.317   7.338  71.611  1.00  0.00    -0.387 C  
HETATM   12  C   UNL     1     -10.157   8.316  72.492  1.00  0.00    -0.376 C  
BRANCH  10  13
HETATM   13  O   UNL     1     -11.323   9.335  70.653  1.00  0.00    -0.255 OA 
BRANCH  13  14
HETATM   14  C   UNL     1     -12.218  10.330  70.408  1.00  0.00    -0.261 C  
HETATM   15  H   UNL     1     -10.575  11.591  70.470  1.00  0.00     0.000 HD 
HETATM   16  O   UNL     1     -13.391  10.153  70.120  1.00  0.00     0.035 OA 
HETATM   17  N   UNL     1     -11.589  11.534  70.554  1.00  0.00    -0.146 N  
BRANCH  17  18
HETATM   18  C   UNL     1     -12.339  12.697  70.822  1.00  0.00    -0.283 A  
HETATM   19  C   UNL     1     -12.265  13.834  69.986  1.00  0.00    -0.407 A  
HETATM   20  C   UNL     1     -13.970  13.754  72.275  1.00  0.00    -0.672 A  
HETATM   21  C   UNL     1     -13.091  14.920  70.351  1.00  0.00    -0.206 A  
HETATM   22  C   UNL     1     -13.939  14.879  71.466  1.00  0.00    -0.571 A  
HETATM   23  C   UNL     1     -13.164  12.667  71.960  1.00  0.00    -0.531 A  
BRANCH  19  24
HETATM   24  C   UNL     1     -11.408  13.942  68.765  1.00  0.00    -0.310 A  
HETATM   25  C   UNL     1     -10.112  14.488  68.791  1.00  0.00    -0.239 A  
HETATM   26  C   UNL     1      -9.331  14.600  67.633  1.00  0.00    -0.200 A  
HETATM   27  C   UNL     1      -9.840  14.198  66.405  1.00  0.00    -0.308 A  
HETATM   28  C   UNL     1     -11.121  13.665  66.338  1.00  0.00    -0.307 A  
HETATM   29  C   UNL     1     -11.884  13.525  67.503  1.00  0.00    -0.406 A  
ENDBRANCH  19  24
ENDBRANCH  17  18
ENDBRANCH  13  14
ENDBRANCH  10  13
ENDBRANCH   6   7
ENDBRANCH   5   6
ENDBRANCH   2   5
BRANCH   4  30
HETATM   30  C   UNL     1      -7.754   3.561  71.126  1.00  0.00    -0.051 A  
HETATM   31  C   UNL     1      -8.414   3.293  69.917  1.00  0.00    -0.092 A  
HETATM   32  C   UNL     1      -6.816   4.596  71.154  1.00  0.00    -0.032 A  
HETATM   33  C   UNL     1      -6.662   5.450  70.062  1.00  0.00    -0.047 A  
HETATM   34  C   UNL     1      -8.211   4.108  68.796  1.00  0.00    -0.081 A  
HETATM   35  C   UNL     1      -7.362   5.218  68.873  1.00  0.00    -0.070 A  
BRANCH  35  36
HETATM   36  C   UNL     1      -7.161   6.141  67.688  1.00  0.00    -0.079 C  
BRANCH  36  37
HETATM   37  N   UNL     1      -7.513   7.536  67.991  1.00  0.00    -0.102 NA 
HETATM   38  C   UNL     1      -8.947   7.711  68.245  1.00  0.00    -0.127 C  
HETATM   39  C   UNL     1      -7.034   8.492  66.981  1.00  0.00    -0.074 C  
HETATM   40  C   UNL     1      -7.828   8.452  65.672  1.00  0.00    -0.106 C  
HETATM   41  C   UNL     1      -9.809   7.636  66.982  1.00  0.00    -0.282 C  
HETATM   42  C   UNL     1      -9.332   8.628  65.915  1.00  0.00    -0.262 C  
BRANCH  42  43
HETATM   43  C   UNL     1      -9.671  10.072  66.283  1.00  0.00    -0.214 C  
HETATM   44  N   UNL     1     -10.813  10.242  67.007  1.00  0.00    -0.223 N  
HETATM   45  H2  UNL     1     -11.402   9.458  67.285  1.00  0.00     0.000 HD 
HETATM   46  O   UNL     1      -9.014  11.052  65.946  1.00  0.00    -0.186 OA 
HETATM   47  H1  UNL     1     -11.039  11.207  67.254  1.00  0.00     0.000 HD 
ENDBRANCH  42  43
ENDBRANCH  36  37
ENDBRANCH  35  36
ENDBRANCH   4  30
TORSDOF 11
ENDMDL
MODEL       50
REMARK 921   NORMALIZED FREE ENERGY PREDICTED BY IDOCK:   -6.34 KCAL/MOL
REMARK 922        TOTAL FREE ENERGY PREDICTED BY IDOCK:  -12.05 KCAL/MOL
REMARK 923 INTER-LIGAND FREE ENERGY PREDICTED BY IDOCK:   -9.89 KCAL/MOL
REMARK 924 INTRA-LIGAND FREE ENERGY PREDICTED BY IDOCK:   -2.16 KCAL/MOL
REMARK 927      BINDING AFFINITY PREDICTED BY RF-SCORE:    0.00 PKD
ROOT
HETATM    1  C   UNL     1     -10.770   5.715  73.557  1.00  0.00    -0.275 C  
HETATM    2  N   UNL     1     -10.637   6.912  72.740  1.00  0.00    -0.224 N  
HETATM    3  O   UNL     1     -12.806   6.598  72.011  1.00  0.00    -0.287 OA 
HETATM    4  C   UNL     1     -11.787   7.292  72.012  1.00  0.00    -0.296 C  
ENDROOT
BRANCH   2   5
HETATM    5  C   UNL     1      -9.496   7.809  72.929  1.00  0.00    -0.234 C  
BRANCH   5   6
HETATM    6  C   UNL     1      -8.050   7.297  72.834  1.00  0.00    -0.106 C  
BRANCH   6   7
HETATM    7  N   UNL     1      -7.905   6.302  71.744  1.00  0.00    -0.101 NA 
HETATM    8  C   UNL     1      -6.524   5.813  71.618  1.00  0.00    -0.049 C  
HETATM    9  C   UNL     1      -8.384   6.765  70.431  1.00  0.00    -0.130 C  
HETATM   10  C   UNL     1      -6.077   7.466  69.740  1.00  0.00    -0.027 C  
HETATM   11  C   UNL     1      -7.540   7.905  69.869  1.00  0.00    -0.089 C  
HETATM   12  C   UNL     1      -5.561   6.856  71.047  1.00  0.00    -0.027 C  
BRANCH  10  13
HETATM   13  O   UNL     1      -5.966   6.465  68.709  1.00  0.00    -0.019 OA 
BRANCH  13  14
HETATM   14  C   UNL     1      -5.757   6.954  67.457  1.00  0.00    -0.020 C  
HETATM   15  H   UNL     1      -6.554   8.718  68.196  1.00  0.00     0.000 HD 
HETATM   16  O   UNL     1      -5.141   6.371  66.579  1.00  0.00    -0.011 OA 
HETATM   17  N   UNL     1      -6.357   8.176  67.355  1.00  0.00    -0.055 N  
BRANCH  17  18
HETATM   18  C   UNL     1      -6.705   8.692  66.090  1.00  0.00    -0.069 A  
HETATM   19  C   UNL     1      -7.875   8.274  65.417  1.00  0.00    -0.113 A  
HETATM   20  C   UNL     1      -6.118  10.235  64.312  1.00  0.00    -0.121 A  
HETATM   21  C   UNL     1      -8.121   8.893  64.170  1.00  0.00    -0.160 A  
HETATM   22  C   UNL     1      -7.268   9.865  63.632  1.00  0.00    -0.124 A  
HETATM   23  C   UNL     1      -5.831   9.642  65.535  1.00  0.00    -0.061 A  
BRANCH  19  24
HETATM   24  C   UNL     1      -8.848   7.266  65.940  1.00  0.00    -0.136 A  
HETATM   25  C   UNL     1      -8.792   5.904  65.592  1.00  0.00    -0.126 A  
HETATM   26  C   UNL     1      -9.724   4.976  66.076  1.00  0.00    -0.194 A  
HETATM   27  C   UNL     1     -10.764   5.393  66.898  1.00  0.00    -0.264 A  
HETATM   28  C   UNL     1     -10.857   6.733  67.254  1.00  0.00    -0.443 A  
HETATM   29  C   UNL     1      -9.904   7.649  66.794  1.00  0.00    -0.307 A  
ENDBRANCH  19  24
ENDBRANCH  17  18
ENDBRANCH  13  14
ENDBRANCH  10  13
ENDBRANCH   6   7
ENDBRANCH   5   6
ENDBRANCH   2   5
BRANCH   4  30
HETATM   30  C   UNL     1     -11.853   8.606  71.289  1.00  0.00    -0.344 A  
HETATM   31  C   UNL     1     -12.731   9.583  71.783  1.00  0.00    -0.492 A  
HETATM   32  C   UNL     1     -11.092   8.911  70.157  1.00  0.00    -0.217 A  
HETATM   33  C   UNL     1     -11.074  10.205  69.636  1.00  0.00    -0.308 A  
HETATM   34  C   UNL     1     -12.766  10.864  71.219  1.00  0.00    -0.542 A  
HETATM   35  C   UNL     1     -11.909  11.196  70.164  1.00  0.00    -0.449 A  
BRANCH  35  36
HETATM   36  C   UNL     1     -11.896  12.588  69.566  1.00  0.00    -0.310 C  
BRANCH  36  37
HETATM   37  N   UNL     1     -10.856  12.755  68.540  1.00  0.00    -0.246 NA 
HETATM   38  C   UNL     1     -10.338  14.126  68.484  1.00  0.00    -0.249 C  
HETATM   39  C   UNL     1     -11.270  12.291  67.207  1.00  0.00    -0.300 C  
HETATM   40  C   UNL     1     -12.269  13.223  66.514  1.00  0.00    -0.389 C  
HETATM   41  C   UNL     1     -11.307  15.124  67.843  1.00  0.00    -0.346 C  
HETATM   42  C   UNL     1     -11.750  14.664  66.449  1.00  0.00    -0.329 C  
BRANCH  42  43
HETATM   43  C   UNL     1     -10.631  14.806  65.417  1.00  0.00    -0.378 C  
HETATM   44  N   UNL     1     -10.835  14.160  64.235  1.00  0.00    -0.586 N  
HETATM   45  H2  UNL     1     -11.678  13.617  64.051  1.00  0.00     0.000 HD 
HETATM   46  O   UNL     1      -9.584  15.418  65.602  1.00  0.00    -0.335 OA 
HETATM   47  H1  UNL     1     -10.088  14.255  63.546  1.00  0.00     0.000 HD 
ENDBRANCH  42  43
ENDBRANCH  36  37
ENDBRANCH  35  36
ENDBRANCH   4  30
TORSDOF 11
ENDMDL
MODEL       51
REMARK 921   NORMALIZED FREE ENERGY PREDICTED BY IDOCK:   -6.17 KCAL/MOL
REMARK 922        TOTAL FREE ENERGY PREDICTED BY IDOCK:  -11.77 KCAL/MOL
REMARK 923 INTER-LIGAND FREE ENERGY PREDICTED BY IDOCK:   -9.70 KCAL/MOL
REMARK 924 INTRA-LIGAND FREE ENERGY PREDICTED BY IDOCK:   -2.07 KCAL/MOL
REMARK 927      BINDING AFFINITY PREDICTED BY RF-SCORE:    0.00 PKD
ROOT
HETATM    1  C   UNL     1      -5.863   7.914  62.353  1.00  0.00    -0.069 C  
HETATM    2  N   UNL     1      -6.991   8.294  63.191  1.00  0.00    -0.085 N  
HETATM    3  O   UNL     1      -6.150  10.444  63.264  1.00  0.00    -0.144 OA 
HETATM    4  C   UNL     1      -7.049   9.656  63.565  1.00  0.00    -0.108 C  
ENDROOT
BRANCH   2   5
HETATM    5  C   UNL     1      -8.130   7.388  63.348  1.00  0.00    -0.010 C  
BRANCH   5   6
HETATM    6  C   UNL     1      -7.967   6.000  63.989  1.00  0.00    -0.117 C  
BRANCH   6   7
HETATM    7  N   UNL     1      -7.312   6.097  65.316  1.00  0.00    -0.070 NA 
HETATM    8  C   UNL     1      -7.130   4.780  65.944  1.00  0.00    -0.071 C  
HETATM    9  C   UNL     1      -7.986   7.003  66.261  1.00  0.00    -0.114 C  
HETATM   10  C   UNL     1      -9.245   5.107  67.315  1.00  0.00    -0.115 C  
HETATM   11  C   UNL     1      -9.363   6.495  66.677  1.00  0.00    -0.184 C  
HETATM   12  C   UNL     1      -8.439   4.153  66.428  1.00  0.00    -0.108 C  
BRANCH  10  13
HETATM   13  O   UNL     1      -8.564   5.217  68.580  1.00  0.00    -0.089 OA 
BRANCH  13  14
HETATM   14  C   UNL     1      -9.378   5.412  69.653  1.00  0.00    -0.135 C  
HETATM   15  H   UNL     1      -8.209   7.083  70.021  1.00  0.00     0.000 HD 
HETATM   16  O   UNL     1     -10.398   4.780  69.872  1.00  0.00    -0.238 OA 
HETATM   17  N   UNL     1      -8.854   6.406  70.429  1.00  0.00    -0.150 N  
BRANCH  17  18
HETATM   18  C   UNL     1      -9.202   6.500  71.792  1.00  0.00    -0.149 A  
HETATM   19  C   UNL     1      -9.984   7.569  72.284  1.00  0.00    -0.226 A  
HETATM   20  C   UNL     1      -9.066   5.465  73.982  1.00  0.00    -0.118 A  
HETATM   21  C   UNL     1     -10.286   7.524  73.664  1.00  0.00    -0.311 A  
HETATM   22  C   UNL     1      -9.848   6.486  74.497  1.00  0.00    -0.355 A  
HETATM   23  C   UNL     1      -8.734   5.475  72.633  1.00  0.00    -0.123 A  
BRANCH  19  24
HETATM   24  C   UNL     1     -10.512   8.695  71.454  1.00  0.00    -0.327 A  
HETATM   25  C   UNL     1      -9.714   9.401  70.535  1.00  0.00    -0.331 A  
HETATM   26  C   UNL     1     -10.220  10.467  69.779  1.00  0.00    -0.228 A  
HETATM   27  C   UNL     1     -11.536  10.880  69.947  1.00  0.00    -0.402 A  
HETATM   28  C   UNL     1     -12.351  10.213  70.853  1.00  0.00    -0.461 A  
HETATM   29  C   UNL     1     -11.849   9.128  71.581  1.00  0.00    -0.443 A  
ENDBRANCH  19  24
ENDBRANCH  17  18
ENDBRANCH  13  14
ENDBRANCH  10  13
ENDBRANCH   6   7
ENDBRANCH   5   6
ENDBRANCH   2   5
BRANCH   4  30
HETATM   30  C   UNL     1      -8.255  10.222  64.256  1.00  0.00    -0.157 A  
HETATM   31  C   UNL     1      -8.264  10.226  65.660  1.00  0.00    -0.153 A  
HETATM   32  C   UNL     1      -9.364  10.745  63.585  1.00  0.00    -0.301 A  
HETATM   33  C   UNL     1     -10.374  11.408  64.283  1.00  0.00    -0.383 A  
HETATM   34  C   UNL     1      -9.311  10.831  66.366  1.00  0.00    -0.198 A  
HETATM   35  C   UNL     1     -10.356  11.462  65.681  1.00  0.00    -0.307 A  
BRANCH  35  36
HETATM   36  C   UNL     1     -11.476  12.162  66.422  1.00  0.00    -0.370 C  
BRANCH  36  37
HETATM   37  N   UNL     1     -11.434  13.624  66.262  1.00  0.00    -0.323 NA 
HETATM   38  C   UNL     1     -10.068  14.132  66.104  1.00  0.00    -0.313 C  
HETATM   39  C   UNL     1     -12.149  14.349  67.324  1.00  0.00    -0.323 C  
HETATM   40  C   UNL     1     -11.411  14.357  68.666  1.00  0.00    -0.316 C  
HETATM   41  C   UNL     1      -9.254  14.126  67.401  1.00  0.00    -0.204 C  
HETATM   42  C   UNL     1      -9.977  14.880  68.523  1.00  0.00    -0.223 C  
BRANCH  42  43
HETATM   43  C   UNL     1      -9.957  16.393  68.301  1.00  0.00    -0.243 C  
HETATM   44  N   UNL     1      -8.729  16.980  68.362  1.00  0.00    -0.239 N  
HETATM   45  H2  UNL     1      -7.879  16.445  68.544  1.00  0.00     0.000 HD 
HETATM   46  O   UNL     1     -10.952  17.084  68.113  1.00  0.00    -0.367 OA 
HETATM   47  H1  UNL     1      -8.715  17.989  68.214  1.00  0.00     0.000 HD 
ENDBRANCH  42  43
ENDBRANCH  36  37
ENDBRANCH  35  36
ENDBRANCH   4  30
TORSDOF 11
ENDMDL
MODEL       52
REMARK 921   NORMALIZED FREE ENERGY PREDICTED BY IDOCK:   -6.14 KCAL/MOL
REMARK 922        TOTAL FREE ENERGY PREDICTED BY IDOCK:  -11.73 KCAL/MOL
REMARK 923 INTER-LIGAND FREE ENERGY PREDICTED BY IDOCK:   -8.82 KCAL/MOL
REMARK 924 INTRA-LIGAND FREE ENERGY PREDICTED BY IDOCK:   -2.91 KCAL/MOL
REMARK 927      BINDING AFFINITY PREDICTED BY RF-SCORE:    0.00 PKD
ROOT
HETATM    1  C   UNL     1      -5.730   7.674  63.300  1.00  0.00    -0.050 C  
HETATM    2  N   UNL     1      -6.549   8.783  63.766  1.00  0.00    -0.087 N  
HETATM    3  O   UNL     1      -8.325   7.911  62.573  1.00  0.00    -0.151 OA 
HETATM    4  C   UNL     1      -7.900   8.768  63.351  1.00  0.00    -0.148 C  
ENDROOT
BRANCH   2   5
HETATM    5  C   UNL     1      -6.069   9.653  64.842  1.00  0.00    -0.083 C  
BRANCH   5   6
HETATM    6  C   UNL     1      -6.389   9.354  66.316  1.00  0.00    -0.069 C  
BRANCH   6   7
HETATM    7  N   UNL     1      -5.987   7.974  66.681  1.00  0.00    -0.044 NA 
HETATM    8  C   UNL     1      -7.139   7.065  66.770  1.00  0.00    -0.082 C  
HETATM    9  C   UNL     1      -5.190   7.880  67.916  1.00  0.00    -0.032 C  
HETATM   10  C   UNL     1      -7.225   7.370  69.292  1.00  0.00    -0.080 C  
HETATM   11  C   UNL     1      -5.989   8.265  69.158  1.00  0.00    -0.038 C  
HETATM   12  C   UNL     1      -8.027   7.329  67.988  1.00  0.00    -0.119 C  
BRANCH  10  13
HETATM   13  O   UNL     1      -6.810   6.024  69.599  1.00  0.00    -0.060 OA 
BRANCH  13  14
HETATM   14  C   UNL     1      -7.272   5.540  70.783  1.00  0.00    -0.074 C  
HETATM   15  H   UNL     1      -8.554   4.398  69.623  1.00  0.00     0.000 HD 
HETATM   16  O   UNL     1      -6.760   5.760  71.869  1.00  0.00    -0.056 OA 
HETATM   17  N   UNL     1      -8.391   4.794  70.549  1.00  0.00    -0.093 N  
BRANCH  17  18
HETATM   18  C   UNL     1      -9.323   4.569  71.583  1.00  0.00    -0.140 A  
HETATM   19  C   UNL     1     -10.234   5.570  71.988  1.00  0.00    -0.249 A  
HETATM   20  C   UNL     1     -10.212   2.977  73.183  1.00  0.00    -0.221 A  
HETATM   21  C   UNL     1     -11.134   5.202  73.014  1.00  0.00    -0.379 A  
HETATM   22  C   UNL     1     -11.134   3.927  73.593  1.00  0.00    -0.328 A  
HETATM   23  C   UNL     1      -9.300   3.299  72.186  1.00  0.00    -0.181 A  
BRANCH  19  24
HETATM   24  C   UNL     1     -10.314   6.942  71.399  1.00  0.00    -0.219 A  
HETATM   25  C   UNL     1      -9.661   8.052  71.965  1.00  0.00    -0.264 A  
HETATM   26  C   UNL     1      -9.763   9.335  71.411  1.00  0.00    -0.269 A  
HETATM   27  C   UNL     1     -10.553   9.550  70.289  1.00  0.00    -0.317 A  
HETATM   28  C   UNL     1     -11.222   8.480  69.708  1.00  0.00     0.023 A  
HETATM   29  C   UNL     1     -11.090   7.195  70.247  1.00  0.00    -0.303 A  
ENDBRANCH  19  24
ENDBRANCH  17  18
ENDBRANCH  13  14
ENDBRANCH  10  13
ENDBRANCH   6   7
ENDBRANCH   5   6
ENDBRANCH   2   5
BRANCH   4  30
HETATM   30  C   UNL     1      -8.900   9.735  63.916  1.00  0.00    -0.259 A  
HETATM   31  C   UNL     1      -9.463   9.440  65.167  1.00  0.00    -0.255 A  
HETATM   32  C   UNL     1      -9.299  10.908  63.270  1.00  0.00    -0.324 A  
HETATM   33  C   UNL     1     -10.101  11.846  63.922  1.00  0.00    -0.396 A  
HETATM   34  C   UNL     1     -10.323  10.348  65.796  1.00  0.00    -0.257 A  
HETATM   35  C   UNL     1     -10.618  11.577  65.194  1.00  0.00    -0.350 A  
BRANCH  35  36
HETATM   36  C   UNL     1     -11.509  12.595  65.876  1.00  0.00    -0.363 C  
BRANCH  36  37
HETATM   37  N   UNL     1     -10.791  13.827  66.234  1.00  0.00    -0.282 NA 
HETATM   38  C   UNL     1      -9.578  13.563  67.014  1.00  0.00    -0.248 C  
HETATM   39  C   UNL     1     -11.641  14.826  66.900  1.00  0.00    -0.327 C  
HETATM   40  C   UNL     1     -11.990  14.469  68.348  1.00  0.00    -0.309 C  
HETATM   41  C   UNL     1      -9.854  13.153  68.463  1.00  0.00    -0.155 C  
HETATM   42  C   UNL     1     -10.736  14.183  69.181  1.00  0.00    -0.216 C  
BRANCH  42  43
HETATM   43  C   UNL     1      -9.972  15.469  69.496  1.00  0.00    -0.280 C  
HETATM   44  N   UNL     1      -8.646  15.315  69.768  1.00  0.00    -0.388 N  
HETATM   45  H2  UNL     1      -8.192  14.401  69.761  1.00  0.00     0.000 HD 
HETATM   46  O   UNL     1     -10.477  16.586  69.549  1.00  0.00    -0.298 OA 
HETATM   47  H1  UNL     1      -8.136  16.173  69.978  1.00  0.00     0.000 HD 
ENDBRANCH  42  43
ENDBRANCH  36  37
ENDBRANCH  35  36
ENDBRANCH   4  30
TORSDOF 11
ENDMDL
MODEL       53
REMARK 921   NORMALIZED FREE ENERGY PREDICTED BY IDOCK:   -6.09 KCAL/MOL
REMARK 922        TOTAL FREE ENERGY PREDICTED BY IDOCK:  -11.65 KCAL/MOL
REMARK 923 INTER-LIGAND FREE ENERGY PREDICTED BY IDOCK:  -10.74 KCAL/MOL
REMARK 924 INTRA-LIGAND FREE ENERGY PREDICTED BY IDOCK:   -0.91 KCAL/MOL
REMARK 927      BINDING AFFINITY PREDICTED BY RF-SCORE:    0.00 PKD
ROOT
HETATM    1  C   UNL     1      -5.284   8.885  69.328  1.00  0.00    -0.036 C  
HETATM    2  N   UNL     1      -6.095   9.886  68.651  1.00  0.00    -0.042 N  
HETATM    3  O   UNL     1      -6.061  11.149  70.585  1.00  0.00    -0.295 OA 
HETATM    4  C   UNL     1      -6.398  11.044  69.404  1.00  0.00    -0.083 C  
ENDROOT
BRANCH   2   5
HETATM    5  C   UNL     1      -6.294   9.817  67.203  1.00  0.00    -0.068 C  
BRANCH   5   6
HETATM    6  C   UNL     1      -7.147   8.710  66.563  1.00  0.00    -0.080 C  
BRANCH   6   7
HETATM    7  N   UNL     1      -8.453   8.574  67.253  1.00  0.00    -0.122 NA 
HETATM    8  C   UNL     1      -8.345   7.809  68.503  1.00  0.00    -0.129 C  
HETATM    9  C   UNL     1      -9.524   8.004  66.419  1.00  0.00    -0.201 C  
HETATM   10  C   UNL     1      -9.111   5.698  67.314  1.00  0.00    -0.110 C  
HETATM   11  C   UNL     1      -9.264   6.547  66.048  1.00  0.00    -0.077 C  
HETATM   12  C   UNL     1      -8.096   6.316  68.281  1.00  0.00    -0.112 C  
BRANCH  10  13
HETATM   13  O   UNL     1     -10.379   5.619  67.995  1.00  0.00    -0.184 OA 
BRANCH  13  14
HETATM   14  C   UNL     1     -10.314   5.163  69.275  1.00  0.00    -0.178 C  
HETATM   15  H   UNL     1     -11.784   6.568  69.671  1.00  0.00     0.000 HD 
HETATM   16  O   UNL     1      -9.685   4.179  69.629  1.00  0.00    -0.204 OA 
HETATM   17  N   UNL     1     -11.048   5.990  70.076  1.00  0.00    -0.377 N  
BRANCH  17  18
HETATM   18  C   UNL     1     -10.792   6.047  71.461  1.00  0.00    -0.266 A  
HETATM   19  C   UNL     1     -10.992   7.233  72.203  1.00  0.00    -0.274 A  
HETATM   20  C   UNL     1     -10.092   4.819  73.433  1.00  0.00    -0.197 A  
HETATM   21  C   UNL     1     -10.726   7.144  73.587  1.00  0.00    -0.302 A  
HETATM   22  C   UNL     1     -10.297   5.957  74.196  1.00  0.00    -0.295 A  
HETATM   23  C   UNL     1     -10.329   4.865  72.065  1.00  0.00    -0.263 A  
BRANCH  19  24
HETATM   24  C   UNL     1     -11.476   8.527  71.630  1.00  0.00    -0.365 A  
HETATM   25  C   UNL     1     -12.813   8.952  71.735  1.00  0.00    -0.419 A  
HETATM   26  C   UNL     1     -13.253  10.160  71.175  1.00  0.00    -0.438 A  
HETATM   27  C   UNL     1     -12.371  10.962  70.462  1.00  0.00    -0.463 A  
HETATM   28  C   UNL     1     -11.045  10.569  70.328  1.00  0.00    -0.359 A  
HETATM   29  C   UNL     1     -10.604   9.378  70.918  1.00  0.00    -0.390 A  
ENDBRANCH  19  24
ENDBRANCH  17  18
ENDBRANCH  13  14
ENDBRANCH  10  13
ENDBRANCH   6   7
ENDBRANCH   5   6
ENDBRANCH   2   5
BRANCH   4  30
HETATM   30  C   UNL     1      -7.054  12.235  68.769  1.00  0.00    -0.107 A  
HETATM   31  C   UNL     1      -6.245  13.338  68.454  1.00  0.00    -0.086 A  
HETATM   32  C   UNL     1      -8.418  12.309  68.474  1.00  0.00    -0.077 A  
HETATM   33  C   UNL     1      -8.933  13.372  67.733  1.00  0.00    -0.205 A  
HETATM   34  C   UNL     1      -6.773  14.440  67.769  1.00  0.00    -0.191 A  
HETATM   35  C   UNL     1      -8.115  14.447  67.369  1.00  0.00    -0.217 A  
BRANCH  35  36
HETATM   36  C   UNL     1      -8.697  15.607  66.588  1.00  0.00    -0.298 C  
BRANCH  36  37
HETATM   37  N   UNL     1      -8.332  16.914  67.156  1.00  0.00    -0.186 NA 
HETATM   38  C   UNL     1      -8.937  17.143  68.471  1.00  0.00    -0.265 C  
HETATM   39  C   UNL     1      -8.597  18.040  66.248  1.00  0.00    -0.176 C  
HETATM   40  C   UNL     1     -10.083  18.383  66.112  1.00  0.00    -0.376 C  
HETATM   41  C   UNL     1     -10.436  17.447  68.415  1.00  0.00    -0.384 C  
HETATM   42  C   UNL     1     -10.738  18.622  67.478  1.00  0.00    -0.447 C  
BRANCH  42  43
HETATM   43  C   UNL     1     -10.302  19.959  68.078  1.00  0.00    -0.408 C  
HETATM   44  N   UNL     1     -10.408  20.058  69.432  1.00  0.00    -0.545 N  
HETATM   45  H2  UNL     1     -10.756  19.291  70.008  1.00  0.00     0.000 HD 
HETATM   46  O   UNL     1      -9.910  20.921  67.427  1.00  0.00    -0.444 OA 
HETATM   47  H1  UNL     1     -10.117  20.951  69.833  1.00  0.00     0.000 HD 
ENDBRANCH  42  43
ENDBRANCH  36  37
ENDBRANCH  35  36
ENDBRANCH   4  30
TORSDOF 11
ENDMDL
MODEL       54
REMARK 921   NORMALIZED FREE ENERGY PREDICTED BY IDOCK:   -6.08 KCAL/MOL
REMARK 922        TOTAL FREE ENERGY PREDICTED BY IDOCK:  -11.62 KCAL/MOL
REMARK 923 INTER-LIGAND FREE ENERGY PREDICTED BY IDOCK:   -9.90 KCAL/MOL
REMARK 924 INTRA-LIGAND FREE ENERGY PREDICTED BY IDOCK:   -1.73 KCAL/MOL
REMARK 927      BINDING AFFINITY PREDICTED BY RF-SCORE:    0.00 PKD
ROOT
HETATM    1  C   UNL     1     -10.289  12.310  64.972  1.00  0.00    -0.291 C  
HETATM    2  N   UNL     1     -10.523  11.626  66.235  1.00  0.00    -0.238 N  
HETATM    3  O   UNL     1      -8.572  10.436  65.896  1.00  0.00    -0.146 OA 
HETATM    4  C   UNL     1      -9.529  10.700  66.627  1.00  0.00    -0.167 C  
ENDROOT
BRANCH   2   5
HETATM    5  C   UNL     1     -11.548  12.115  67.159  1.00  0.00    -0.335 C  
BRANCH   5   6
HETATM    6  C   UNL     1     -11.201  13.088  68.297  1.00  0.00    -0.275 C  
BRANCH   6   7
HETATM    7  N   UNL     1     -11.789  14.428  68.053  1.00  0.00    -0.335 NA 
HETATM    8  C   UNL     1     -11.253  15.058  66.839  1.00  0.00    -0.323 C  
HETATM    9  C   UNL     1     -11.667  15.360  69.186  1.00  0.00    -0.345 C  
HETATM   10  C   UNL     1      -9.591  16.389  68.226  1.00  0.00    -0.221 C  
HETATM   11  C   UNL     1     -10.219  15.750  69.469  1.00  0.00    -0.271 C  
HETATM   12  C   UNL     1      -9.801  15.517  66.984  1.00  0.00    -0.236 C  
BRANCH  10  13
HETATM   13  O   UNL     1     -10.211  17.667  67.979  1.00  0.00    -0.323 OA 
BRANCH  13  14
HETATM   14  C   UNL     1      -9.344  18.681  67.710  1.00  0.00    -0.292 C  
HETATM   15  H   UNL     1      -9.223  17.847  65.817  1.00  0.00     0.000 HD 
HETATM   16  O   UNL     1      -9.128  19.624  68.453  1.00  0.00    -0.344 OA 
HETATM   17  N   UNL     1      -8.762  18.452  66.496  1.00  0.00    -0.283 N  
BRANCH  17  18
HETATM   18  C   UNL     1      -7.526  19.051  66.178  1.00  0.00    -0.270 A  
HETATM   19  C   UNL     1      -6.307  18.544  66.683  1.00  0.00    -0.206 A  
HETATM   20  C   UNL     1      -6.394  20.799  64.934  1.00  0.00    -0.298 A  
HETATM   21  C   UNL     1      -5.140  19.219  66.262  1.00  0.00    -0.163 A  
HETATM   22  C   UNL     1      -5.178  20.318  65.393  1.00  0.00    -0.191 A  
HETATM   23  C   UNL     1      -7.568  20.174  65.333  1.00  0.00    -0.012 A  
BRANCH  19  24
HETATM   24  C   UNL     1      -6.184  17.361  67.588  1.00  0.00    -0.164 A  
HETATM   25  C   UNL     1      -6.219  16.035  67.117  1.00  0.00    -0.079 A  
HETATM   26  C   UNL     1      -6.121  14.937  67.982  1.00  0.00    -0.163 A  
HETATM   27  C   UNL     1      -6.020  15.135  69.353  1.00  0.00    -0.108 A  
HETATM   28  C   UNL     1      -5.994  16.429  69.856  1.00  0.00    -0.195 A  
HETATM   29  C   UNL     1      -6.058  17.522  68.985  1.00  0.00    -0.204 A  
ENDBRANCH  19  24
ENDBRANCH  17  18
ENDBRANCH  13  14
ENDBRANCH  10  13
ENDBRANCH   6   7
ENDBRANCH   5   6
ENDBRANCH   2   5
BRANCH   4  30
HETATM   30  C   UNL     1      -9.542  10.075  67.991  1.00  0.00    -0.154 A  
HETATM   31  C   UNL     1      -8.347  10.084  68.728  1.00  0.00    -0.121 A  
HETATM   32  C   UNL     1     -10.671   9.487  68.567  1.00  0.00    -0.222 A  
HETATM   33  C   UNL     1     -10.661   9.076  69.901  1.00  0.00    -0.240 A  
HETATM   34  C   UNL     1      -8.316   9.609  70.045  1.00  0.00    -0.197 A  
HETATM   35  C   UNL     1      -9.484   9.137  70.655  1.00  0.00    -0.316 A  
BRANCH  35  36
HETATM   36  C   UNL     1      -9.485   8.660  72.093  1.00  0.00    -0.303 C  
BRANCH  36  37
HETATM   37  N   UNL     1      -8.907   7.316  72.245  1.00  0.00    -0.126 NA 
HETATM   38  C   UNL     1      -9.421   6.369  71.251  1.00  0.00    -0.166 C  
HETATM   39  C   UNL     1      -9.035   6.776  73.607  1.00  0.00    -0.141 C  
HETATM   40  C   UNL     1     -10.457   6.332  73.961  1.00  0.00    -0.279 C  
HETATM   41  C   UNL     1     -10.859   5.916  71.517  1.00  0.00    -0.325 C  
HETATM   42  C   UNL     1     -11.017   5.344  72.931  1.00  0.00    -0.338 C  
BRANCH  42  43
HETATM   43  C   UNL     1     -10.364   3.969  73.068  1.00  0.00    -0.168 C  
HETATM   44  N   UNL     1     -10.185   3.526  74.344  1.00  0.00    -0.163 N  
HETATM   45  H2  UNL     1     -10.469   4.076  75.155  1.00  0.00     0.000 HD 
HETATM   46  O   UNL     1      -9.976   3.284  72.128  1.00  0.00    -0.159 OA 
HETATM   47  H1  UNL     1      -9.750   2.608  74.436  1.00  0.00     0.000 HD 
ENDBRANCH  42  43
ENDBRANCH  36  37
ENDBRANCH  35  36
ENDBRANCH   4  30
TORSDOF 11
ENDMDL
MODEL       55
REMARK 921   NORMALIZED FREE ENERGY PREDICTED BY IDOCK:   -6.08 KCAL/MOL
REMARK 922        TOTAL FREE ENERGY PREDICTED BY IDOCK:  -11.62 KCAL/MOL
REMARK 923 INTER-LIGAND FREE ENERGY PREDICTED BY IDOCK:  -10.83 KCAL/MOL
REMARK 924 INTRA-LIGAND FREE ENERGY PREDICTED BY IDOCK:   -0.79 KCAL/MOL
REMARK 927      BINDING AFFINITY PREDICTED BY RF-SCORE:    0.00 PKD
ROOT
HETATM    1  C   UNL     1      -9.407   5.149  74.522  1.00  0.00    -0.126 C  
HETATM    2  N   UNL     1      -9.299   5.266  73.076  1.00  0.00    -0.133 N  
HETATM    3  O   UNL     1      -7.000   5.284  73.297  1.00  0.00    -0.076 OA 
HETATM    4  C   UNL     1      -7.985   5.283  72.556  1.00  0.00    -0.103 C  
ENDROOT
BRANCH   2   5
HETATM    5  C   UNL     1     -10.475   5.053  72.230  1.00  0.00    -0.214 C  
BRANCH   5   6
HETATM    6  C   UNL     1     -11.765   5.863  72.435  1.00  0.00    -0.253 C  
BRANCH   6   7
HETATM    7  N   UNL     1     -12.185   6.528  71.177  1.00  0.00    -0.285 NA 
HETATM    8  C   UNL     1     -11.053   7.140  70.466  1.00  0.00    -0.271 C  
HETATM    9  C   UNL     1     -13.256   7.525  71.346  1.00  0.00    -0.316 C  
HETATM   10  C   UNL     1     -11.602   9.406  71.477  1.00  0.00    -0.397 C  
HETATM   11  C   UNL     1     -12.804   8.738  72.153  1.00  0.00    -0.456 C  
HETATM   12  C   UNL     1     -10.503   8.386  71.162  1.00  0.00    -0.263 C  
BRANCH  10  13
HETATM   13  O   UNL     1     -12.022  10.003  70.235  1.00  0.00    -0.249 OA 
BRANCH  13  14
HETATM   14  C   UNL     1     -12.302  11.333  70.305  1.00  0.00    -0.307 C  
HETATM   15  H   UNL     1     -12.054  11.322  68.248  1.00  0.00     0.000 HD 
HETATM   16  O   UNL     1     -12.695  11.906  71.309  1.00  0.00    -0.382 OA 
HETATM   17  N   UNL     1     -12.058  11.901  69.088  1.00  0.00    -0.251 N  
BRANCH  17  18
HETATM   18  C   UNL     1     -11.810  13.285  68.988  1.00  0.00    -0.321 A  
HETATM   19  C   UNL     1     -11.512  13.896  67.749  1.00  0.00    -0.354 A  
HETATM   20  C   UNL     1     -11.688  15.400  70.170  1.00  0.00    -0.356 A  
HETATM   21  C   UNL     1     -11.316  15.295  67.786  1.00  0.00    -0.331 A  
HETATM   22  C   UNL     1     -11.415  16.038  68.970  1.00  0.00    -0.360 A  
HETATM   23  C   UNL     1     -11.876  14.024  70.182  1.00  0.00    -0.377 A  
BRANCH  19  24
HETATM   24  C   UNL     1     -11.419  13.177  66.442  1.00  0.00    -0.374 A  
HETATM   25  C   UNL     1     -12.458  13.186  65.493  1.00  0.00    -0.516 A  
HETATM   26  C   UNL     1     -12.362  12.490  64.281  1.00  0.00    -0.541 A  
HETATM   27  C   UNL     1     -11.232  11.732  63.998  1.00  0.00    -0.461 A  
HETATM   28  C   UNL     1     -10.191  11.690  64.916  1.00  0.00    -0.315 A  
HETATM   29  C   UNL     1     -10.279  12.414  66.111  1.00  0.00    -0.262 A  
ENDBRANCH  19  24
ENDBRANCH  17  18
ENDBRANCH  13  14
ENDBRANCH  10  13
ENDBRANCH   6   7
ENDBRANCH   5   6
ENDBRANCH   2   5
BRANCH   4  30
HETATM   30  C   UNL     1      -7.731   5.199  71.079  1.00  0.00    -0.095 A  
HETATM   31  C   UNL     1      -7.618   3.923  70.504  1.00  0.00    -0.044 A  
HETATM   32  C   UNL     1      -7.602   6.314  70.246  1.00  0.00    -0.096 A  
HETATM   33  C   UNL     1      -7.536   6.167  68.860  1.00  0.00    -0.087 A  
HETATM   34  C   UNL     1      -7.483   3.772  69.119  1.00  0.00    -0.053 A  
HETATM   35  C   UNL     1      -7.479   4.894  68.282  1.00  0.00    -0.074 A  
BRANCH  35  36
HETATM   36  C   UNL     1      -7.380   4.755  66.777  1.00  0.00    -0.082 C  
BRANCH  36  37
HETATM   37  N   UNL     1      -8.665   4.989  66.099  1.00  0.00    -0.118 NA 
HETATM   38  C   UNL     1      -9.577   3.847  66.217  1.00  0.00    -0.185 C  
HETATM   39  C   UNL     1      -8.518   5.407  64.697  1.00  0.00    -0.126 C  
HETATM   40  C   UNL     1      -8.096   4.273  63.758  1.00  0.00    -0.093 C  
HETATM   41  C   UNL     1      -9.189   2.656  65.338  1.00  0.00    -0.111 C  
HETATM   42  C   UNL     1      -9.034   3.066  63.869  1.00  0.00    -0.097 C  
BRANCH  42  43
HETATM   43  C   UNL     1     -10.384   3.348  63.209  1.00  0.00    -0.212 C  
HETATM   44  N   UNL     1     -10.422   4.437  62.390  1.00  0.00    -0.400 N  
HETATM   45  H2  UNL     1      -9.605   5.024  62.228  1.00  0.00     0.000 HD 
HETATM   46  O   UNL     1     -11.404   2.693  63.396  1.00  0.00    -0.307 OA 
HETATM   47  H1  UNL     1     -11.323   4.625  61.949  1.00  0.00     0.000 HD 
ENDBRANCH  42  43
ENDBRANCH  36  37
ENDBRANCH  35  36
ENDBRANCH   4  30
TORSDOF 11
ENDMDL
MODEL       56
REMARK 921   NORMALIZED FREE ENERGY PREDICTED BY IDOCK:   -6.06 KCAL/MOL
REMARK 922        TOTAL FREE ENERGY PREDICTED BY IDOCK:  -11.60 KCAL/MOL
REMARK 923 INTER-LIGAND FREE ENERGY PREDICTED BY IDOCK:   -8.68 KCAL/MOL
REMARK 924 INTRA-LIGAND FREE ENERGY PREDICTED BY IDOCK:   -2.92 KCAL/MOL
REMARK 927      BINDING AFFINITY PREDICTED BY RF-SCORE:    0.00 PKD
ROOT
HETATM    1  C   UNL     1     -12.126  15.783  64.296  1.00  0.00     0.016 C  
HETATM    2  N   UNL     1     -11.654  14.630  65.048  1.00  0.00    -0.371 N  
HETATM    3  O   UNL     1     -12.406  13.268  63.340  1.00  0.00    -0.726 OA 
HETATM    4  C   UNL     1     -11.820  13.375  64.420  1.00  0.00    -0.408 C  
ENDROOT
BRANCH   2   5
HETATM    5  C   UNL     1     -10.788  14.815  66.214  1.00  0.00    -0.322 C  
BRANCH   5   6
HETATM    6  C   UNL     1      -9.285  15.098  66.057  1.00  0.00    -0.238 C  
BRANCH   6   7
HETATM    7  N   UNL     1      -8.606  15.126  67.375  1.00  0.00    -0.173 NA 
HETATM    8  C   UNL     1      -7.289  14.475  67.336  1.00  0.00    -0.157 C  
HETATM    9  C   UNL     1      -9.400  14.564  68.480  1.00  0.00    -0.203 C  
HETATM   10  C   UNL     1      -8.290  12.327  68.253  1.00  0.00    -0.174 C  
HETATM   11  C   UNL     1      -9.631  13.063  68.329  1.00  0.00    -0.213 C  
HETATM   12  C   UNL     1      -7.369  12.953  67.201  1.00  0.00     0.002 C  
BRANCH  10  13
HETATM   13  O   UNL     1      -7.625  12.408  69.529  1.00  0.00     0.364 OA 
BRANCH  13  14
HETATM   14  C   UNL     1      -7.027  11.256  69.937  1.00  0.00     0.063 C  
HETATM   15  H   UNL     1      -8.268  10.325  68.563  1.00  0.00     0.000 HD 
HETATM   16  O   UNL     1      -6.055  11.202  70.674  1.00  0.00    -0.295 OA 
HETATM   17  N   UNL     1      -7.700  10.196  69.400  1.00  0.00    -0.123 N  
BRANCH  17  18
HETATM   18  C   UNL     1      -7.612   8.923  70.000  1.00  0.00    -0.066 A  
HETATM   19  C   UNL     1      -8.692   8.369  70.722  1.00  0.00    -0.167 A  
HETATM   20  C   UNL     1      -6.237   6.957  70.361  1.00  0.00    -0.027 A  
HETATM   21  C   UNL     1      -8.481   7.073  71.245  1.00  0.00    -0.118 A  
HETATM   22  C   UNL     1      -7.283   6.373  71.059  1.00  0.00    -0.078 A  
HETATM   23  C   UNL     1      -6.396   8.235  69.841  1.00  0.00    -0.032 A  
BRANCH  19  24
HETATM   24  C   UNL     1     -10.010   9.041  70.938  1.00  0.00    -0.326 A  
HETATM   25  C   UNL     1     -10.903   8.656  71.955  1.00  0.00    -0.430 A  
HETATM   26  C   UNL     1     -12.143   9.285  72.131  1.00  0.00    -0.353 A  
HETATM   27  C   UNL     1     -12.541  10.299  71.269  1.00  0.00    -0.522 A  
HETATM   28  C   UNL     1     -11.690  10.698  70.246  1.00  0.00    -0.433 A  
HETATM   29  C   UNL     1     -10.439  10.089  70.095  1.00  0.00    -0.338 A  
ENDBRANCH  19  24
ENDBRANCH  17  18
ENDBRANCH  13  14
ENDBRANCH  10  13
ENDBRANCH   6   7
ENDBRANCH   5   6
ENDBRANCH   2   5
BRANCH   4  30
HETATM   30  C   UNL     1     -11.204  12.131  64.990  1.00  0.00    -0.372 A  
HETATM   31  C   UNL     1     -10.114  11.567  64.308  1.00  0.00    -0.338 A  
HETATM   32  C   UNL     1     -11.649  11.505  66.158  1.00  0.00     0.014 A  
HETATM   33  C   UNL     1     -10.929  10.453  66.724  1.00  0.00    -0.116 A  
HETATM   34  C   UNL     1      -9.429  10.467  64.839  1.00  0.00    -0.304 A  
HETATM   35  C   UNL     1      -9.809   9.926  66.073  1.00  0.00    -0.330 A  
BRANCH  35  36
HETATM   36  C   UNL     1      -9.055   8.765  66.690  1.00  0.00    -0.158 C  
BRANCH  36  37
HETATM   37  N   UNL     1      -9.284   7.499  65.978  1.00  0.00    -0.104 NA 
HETATM   38  C   UNL     1     -10.229   6.624  66.679  1.00  0.00    -0.138 C  
HETATM   39  C   UNL     1      -8.043   6.781  65.649  1.00  0.00    -0.122 C  
HETATM   40  C   UNL     1      -7.378   6.118  66.858  1.00  0.00    -0.082 C  
HETATM   41  C   UNL     1      -9.644   5.961  67.929  1.00  0.00    -0.120 C  
HETATM   42  C   UNL     1      -8.350   5.202  67.610  1.00  0.00    -0.105 C  
BRANCH  42  43
HETATM   43  C   UNL     1      -8.619   3.915  66.829  1.00  0.00    -0.107 C  
HETATM   44  N   UNL     1      -9.752   3.242  67.177  1.00  0.00    -0.366 N  
HETATM   45  H2  UNL     1     -10.378   3.574  67.909  1.00  0.00     0.000 HD 
HETATM   46  O   UNL     1      -7.881   3.457  65.963  1.00  0.00    -0.081 OA 
HETATM   47  H1  UNL     1      -9.932   2.384  66.655  1.00  0.00     0.000 HD 
ENDBRANCH  42  43
ENDBRANCH  36  37
ENDBRANCH  35  36
ENDBRANCH   4  30
TORSDOF 11
ENDMDL
MODEL       57
REMARK 921   NORMALIZED FREE ENERGY PREDICTED BY IDOCK:   -6.06 KCAL/MOL
REMARK 922        TOTAL FREE ENERGY PREDICTED BY IDOCK:  -11.58 KCAL/MOL
REMARK 923 INTER-LIGAND FREE ENERGY PREDICTED BY IDOCK:  -10.94 KCAL/MOL
REMARK 924 INTRA-LIGAND FREE ENERGY PREDICTED BY IDOCK:   -0.65 KCAL/MOL
REMARK 927      BINDING AFFINITY PREDICTED BY RF-SCORE:    0.00 PKD
ROOT
HETATM    1  C   UNL     1      -9.541   9.429  65.281  1.00  0.00    -0.180 C  
HETATM    2  N   UNL     1      -9.461  10.834  65.653  1.00  0.00    -0.197 N  
HETATM    3  O   UNL     1     -11.378  11.218  64.422  1.00  0.00    -0.222 OA 
HETATM    4  C   UNL     1     -10.506  11.657  65.175  1.00  0.00    -0.279 C  
ENDROOT
BRANCH   2   5
HETATM    5  C   UNL     1      -8.540  11.266  66.705  1.00  0.00    -0.159 C  
BRANCH   5   6
HETATM    6  C   UNL     1      -8.796  10.926  68.183  1.00  0.00    -0.137 C  
BRANCH   6   7
HETATM    7  N   UNL     1      -9.637   9.711  68.314  1.00  0.00    -0.140 NA 
HETATM    8  C   UNL     1     -11.012  10.028  68.726  1.00  0.00    -0.202 C  
HETATM    9  C   UNL     1      -9.081   8.682  69.208  1.00  0.00    -0.149 C  
HETATM   10  C   UNL     1     -10.440   9.510  71.147  1.00  0.00    -0.288 C  
HETATM   11  C   UNL     1      -9.035   9.135  70.665  1.00  0.00    -0.292 C  
HETATM   12  C   UNL     1     -11.119  10.487  70.181  1.00  0.00    -0.369 C  
BRANCH  10  13
HETATM   13  O   UNL     1     -11.254   8.323  71.221  1.00  0.00    -0.246 OA 
BRANCH  13  14
HETATM   14  C   UNL     1     -10.763   7.342  72.026  1.00  0.00    -0.219 C  
HETATM   15  H   UNL     1     -10.507   6.267  70.273  1.00  0.00     0.000 HD 
HETATM   16  O   UNL     1     -10.525   7.476  73.216  1.00  0.00    -0.329 OA 
HETATM   17  N   UNL     1     -10.601   6.205  71.287  1.00  0.00    -0.234 N  
BRANCH  17  18
HETATM   18  C   UNL     1     -10.562   4.947  71.921  1.00  0.00    -0.116 A  
HETATM   19  C   UNL     1      -9.768   3.890  71.422  1.00  0.00    -0.246 A  
HETATM   20  C   UNL     1     -11.341   3.607  73.787  1.00  0.00    -0.161 A  
HETATM   21  C   UNL     1      -9.798   2.693  72.170  1.00  0.00    -0.235 A  
HETATM   22  C   UNL     1     -10.558   2.555  73.339  1.00  0.00    -0.252 A  
HETATM   23  C   UNL     1     -11.352   4.799  73.074  1.00  0.00    -0.325 A  
BRANCH  19  24
HETATM   24  C   UNL     1      -8.908   3.971  70.201  1.00  0.00    -0.137 A  
HETATM   25  C   UNL     1      -9.386   3.665  68.913  1.00  0.00    -0.235 A  
HETATM   26  C   UNL     1      -8.561   3.727  67.782  1.00  0.00    -0.112 A  
HETATM   27  C   UNL     1      -7.220   4.065  67.913  1.00  0.00    -0.060 A  
HETATM   28  C   UNL     1      -6.710   4.363  69.170  1.00  0.00    -0.045 A  
HETATM   29  C   UNL     1      -7.547   4.332  70.292  1.00  0.00    -0.046 A  
ENDBRANCH  19  24
ENDBRANCH  17  18
ENDBRANCH  13  14
ENDBRANCH  10  13
ENDBRANCH   6   7
ENDBRANCH   5   6
ENDBRANCH   2   5
BRANCH   4  30
HETATM   30  C   UNL     1     -10.657  13.075  65.644  1.00  0.00    -0.297 A  
HETATM   31  C   UNL     1     -11.103  13.287  66.958  1.00  0.00    -0.304 A  
HETATM   32  C   UNL     1     -10.378  14.191  64.851  1.00  0.00    -0.435 A  
HETATM   33  C   UNL     1     -10.376  15.474  65.399  1.00  0.00    -0.422 A  
HETATM   34  C   UNL     1     -11.168  14.580  67.491  1.00  0.00    -0.333 A  
HETATM   35  C   UNL     1     -10.767  15.682  66.726  1.00  0.00    -0.300 A  
BRANCH  35  36
HETATM   36  C   UNL     1     -10.785  17.086  67.296  1.00  0.00    -0.206 C  
BRANCH  36  37
HETATM   37  N   UNL     1      -9.820  17.978  66.635  1.00  0.00    -0.334 NA 
HETATM   38  C   UNL     1      -8.430  17.585  66.886  1.00  0.00    -0.239 C  
HETATM   39  C   UNL     1     -10.032  19.400  66.945  1.00  0.00    -0.369 C  
HETATM   40  C   UNL     1      -9.603  19.791  68.362  1.00  0.00    -0.454 C  
HETATM   41  C   UNL     1      -7.946  17.905  68.303  1.00  0.00    -0.292 C  
HETATM   42  C   UNL     1      -8.153  19.384  68.648  1.00  0.00    -0.402 C  
BRANCH  42  43
HETATM   43  C   UNL     1      -7.165  20.287  67.909  1.00  0.00    -0.284 C  
HETATM   44  N   UNL     1      -5.857  19.912  67.980  1.00  0.00    -0.205 N  
HETATM   45  H2  UNL     1      -5.557  19.083  68.493  1.00  0.00     0.000 HD 
HETATM   46  O   UNL     1      -7.471  21.311  67.307  1.00  0.00    -0.449 OA 
HETATM   47  H1  UNL     1      -5.198  20.514  67.486  1.00  0.00     0.000 HD 
ENDBRANCH  42  43
ENDBRANCH  36  37
ENDBRANCH  35  36
ENDBRANCH   4  30
TORSDOF 11
ENDMDL
MODEL       58
REMARK 921   NORMALIZED FREE ENERGY PREDICTED BY IDOCK:   -6.05 KCAL/MOL
REMARK 922        TOTAL FREE ENERGY PREDICTED BY IDOCK:  -11.58 KCAL/MOL
REMARK 923 INTER-LIGAND FREE ENERGY PREDICTED BY IDOCK:   -9.02 KCAL/MOL
REMARK 924 INTRA-LIGAND FREE ENERGY PREDICTED BY IDOCK:   -2.56 KCAL/MOL
REMARK 927      BINDING AFFINITY PREDICTED BY RF-SCORE:    0.00 PKD
ROOT
HETATM    1  C   UNL     1     -13.216  15.675  71.573  1.00  0.00    -0.475 C  
HETATM    2  N   UNL     1     -12.608  14.419  71.159  1.00  0.00    -0.329 N  
HETATM    3  O   UNL     1     -14.012  13.314  72.623  1.00  0.00    -0.741 OA 
HETATM    4  C   UNL     1     -13.144  13.252  71.751  1.00  0.00    -0.379 C  
ENDROOT
BRANCH   2   5
HETATM    5  C   UNL     1     -11.737  14.374  69.984  1.00  0.00    -0.298 C  
BRANCH   5   6
HETATM    6  C   UNL     1     -10.413  15.154  69.939  1.00  0.00    -0.216 C  
BRANCH   6   7
HETATM    7  N   UNL     1      -9.788  15.070  68.596  1.00  0.00    -0.215 NA 
HETATM    8  C   UNL     1      -9.845  13.711  68.040  1.00  0.00    -0.244 C  
HETATM    9  C   UNL     1      -8.403  15.567  68.539  1.00  0.00    -0.161 C  
HETATM   10  C   UNL     1      -7.471  13.256  68.826  1.00  0.00    -0.053 C  
HETATM   11  C   UNL     1      -7.437  14.699  69.340  1.00  0.00    -0.112 C  
HETATM   12  C   UNL     1      -8.907  12.728  68.744  1.00  0.00     0.178 C  
BRANCH  10  13
HETATM   13  O   UNL     1      -6.904  13.205  67.502  1.00  0.00    -0.152 OA 
BRANCH  13  14
HETATM   14  C   UNL     1      -6.493  11.971  67.103  1.00  0.00    -0.142 C  
HETATM   15  H   UNL     1      -7.372  12.451  65.290  1.00  0.00     0.000 HD 
HETATM   16  O   UNL     1      -5.754  11.244  67.748  1.00  0.00    -0.043 OA 
HETATM   17  N   UNL     1      -7.052  11.691  65.890  1.00  0.00     0.488 N  
BRANCH  17  18
HETATM   18  C   UNL     1      -7.188  10.354  65.464  1.00  0.00    -0.138 A  
HETATM   19  C   UNL     1      -8.415   9.856  64.969  1.00  0.00    -0.161 A  
HETATM   20  C   UNL     1      -6.075   8.226  65.116  1.00  0.00    -0.045 A  
HETATM   21  C   UNL     1      -8.405   8.507  64.547  1.00  0.00    -0.138 A  
HETATM   22  C   UNL     1      -7.255   7.709  64.606  1.00  0.00    -0.075 A  
HETATM   23  C   UNL     1      -6.043   9.544  65.554  1.00  0.00    -0.065 A  
BRANCH  19  24
HETATM   24  C   UNL     1      -9.674  10.653  64.848  1.00  0.00    -0.341 A  
HETATM   25  C   UNL     1     -10.129  11.175  63.623  1.00  0.00    -0.432 A  
HETATM   26  C   UNL     1     -11.302  11.936  63.532  1.00  0.00    -0.516 A  
HETATM   27  C   UNL     1     -12.037  12.229  64.674  1.00  0.00    -0.449 A  
HETATM   28  C   UNL     1     -11.611  11.741  65.903  1.00  0.00    -0.200 A  
HETATM   29  C   UNL     1     -10.458  10.952  65.983  1.00  0.00    -0.287 A  
ENDBRANCH  19  24
ENDBRANCH  17  18
ENDBRANCH  13  14
ENDBRANCH  10  13
ENDBRANCH   6   7
ENDBRANCH   5   6
ENDBRANCH   2   5
BRANCH   4  30
HETATM   30  C   UNL     1     -12.750  11.885  71.271  1.00  0.00    -0.401 A  
HETATM   31  C   UNL     1     -12.154  11.782  70.004  1.00  0.00    -0.387 A  
HETATM   32  C   UNL     1     -12.941  10.715  72.011  1.00  0.00    -0.466 A  
HETATM   33  C   UNL     1     -12.401   9.502  71.582  1.00  0.00    -0.480 A  
HETATM   34  C   UNL     1     -11.671  10.552  69.540  1.00  0.00    -0.313 A  
HETATM   35  C   UNL     1     -11.757   9.409  70.343  1.00  0.00    -0.195 A  
BRANCH  35  36
HETATM   36  C   UNL     1     -11.201   8.077  69.881  1.00  0.00    -0.038 C  
BRANCH  36  37
HETATM   37  N   UNL     1      -9.872   7.793  70.442  1.00  0.00    -0.183 NA 
HETATM   38  C   UNL     1      -8.948   8.922  70.296  1.00  0.00    -0.183 C  
HETATM   39  C   UNL     1      -9.274   6.551  69.928  1.00  0.00    -0.149 C  
HETATM   40  C   UNL     1      -8.772   6.661  68.486  1.00  0.00    -0.123 C  
HETATM   41  C   UNL     1      -8.440   9.121  68.866  1.00  0.00    -0.129 C  
HETATM   42  C   UNL     1      -7.808   7.840  68.309  1.00  0.00    -0.121 C  
BRANCH  42  43
HETATM   43  C   UNL     1      -6.449   7.548  68.947  1.00  0.00    -0.044 C  
HETATM   44  N   UNL     1      -6.163   6.231  69.146  1.00  0.00    -0.032 N  
HETATM   45  H2  UNL     1      -6.812   5.489  68.885  1.00  0.00     0.000 HD 
HETATM   46  O   UNL     1      -5.649   8.405  69.308  1.00  0.00    -0.030 OA 
HETATM   47  H1  UNL     1      -5.257   6.036  69.571  1.00  0.00     0.000 HD 
ENDBRANCH  42  43
ENDBRANCH  36  37
ENDBRANCH  35  36
ENDBRANCH   4  30
TORSDOF 11
ENDMDL
MODEL       59
REMARK 921   NORMALIZED FREE ENERGY PREDICTED BY IDOCK:   -6.00 KCAL/MOL
REMARK 922        TOTAL FREE ENERGY PREDICTED BY IDOCK:  -11.50 KCAL/MOL
REMARK 923 INTER-LIGAND FREE ENERGY PREDICTED BY IDOCK:  -10.54 KCAL/MOL
REMARK 924 INTRA-LIGAND FREE ENERGY PREDICTED BY IDOCK:   -0.96 KCAL/MOL
REMARK 927      BINDING AFFINITY PREDICTED BY RF-SCORE:    0.00 PKD
ROOT
HETATM    1  C   UNL     1      -7.980   8.739  64.408  1.00  0.00    -0.144 C  
HETATM    2  N   UNL     1      -8.073  10.158  64.717  1.00  0.00    -0.151 N  
HETATM    3  O   UNL     1     -10.369  10.001  64.523  1.00  0.00    -0.032 OA 
HETATM    4  C   UNL     1      -9.381  10.688  64.790  1.00  0.00    -0.233 C  
ENDROOT
BRANCH   2   5
HETATM    5  C   UNL     1      -6.905  10.879  65.226  1.00  0.00     0.226 C  
BRANCH   5   6
HETATM    6  C   UNL     1      -6.466  10.756  66.694  1.00  0.00    -0.108 C  
BRANCH   6   7
HETATM    7  N   UNL     1      -6.867   9.448  67.265  1.00  0.00    -0.083 NA 
HETATM    8  C   UNL     1      -8.044   9.560  68.139  1.00  0.00    -0.102 C  
HETATM    9  C   UNL     1      -5.791   8.740  67.978  1.00  0.00    -0.046 C  
HETATM   10  C   UNL     1      -6.550   9.641  70.193  1.00  0.00    -0.081 C  
HETATM   11  C   UNL     1      -5.356   9.466  69.249  1.00  0.00    -0.036 C  
HETATM   12  C   UNL     1      -7.749  10.260  69.467  1.00  0.00    -0.167 C  
BRANCH  10  13
HETATM   13  O   UNL     1      -6.955   8.353  70.698  1.00  0.00    -0.037 OA 
BRANCH  13  14
HETATM   14  C   UNL     1      -8.047   8.375  71.510  1.00  0.00    -0.137 C  
HETATM   15  H   UNL     1      -8.970   7.279  70.014  1.00  0.00     0.000 HD 
HETATM   16  O   UNL     1      -8.048   8.783  72.660  1.00  0.00    -0.390 OA 
HETATM   17  N   UNL     1      -9.118   7.884  70.820  1.00  0.00    -0.151 N  
BRANCH  17  18
HETATM   18  C   UNL     1     -10.430   8.213  71.221  1.00  0.00    -0.209 A  
HETATM   19  C   UNL     1     -11.256   7.280  71.887  1.00  0.00    -0.281 A  
HETATM   20  C   UNL     1     -12.133   9.937  71.321  1.00  0.00    -0.485 A  
HETATM   21  C   UNL     1     -12.535   7.748  72.260  1.00  0.00    -0.224 A  
HETATM   22  C   UNL     1     -12.964   9.056  71.995  1.00  0.00    -0.470 A  
HETATM   23  C   UNL     1     -10.871   9.514  70.925  1.00  0.00    -0.407 A  
BRANCH  19  24
HETATM   24  C   UNL     1     -10.859   5.879  72.230  1.00  0.00    -0.292 A  
HETATM   25  C   UNL     1     -10.892   5.380  73.544  1.00  0.00    -0.342 A  
HETATM   26  C   UNL     1     -10.498   4.070  73.850  1.00  0.00    -0.268 A  
HETATM   27  C   UNL     1     -10.024   3.231  72.850  1.00  0.00    -0.212 A  
HETATM   28  C   UNL     1      -9.967   3.693  71.541  1.00  0.00    -0.181 A  
HETATM   29  C   UNL     1     -10.393   4.991  71.236  1.00  0.00    -0.255 A  
ENDBRANCH  19  24
ENDBRANCH  17  18
ENDBRANCH  13  14
ENDBRANCH  10  13
ENDBRANCH   6   7
ENDBRANCH   5   6
ENDBRANCH   2   5
BRANCH   4  30
HETATM   30  C   UNL     1      -9.630  12.081  65.291  1.00  0.00    -0.117 A  
HETATM   31  C   UNL     1     -10.169  13.015  64.393  1.00  0.00    -0.335 A  
HETATM   32  C   UNL     1      -9.358  12.499  66.597  1.00  0.00    -0.236 A  
HETATM   33  C   UNL     1      -9.769  13.754  67.046  1.00  0.00    -0.251 A  
HETATM   34  C   UNL     1     -10.520  14.301  64.823  1.00  0.00    -0.421 A  
HETATM   35  C   UNL     1     -10.358  14.667  66.164  1.00  0.00    -0.309 A  
BRANCH  35  36
HETATM   36  C   UNL     1     -10.772  16.036  66.662  1.00  0.00    -0.247 C  
BRANCH  36  37
HETATM   37  N   UNL     1      -9.885  17.107  66.181  1.00  0.00    -0.412 NA 
HETATM   38  C   UNL     1      -8.606  17.140  66.898  1.00  0.00    -0.232 C  
HETATM   39  C   UNL     1     -10.521  18.433  66.172  1.00  0.00    -0.395 C  
HETATM   40  C   UNL     1     -10.694  19.041  67.567  1.00  0.00    -0.532 C  
HETATM   41  C   UNL     1      -8.712  17.696  68.321  1.00  0.00    -0.276 C  
HETATM   42  C   UNL     1      -9.369  19.081  68.337  1.00  0.00    -0.405 C  
BRANCH  42  43
HETATM   43  C   UNL     1      -8.438  20.162  67.787  1.00  0.00    -0.255 C  
HETATM   44  N   UNL     1      -9.052  21.205  67.161  1.00  0.00    -0.534 N  
HETATM   45  H2  UNL     1     -10.066  21.261  67.066  1.00  0.00     0.000 HD 
HETATM   46  O   UNL     1      -7.213  20.125  67.846  1.00  0.00    -0.282 OA 
HETATM   47  H1  UNL     1      -8.431  21.927  66.794  1.00  0.00     0.000 HD 
ENDBRANCH  42  43
ENDBRANCH  36  37
ENDBRANCH  35  36
ENDBRANCH   4  30
TORSDOF 11
ENDMDL
MODEL       60
REMARK 921   NORMALIZED FREE ENERGY PREDICTED BY IDOCK:   -5.97 KCAL/MOL
REMARK 922        TOTAL FREE ENERGY PREDICTED BY IDOCK:  -11.44 KCAL/MOL
REMARK 923 INTER-LIGAND FREE ENERGY PREDICTED BY IDOCK:   -9.68 KCAL/MOL
REMARK 924 INTRA-LIGAND FREE ENERGY PREDICTED BY IDOCK:   -1.76 KCAL/MOL
REMARK 927      BINDING AFFINITY PREDICTED BY RF-SCORE:    0.00 PKD
ROOT
HETATM    1  C   UNL     1     -10.619   5.531  73.501  1.00  0.00    -0.270 C  
HETATM    2  N   UNL     1     -10.674   6.859  72.908  1.00  0.00    -0.256 N  
HETATM    3  O   UNL     1     -12.690   6.287  71.935  1.00  0.00    -0.203 OA 
HETATM    4  C   UNL     1     -11.830   7.145  72.146  1.00  0.00    -0.277 C  
ENDROOT
BRANCH   2   5
HETATM    5  C   UNL     1      -9.747   7.902  73.349  1.00  0.00    -0.250 C  
BRANCH   5   6
HETATM    6  C   UNL     1      -8.224   7.702  73.278  1.00  0.00    -0.138 C  
BRANCH   6   7
HETATM    7  N   UNL     1      -7.810   7.212  71.941  1.00  0.00    -0.092 NA 
HETATM    8  C   UNL     1      -6.372   7.399  71.701  1.00  0.00    -0.039 C  
HETATM    9  C   UNL     1      -8.575   7.786  70.821  1.00  0.00    -0.133 C  
HETATM   10  C   UNL     1      -6.833   9.547  70.423  1.00  0.00    -0.101 C  
HETATM   11  C   UNL     1      -8.325   9.282  70.648  1.00  0.00    -0.245 C  
HETATM   12  C   UNL     1      -5.977   8.863  71.494  1.00  0.00    -0.061 C  
BRANCH  10  13
HETATM   13  O   UNL     1      -6.441   9.020  69.140  1.00  0.00    -0.042 OA 
BRANCH  13  14
HETATM   14  C   UNL     1      -6.770   9.802  68.076  1.00  0.00    -0.061 C  
HETATM   15  H   UNL     1      -8.527  10.174  69.109  1.00  0.00     0.000 HD 
HETATM   16  O   UNL     1      -6.008  10.095  67.168  1.00  0.00    -0.050 OA 
HETATM   17  N   UNL     1      -8.077  10.180  68.194  1.00  0.00    -0.104 N  
BRANCH  17  18
HETATM   18  C   UNL     1      -8.805  10.580  67.055  1.00  0.00    -0.136 A  
HETATM   19  C   UNL     1      -9.556   9.655  66.295  1.00  0.00    -0.281 A  
HETATM   20  C   UNL     1      -9.468  12.431  65.635  1.00  0.00    -0.046 A  
HETATM   21  C   UNL     1     -10.263  10.193  65.197  1.00  0.00    -0.233 A  
HETATM   22  C   UNL     1     -10.233  11.557  64.878  1.00  0.00    -0.324 A  
HETATM   23  C   UNL     1      -8.747  11.943  66.716  1.00  0.00    -0.193 A  
BRANCH  19  24
HETATM   24  C   UNL     1      -9.661   8.193  66.589  1.00  0.00    -0.295 A  
HETATM   25  C   UNL     1      -8.702   7.259  66.156  1.00  0.00    -0.170 A  
HETATM   26  C   UNL     1      -8.826   5.889  66.424  1.00  0.00    -0.134 A  
HETATM   27  C   UNL     1      -9.936   5.408  67.106  1.00  0.00    -0.199 A  
HETATM   28  C   UNL     1     -10.910   6.299  67.540  1.00  0.00    -0.436 A  
HETATM   29  C   UNL     1     -10.764   7.670  67.298  1.00  0.00    -0.344 A  
ENDBRANCH  19  24
ENDBRANCH  17  18
ENDBRANCH  13  14
ENDBRANCH  10  13
ENDBRANCH   6   7
ENDBRANCH   5   6
ENDBRANCH   2   5
BRANCH   4  30
HETATM   30  C   UNL     1     -12.109   8.533  71.647  1.00  0.00    -0.373 A  
HETATM   31  C   UNL     1     -12.956   9.348  72.414  1.00  0.00    -0.427 A  
HETATM   32  C   UNL     1     -11.577   9.057  70.466  1.00  0.00    -0.209 A  
HETATM   33  C   UNL     1     -11.739  10.405  70.146  1.00  0.00    -0.394 A  
HETATM   34  C   UNL     1     -13.176  10.684  72.059  1.00  0.00    -0.473 A  
HETATM   35  C   UNL     1     -12.537  11.234  70.942  1.00  0.00    -0.467 A  
BRANCH  35  36
HETATM   36  C   UNL     1     -12.724  12.689  70.563  1.00  0.00     0.010 C  
BRANCH  36  37
HETATM   37  N   UNL     1     -11.457  13.353  70.220  1.00  0.00    -0.019 NA 
HETATM   38  C   UNL     1     -11.386  14.725  70.732  1.00  0.00    -0.173 C  
HETATM   39  C   UNL     1     -11.144  13.307  68.783  1.00  0.00    -0.266 C  
HETATM   40  C   UNL     1     -12.003  14.250  67.937  1.00  0.00    -0.364 C  
HETATM   41  C   UNL     1     -12.259  15.717  69.959  1.00  0.00    -0.351 C  
HETATM   42  C   UNL     1     -11.948  15.691  68.458  1.00  0.00    -0.145 C  
BRANCH  42  43
HETATM   43  C   UNL     1     -10.603  16.345  68.141  1.00  0.00    -0.318 C  
HETATM   44  N   UNL     1     -10.341  17.504  68.808  1.00  0.00    -0.366 N  
HETATM   45  H2  UNL     1     -10.998  17.907  69.476  1.00  0.00     0.000 HD 
HETATM   46  O   UNL     1      -9.794  15.918  67.324  1.00  0.00    -0.230 OA 
HETATM   47  H1  UNL     1      -9.443  17.940  68.598  1.00  0.00     0.000 HD 
ENDBRANCH  42  43
ENDBRANCH  36  37
ENDBRANCH  35  36
ENDBRANCH   4  30
TORSDOF 11
ENDMDL
MODEL       61
REMARK 921   NORMALIZED FREE ENERGY PREDICTED BY IDOCK:   -5.96 KCAL/MOL
REMARK 922        TOTAL FREE ENERGY PREDICTED BY IDOCK:  -11.43 KCAL/MOL
REMARK 923 INTER-LIGAND FREE ENERGY PREDICTED BY IDOCK:   -7.85 KCAL/MOL
REMARK 924 INTRA-LIGAND FREE ENERGY PREDICTED BY IDOCK:   -3.59 KCAL/MOL
REMARK 927      BINDING AFFINITY PREDICTED BY RF-SCORE:    0.00 PKD
ROOT
HETATM    1  C   UNL     1     -11.260  15.334  67.358  1.00  0.00    -0.311 C  
HETATM    2  N   UNL     1     -10.890  13.955  67.077  1.00  0.00    -0.284 N  
HETATM    3  O   UNL     1      -8.762  14.684  66.550  1.00  0.00    -0.207 OA 
HETATM    4  C   UNL     1      -9.543  13.742  66.705  1.00  0.00    -0.279 C  
ENDROOT
BRANCH   2   5
HETATM    5  C   UNL     1     -11.777  12.859  67.470  1.00  0.00    -0.367 C  
BRANCH   5   6
HETATM    6  C   UNL     1     -11.731  12.260  68.885  1.00  0.00    -0.328 C  
BRANCH   6   7
HETATM    7  N   UNL     1     -12.105  10.825  68.872  1.00  0.00    -0.421 NA 
HETATM    8  C   UNL     1     -13.034  10.482  69.958  1.00  0.00     0.132 C  
HETATM    9  C   UNL     1     -10.960   9.899  68.893  1.00  0.00    -0.179 C  
HETATM   10  C   UNL     1     -11.106   9.641  71.384  1.00  0.00    -0.326 C  
HETATM   11  C   UNL     1     -10.182   9.962  70.204  1.00  0.00    -0.326 C  
HETATM   12  C   UNL     1     -12.379  10.491  71.341  1.00  0.00    -0.477 C  
BRANCH  10  13
HETATM   13  O   UNL     1     -11.496   8.255  71.325  1.00  0.00    -0.261 OA 
BRANCH  13  14
HETATM   14  C   UNL     1     -10.746   7.417  72.090  1.00  0.00    -0.225 C  
HETATM   15  H   UNL     1      -9.540   7.241  70.414  1.00  0.00     0.000 HD 
HETATM   16  O   UNL     1     -10.905   7.241  73.287  1.00  0.00    -0.350 OA 
HETATM   17  N   UNL     1      -9.815   6.810  71.296  1.00  0.00    -0.177 N  
BRANCH  17  18
HETATM   18  C   UNL     1      -9.234   5.588  71.692  1.00  0.00    -0.142 A  
HETATM   19  C   UNL     1      -7.925   5.529  72.221  1.00  0.00    -0.107 A  
HETATM   20  C   UNL     1      -9.545   3.195  71.939  1.00  0.00    -0.222 A  
HETATM   21  C   UNL     1      -7.476   4.245  72.606  1.00  0.00    -0.074 A  
HETATM   22  C   UNL     1      -8.274   3.100  72.482  1.00  0.00    -0.071 A  
HETATM   23  C   UNL     1     -10.022   4.435  71.534  1.00  0.00    -0.250 A  
BRANCH  19  24
HETATM   24  C   UNL     1      -7.026   6.708  72.412  1.00  0.00    -0.068 A  
HETATM   25  C   UNL     1      -6.946   7.414  73.627  1.00  0.00    -0.085 A  
HETATM   26  C   UNL     1      -6.112   8.529  73.782  1.00  0.00    -0.132 A  
HETATM   27  C   UNL     1      -5.359   8.994  72.712  1.00  0.00    -0.076 A  
HETATM   28  C   UNL     1      -5.421   8.329  71.493  1.00  0.00    -0.034 A  
HETATM   29  C   UNL     1      -6.230   7.196  71.354  1.00  0.00    -0.037 A  
ENDBRANCH  19  24
ENDBRANCH  17  18
ENDBRANCH  13  14
ENDBRANCH  10  13
ENDBRANCH   6   7
ENDBRANCH   5   6
ENDBRANCH   2   5
BRANCH   4  30
HETATM   30  C   UNL     1      -8.978  12.357  66.581  1.00  0.00    -0.184 A  
HETATM   31  C   UNL     1      -8.033  11.946  67.533  1.00  0.00    -0.155 A  
HETATM   32  C   UNL     1      -9.340  11.456  65.575  1.00  0.00    -0.228 A  
HETATM   33  C   UNL     1      -8.907  10.130  65.614  1.00  0.00    -0.185 A  
HETATM   34  C   UNL     1      -7.544  10.634  67.536  1.00  0.00    -0.093 A  
HETATM   35  C   UNL     1      -8.008   9.705  66.597  1.00  0.00    -0.109 A  
BRANCH  35  36
HETATM   36  C   UNL     1      -7.527   8.268  66.607  1.00  0.00    -0.086 C  
BRANCH  36  37
HETATM   37  N   UNL     1      -8.634   7.300  66.560  1.00  0.00    -0.126 NA 
HETATM   38  C   UNL     1      -8.882   6.668  67.860  1.00  0.00    -0.115 C  
HETATM   39  C   UNL     1      -8.483   6.291  65.501  1.00  0.00    -0.144 C  
HETATM   40  C   UNL     1      -7.416   5.235  65.806  1.00  0.00    -0.082 C  
HETATM   41  C   UNL     1      -7.826   5.630  68.252  1.00  0.00    -0.096 C  
HETATM   42  C   UNL     1      -7.653   4.564  67.164  1.00  0.00    -0.086 C  
BRANCH  42  43
HETATM   43  C   UNL     1      -8.842   3.604  67.110  1.00  0.00    -0.127 C  
HETATM   44  N   UNL     1      -9.376   3.260  68.316  1.00  0.00    -0.187 N  
HETATM   45  H2  UNL     1      -9.007   3.619  69.196  1.00  0.00     0.000 HD 
HETATM   46  O   UNL     1      -9.302   3.118  66.082  1.00  0.00    -0.155 OA 
HETATM   47  H1  UNL     1     -10.170   2.620  68.280  1.00  0.00     0.000 HD 
ENDBRANCH  42  43
ENDBRANCH  36  37
ENDBRANCH  35  36
ENDBRANCH   4  30
TORSDOF 11
ENDMDL
MODEL       62
REMARK 921   NORMALIZED FREE ENERGY PREDICTED BY IDOCK:   -5.95 KCAL/MOL
REMARK 922        TOTAL FREE ENERGY PREDICTED BY IDOCK:  -11.41 KCAL/MOL
REMARK 923 INTER-LIGAND FREE ENERGY PREDICTED BY IDOCK:  -11.74 KCAL/MOL
REMARK 924 INTRA-LIGAND FREE ENERGY PREDICTED BY IDOCK:    0.33 KCAL/MOL
REMARK 927      BINDING AFFINITY PREDICTED BY RF-SCORE:    0.00 PKD
ROOT
HETATM    1  C   UNL     1     -12.966  11.802  63.089  1.00  0.00     0.208 C  
HETATM    2  N   UNL     1     -11.968  12.322  64.012  1.00  0.00    -0.428 N  
HETATM    3  O   UNL     1     -12.884  14.425  63.742  1.00  0.00    -0.644 OA 
HETATM    4  C   UNL     1     -12.060  13.702  64.305  1.00  0.00    -0.434 C  
ENDROOT
BRANCH   2   5
HETATM    5  C   UNL     1     -11.150  11.404  64.807  1.00  0.00    -0.188 C  
BRANCH   5   6
HETATM    6  C   UNL     1      -9.714  11.048  64.392  1.00  0.00    -0.280 C  
BRANCH   6   7
HETATM    7  N   UNL     1      -8.795  11.088  65.555  1.00  0.00    -0.191 NA 
HETATM    8  C   UNL     1      -7.963   9.879  65.648  1.00  0.00    -0.130 C  
HETATM    9  C   UNL     1      -9.460  11.327  66.846  1.00  0.00    -0.177 C  
HETATM   10  C   UNL     1      -9.563   8.871  67.346  1.00  0.00    -0.157 C  
HETATM   11  C   UNL     1     -10.368  10.172  67.260  1.00  0.00    -0.291 C  
HETATM   12  C   UNL     1      -8.746   8.635  66.072  1.00  0.00    -0.196 C  
BRANCH  10  13
HETATM   13  O   UNL     1      -8.642   8.950  68.453  1.00  0.00    -0.132 OA 
BRANCH  13  14
HETATM   14  C   UNL     1      -9.216   9.232  69.654  1.00  0.00    -0.175 C  
HETATM   15  H   UNL     1     -10.541   7.710  69.189  1.00  0.00     0.000 HD 
HETATM   16  O   UNL     1      -8.744   9.991  70.486  1.00  0.00    -0.033 OA 
HETATM   17  N   UNL     1     -10.390   8.544  69.755  1.00  0.00    -0.208 N  
BRANCH  17  18
HETATM   18  C   UNL     1     -11.396   8.983  70.641  1.00  0.00    -0.265 A  
HETATM   19  C   UNL     1     -11.688   8.285  71.834  1.00  0.00    -0.381 A  
HETATM   20  C   UNL     1     -13.066  10.679  71.111  1.00  0.00    -0.415 A  
HETATM   21  C   UNL     1     -12.697   8.850  72.645  1.00  0.00    -0.289 A  
HETATM   22  C   UNL     1     -13.366  10.032  72.300  1.00  0.00    -0.387 A  
HETATM   23  C   UNL     1     -12.089  10.151  70.277  1.00  0.00    -0.282 A  
BRANCH  19  24
HETATM   24  C   UNL     1     -10.999   7.036  72.284  1.00  0.00    -0.279 A  
HETATM   25  C   UNL     1     -11.653   5.793  72.363  1.00  0.00    -0.320 A  
HETATM   26  C   UNL     1     -10.997   4.637  72.806  1.00  0.00    -0.238 A  
HETATM   27  C   UNL     1      -9.671   4.699  73.217  1.00  0.00    -0.154 A  
HETATM   28  C   UNL     1      -8.996   5.912  73.163  1.00  0.00    -0.131 A  
HETATM   29  C   UNL     1      -9.647   7.057  72.689  1.00  0.00    -0.165 A  
ENDBRANCH  19  24
ENDBRANCH  17  18
ENDBRANCH  13  14
ENDBRANCH  10  13
ENDBRANCH   6   7
ENDBRANCH   5   6
ENDBRANCH   2   5
BRANCH   4  30
HETATM   30  C   UNL     1     -11.225  14.326  65.385  1.00  0.00    -0.329 A  
HETATM   31  C   UNL     1     -11.794  14.454  66.661  1.00  0.00    -0.417 A  
HETATM   32  C   UNL     1      -9.918  14.784  65.193  1.00  0.00    -0.279 A  
HETATM   33  C   UNL     1      -9.140  15.197  66.274  1.00  0.00    -0.313 A  
HETATM   34  C   UNL     1     -11.036  14.933  67.737  1.00  0.00    -0.294 A  
HETATM   35  C   UNL     1      -9.690  15.272  67.559  1.00  0.00    -0.204 A  
BRANCH  35  36
HETATM   36  C   UNL     1      -8.837  15.750  68.716  1.00  0.00    -0.207 C  
BRANCH  36  37
HETATM   37  N   UNL     1      -9.035  17.176  69.015  1.00  0.00    -0.175 NA 
HETATM   38  C   UNL     1     -10.143  17.760  68.254  1.00  0.00    -0.371 C  
HETATM   39  C   UNL     1      -7.811  17.979  68.869  1.00  0.00    -0.187 C  
HETATM   40  C   UNL     1      -7.405  18.220  67.412  1.00  0.00    -0.218 C  
HETATM   41  C   UNL     1      -9.822  17.987  66.774  1.00  0.00    -0.335 C  
HETATM   42  C   UNL     1      -8.552  18.826  66.595  1.00  0.00    -0.306 C  
BRANCH  42  43
HETATM   43  C   UNL     1      -8.780  20.293  66.960  1.00  0.00    -0.322 C  
HETATM   44  N   UNL     1      -7.652  21.036  67.142  1.00  0.00    -0.559 N  
HETATM   45  H2  UNL     1      -6.718  20.639  67.042  1.00  0.00     0.000 HD 
HETATM   46  O   UNL     1      -9.880  20.809  67.124  1.00  0.00    -0.463 OA 
HETATM   47  H1  UNL     1      -7.804  22.015  67.385  1.00  0.00     0.000 HD 
ENDBRANCH  42  43
ENDBRANCH  36  37
ENDBRANCH  35  36
ENDBRANCH   4  30
TORSDOF 11
ENDMDL
MODEL       63
REMARK 921   NORMALIZED FREE ENERGY PREDICTED BY IDOCK:   -5.95 KCAL/MOL
REMARK 922        TOTAL FREE ENERGY PREDICTED BY IDOCK:  -11.40 KCAL/MOL
REMARK 923 INTER-LIGAND FREE ENERGY PREDICTED BY IDOCK:   -8.76 KCAL/MOL
REMARK 924 INTRA-LIGAND FREE ENERGY PREDICTED BY IDOCK:   -2.64 KCAL/MOL
REMARK 927      BINDING AFFINITY PREDICTED BY RF-SCORE:    0.00 PKD
ROOT
HETATM    1  C   UNL     1     -10.376   7.435  73.717  1.00  0.00    -0.248 C  
HETATM    2  N   UNL     1      -9.836   6.702  72.582  1.00  0.00    -0.168 N  
HETATM    3  O   UNL     1     -11.995   6.156  71.968  1.00  0.00    -0.324 OA 
HETATM    4  C   UNL     1     -10.788   6.114  71.718  1.00  0.00    -0.255 C  
ENDROOT
BRANCH   2   5
HETATM    5  C   UNL     1      -8.428   6.852  72.211  1.00  0.00    -0.108 C  
BRANCH   5   6
HETATM    6  C   UNL     1      -8.009   7.645  70.962  1.00  0.00    -0.094 C  
BRANCH   6   7
HETATM    7  N   UNL     1      -8.190   9.103  71.168  1.00  0.00    -0.303 NA 
HETATM    8  C   UNL     1      -9.578   9.529  70.937  1.00  0.00    -0.146 C  
HETATM    9  C   UNL     1      -7.278   9.945  70.376  1.00  0.00    -0.134 C  
HETATM   10  C   UNL     1      -8.994  10.256  68.573  1.00  0.00    -0.134 C  
HETATM   11  C   UNL     1      -7.548   9.851  68.877  1.00  0.00    -0.083 C  
HETATM   12  C   UNL     1      -9.984   9.498  69.462  1.00  0.00    -0.205 C  
BRANCH  10  13
HETATM   13  O   UNL     1      -9.160  11.665  68.826  1.00  0.00    -0.133 OA 
BRANCH  13  14
HETATM   14  C   UNL     1      -9.516  12.403  67.740  1.00  0.00    -0.199 C  
HETATM   15  H   UNL     1     -11.337  11.426  67.885  1.00  0.00     0.000 HD 
HETATM   16  O   UNL     1      -8.852  13.315  67.273  1.00  0.00    -0.197 OA 
HETATM   17  N   UNL     1     -10.713  11.944  67.268  1.00  0.00    -0.227 N  
BRANCH  17  18
HETATM   18  C   UNL     1     -11.086  12.184  65.930  1.00  0.00    -0.318 A  
HETATM   19  C   UNL     1     -10.547  11.430  64.864  1.00  0.00    -0.368 A  
HETATM   20  C   UNL     1     -12.480  13.487  64.430  1.00  0.00    -0.324 A  
HETATM   21  C   UNL     1     -11.030  11.754  63.576  1.00  0.00    -0.499 A  
HETATM   22  C   UNL     1     -11.988  12.753  63.361  1.00  0.00    -0.613 A  
HETATM   23  C   UNL     1     -12.023  13.210  65.712  1.00  0.00    -0.473 A  
BRANCH  19  24
HETATM   24  C   UNL     1      -9.546  10.330  65.016  1.00  0.00    -0.346 A  
HETATM   25  C   UNL     1      -8.222  10.438  64.553  1.00  0.00    -0.131 A  
HETATM   26  C   UNL     1      -7.301   9.389  64.687  1.00  0.00    -0.104 A  
HETATM   27  C   UNL     1      -7.692   8.185  65.259  1.00  0.00    -0.101 A  
HETATM   28  C   UNL     1      -8.995   8.038  65.718  1.00  0.00    -0.148 A  
HETATM   29  C   UNL     1      -9.900   9.100  65.612  1.00  0.00    -0.164 A  
ENDBRANCH  19  24
ENDBRANCH  17  18
ENDBRANCH  13  14
ENDBRANCH  10  13
ENDBRANCH   6   7
ENDBRANCH   5   6
ENDBRANCH   2   5
BRANCH   4  30
HETATM   30  C   UNL     1     -10.380   5.503  70.409  1.00  0.00    -0.346 A  
HETATM   31  C   UNL     1      -9.720   4.265  70.442  1.00  0.00    -0.280 A  
HETATM   32  C   UNL     1     -10.619   6.093  69.166  1.00  0.00    -0.345 A  
HETATM   33  C   UNL     1     -10.367   5.396  67.984  1.00  0.00    -0.215 A  
HETATM   34  C   UNL     1      -9.403   3.592  69.256  1.00  0.00    -0.242 A  
HETATM   35  C   UNL     1      -9.759   4.136  68.017  1.00  0.00    -0.155 A  
BRANCH  35  36
HETATM   36  C   UNL     1      -9.467   3.406  66.722  1.00  0.00    -0.137 C  
BRANCH  36  37
HETATM   37  N   UNL     1      -8.028   3.319  66.432  1.00  0.00    -0.081 NA 
HETATM   38  C   UNL     1      -7.536   4.478  65.680  1.00  0.00    -0.082 C  
HETATM   39  C   UNL     1      -7.638   2.061  65.778  1.00  0.00    -0.071 C  
HETATM   40  C   UNL     1      -8.059   1.976  64.308  1.00  0.00    -0.074 C  
HETATM   41  C   UNL     1      -7.959   4.483  64.209  1.00  0.00    -0.096 C  
HETATM   42  C   UNL     1      -7.559   3.181  63.504  1.00  0.00    -0.063 C  
BRANCH  42  43
HETATM   43  C   UNL     1      -6.052   3.102  63.261  1.00  0.00    -0.014 C  
HETATM   44  N   UNL     1      -5.517   4.128  62.542  1.00  0.00    -0.009 N  
HETATM   45  H2  UNL     1      -6.085   4.899  62.189  1.00  0.00     0.000 HD 
HETATM   46  O   UNL     1      -5.332   2.182  63.635  1.00  0.00    -0.007 OA 
HETATM   47  H1  UNL     1      -4.511   4.076  62.380  1.00  0.00     0.000 HD 
ENDBRANCH  42  43
ENDBRANCH  36  37
ENDBRANCH  35  36
ENDBRANCH   4  30
TORSDOF 11
ENDMDL
MODEL       64
REMARK 921   NORMALIZED FREE ENERGY PREDICTED BY IDOCK:   -5.94 KCAL/MOL
REMARK 922        TOTAL FREE ENERGY PREDICTED BY IDOCK:  -11.39 KCAL/MOL
REMARK 923 INTER-LIGAND FREE ENERGY PREDICTED BY IDOCK:   -9.72 KCAL/MOL
REMARK 924 INTRA-LIGAND FREE ENERGY PREDICTED BY IDOCK:   -1.67 KCAL/MOL
REMARK 927      BINDING AFFINITY PREDICTED BY RF-SCORE:    0.00 PKD
ROOT
HETATM    1  C   UNL     1     -12.050  11.276  70.457  1.00  0.00    -0.387 C  
HETATM    2  N   UNL     1     -11.246  10.111  70.121  1.00  0.00    -0.288 N  
HETATM    3  O   UNL     1     -12.282   8.961  71.836  1.00  0.00    -0.325 OA 
HETATM    4  C   UNL     1     -11.493   8.950  70.889  1.00  0.00    -0.288 C  
ENDROOT
BRANCH   2   5
HETATM    5  C   UNL     1     -10.482  10.078  68.873  1.00  0.00    -0.210 C  
BRANCH   5   6
HETATM    6  C   UNL     1     -11.159  10.318  67.514  1.00  0.00    -0.232 C  
BRANCH   6   7
HETATM    7  N   UNL     1     -10.222  10.950  66.554  1.00  0.00    -0.225 NA 
HETATM    8  C   UNL     1      -9.363  11.956  67.195  1.00  0.00    -0.180 C  
HETATM    9  C   UNL     1     -10.872  11.541  65.371  1.00  0.00    -0.259 C  
HETATM   10  C   UNL     1     -10.912  13.817  66.424  1.00  0.00    -0.298 C  
HETATM   11  C   UNL     1     -11.746  12.741  65.723  1.00  0.00    -0.449 C  
HETATM   12  C   UNL     1     -10.112  13.230  67.591  1.00  0.00    -0.229 C  
BRANCH  10  13
HETATM   13  O   UNL     1      -9.975  14.384  65.486  1.00  0.00    -0.339 OA 
BRANCH  13  14
HETATM   14  C   UNL     1      -9.928  15.744  65.476  1.00  0.00    -0.306 C  
HETATM   15  H   UNL     1      -8.268  15.526  66.696  1.00  0.00     0.000 HD 
HETATM   16  O   UNL     1     -10.616  16.456  64.762  1.00  0.00    -0.676 OA 
HETATM   17  N   UNL     1      -9.008  16.160  66.395  1.00  0.00    -0.287 N  
BRANCH  17  18
HETATM   18  C   UNL     1      -9.077  17.464  66.928  1.00  0.00    -0.245 A  
HETATM   19  C   UNL     1      -9.793  17.741  68.113  1.00  0.00    -0.326 A  
HETATM   20  C   UNL     1      -8.375  19.774  66.697  1.00  0.00    -0.360 A  
HETATM   21  C   UNL     1      -9.756  19.083  68.554  1.00  0.00    -0.458 A  
HETATM   22  C   UNL     1      -9.050  20.080  67.868  1.00  0.00    -0.377 A  
HETATM   23  C   UNL     1      -8.396  18.470  66.221  1.00  0.00    -0.235 A  
BRANCH  19  24
HETATM   24  C   UNL     1     -10.545  16.727  68.915  1.00  0.00    -0.350 A  
HETATM   25  C   UNL     1     -11.905  16.441  68.697  1.00  0.00     0.138 A  
HETATM   26  C   UNL     1     -12.598  15.501  69.470  1.00  0.00     0.037 A  
HETATM   27  C   UNL     1     -11.957  14.843  70.512  1.00  0.00    -0.365 A  
HETATM   28  C   UNL     1     -10.617  15.108  70.765  1.00  0.00    -0.010 A  
HETATM   29  C   UNL     1      -9.921  16.024  69.968  1.00  0.00     0.046 A  
ENDBRANCH  19  24
ENDBRANCH  17  18
ENDBRANCH  13  14
ENDBRANCH  10  13
ENDBRANCH   6   7
ENDBRANCH   5   6
ENDBRANCH   2   5
BRANCH   4  30
HETATM   30  C   UNL     1     -10.881   7.629  70.522  1.00  0.00    -0.249 A  
HETATM   31  C   UNL     1      -9.706   7.244  71.185  1.00  0.00    -0.171 A  
HETATM   32  C   UNL     1     -11.414   6.764  69.563  1.00  0.00    -0.247 A  
HETATM   33  C   UNL     1     -10.894   5.481  69.390  1.00  0.00    -0.236 A  
HETATM   34  C   UNL     1      -9.141   5.982  70.965  1.00  0.00    -0.150 A  
HETATM   35  C   UNL     1      -9.754   5.075  70.092  1.00  0.00    -0.280 A  
BRANCH  35  36
HETATM   36  C   UNL     1      -9.187   3.688  69.872  1.00  0.00    -0.144 C  
BRANCH  36  37
HETATM   37  N   UNL     1      -8.008   3.691  68.991  1.00  0.00    -0.058 NA 
HETATM   38  C   UNL     1      -8.104   4.697  67.930  1.00  0.00    -0.092 C  
HETATM   39  C   UNL     1      -7.690   2.366  68.437  1.00  0.00    -0.054 C  
HETATM   40  C   UNL     1      -8.655   1.911  67.339  1.00  0.00    -0.107 C  
HETATM   41  C   UNL     1      -9.089   4.328  66.818  1.00  0.00    -0.141 C  
HETATM   42  C   UNL     1      -8.775   2.951  66.220  1.00  0.00    -0.134 C  
BRANCH  42  43
HETATM   43  C   UNL     1      -7.518   2.979  65.350  1.00  0.00    -0.073 C  
HETATM   44  N   UNL     1      -7.719   3.279  64.036  1.00  0.00    -0.075 N  
HETATM   45  H2  UNL     1      -8.646   3.473  63.658  1.00  0.00     0.000 HD 
HETATM   46  O   UNL     1      -6.387   2.722  65.748  1.00  0.00    -0.024 OA 
HETATM   47  H1  UNL     1      -6.880   3.298  63.455  1.00  0.00     0.000 HD 
ENDBRANCH  42  43
ENDBRANCH  36  37
ENDBRANCH  35  36
ENDBRANCH   4  30
TORSDOF 11
ENDMDL
MODEL       65
REMARK 921   NORMALIZED FREE ENERGY PREDICTED BY IDOCK:   -5.92 KCAL/MOL
REMARK 922        TOTAL FREE ENERGY PREDICTED BY IDOCK:  -11.36 KCAL/MOL
REMARK 923 INTER-LIGAND FREE ENERGY PREDICTED BY IDOCK:  -10.74 KCAL/MOL
REMARK 924 INTRA-LIGAND FREE ENERGY PREDICTED BY IDOCK:   -0.62 KCAL/MOL
REMARK 927      BINDING AFFINITY PREDICTED BY RF-SCORE:    0.00 PKD
ROOT
HETATM    1  C   UNL     1      -8.834   7.647  74.150  1.00  0.00    -0.228 C  
HETATM    2  N   UNL     1      -9.205   7.029  72.886  1.00  0.00    -0.137 N  
HETATM    3  O   UNL     1      -7.022   6.310  72.652  1.00  0.00    -0.073 OA 
HETATM    4  C   UNL     1      -8.177   6.323  72.221  1.00  0.00    -0.108 C  
ENDROOT
BRANCH   2   5
HETATM    5  C   UNL     1     -10.616   6.891  72.520  1.00  0.00    -0.222 C  
BRANCH   5   6
HETATM    6  C   UNL     1     -11.574   8.093  72.562  1.00  0.00    -0.404 C  
BRANCH   6   7
HETATM    7  N   UNL     1     -12.236   8.296  71.251  1.00  0.00    -0.289 NA 
HETATM    8  C   UNL     1     -11.273   8.605  70.184  1.00  0.00    -0.146 C  
HETATM    9  C   UNL     1     -13.302   9.312  71.260  1.00  0.00    -0.258 C  
HETATM   10  C   UNL     1     -11.732  11.091  70.446  1.00  0.00    -0.343 C  
HETATM   11  C   UNL     1     -12.768  10.718  71.512  1.00  0.00    -0.536 C  
HETATM   12  C   UNL     1     -10.663  10.003  70.304  1.00  0.00    -0.367 C  
BRANCH  10  13
HETATM   13  O   UNL     1     -12.389  11.236  69.170  1.00  0.00    -0.403 OA 
BRANCH  13  14
HETATM   14  C   UNL     1     -11.878  12.212  68.373  1.00  0.00    -0.303 C  
HETATM   15  H   UNL     1     -10.500  12.499  69.893  1.00  0.00     0.000 HD 
HETATM   16  O   UNL     1     -12.218  12.413  67.218  1.00  0.00    -0.478 OA 
HETATM   17  N   UNL     1     -10.950  12.921  69.081  1.00  0.00    -0.183 N  
BRANCH  17  18
HETATM   18  C   UNL     1     -10.612  14.233  68.693  1.00  0.00    -0.250 A  
HETATM   19  C   UNL     1     -11.095  15.360  69.396  1.00  0.00    -0.283 A  
HETATM   20  C   UNL     1      -9.352  15.617  67.150  1.00  0.00    -0.229 A  
HETATM   21  C   UNL     1     -10.655  16.616  68.921  1.00  0.00    -0.337 A  
HETATM   22  C   UNL     1      -9.789  16.744  67.827  1.00  0.00    -0.257 A  
HETATM   23  C   UNL     1      -9.770  14.363  67.575  1.00  0.00    -0.215 A  
BRANCH  19  24
HETATM   24  C   UNL     1     -11.996  15.302  70.588  1.00  0.00    -0.386 A  
HETATM   25  C   UNL     1     -13.392  15.164  70.479  1.00  0.00    -0.200 A  
HETATM   26  C   UNL     1     -14.224  15.131  71.607  1.00  0.00    -0.664 A  
HETATM   27  C   UNL     1     -13.683  15.270  72.879  1.00  0.00    -0.531 A  
HETATM   28  C   UNL     1     -12.310  15.419  73.024  1.00  0.00    -0.535 A  
HETATM   29  C   UNL     1     -11.481  15.418  71.897  1.00  0.00    -0.513 A  
ENDBRANCH  19  24
ENDBRANCH  17  18
ENDBRANCH  13  14
ENDBRANCH  10  13
ENDBRANCH   6   7
ENDBRANCH   5   6
ENDBRANCH   2   5
BRANCH   4  30
HETATM   30  C   UNL     1      -8.468   5.476  71.016  1.00  0.00    -0.125 A  
HETATM   31  C   UNL     1      -7.604   4.404  70.745  1.00  0.00    -0.052 A  
HETATM   32  C   UNL     1      -9.546   5.693  70.153  1.00  0.00    -0.215 A  
HETATM   33  C   UNL     1      -9.857   4.772  69.153  1.00  0.00    -0.254 A  
HETATM   34  C   UNL     1      -7.875   3.514  69.697  1.00  0.00    -0.053 A  
HETATM   35  C   UNL     1      -9.027   3.670  68.917  1.00  0.00    -0.182 A  
BRANCH  35  36
HETATM   36  C   UNL     1      -9.365   2.696  67.808  1.00  0.00    -0.181 C  
BRANCH  36  37
HETATM   37  N   UNL     1      -8.418   2.764  66.685  1.00  0.00    -0.097 NA 
HETATM   38  C   UNL     1      -7.935   4.126  66.440  1.00  0.00    -0.098 C  
HETATM   39  C   UNL     1      -8.932   2.154  65.449  1.00  0.00    -0.121 C  
HETATM   40  C   UNL     1     -10.004   2.995  64.749  1.00  0.00     0.043 C  
HETATM   41  C   UNL     1      -8.974   5.039  65.782  1.00  0.00    -0.145 C  
HETATM   42  C   UNL     1      -9.522   4.426  64.487  1.00  0.00    -0.131 C  
BRANCH  42  43
HETATM   43  C   UNL     1      -8.496   4.470  63.355  1.00  0.00    -0.114 C  
HETATM   44  N   UNL     1      -8.662   3.538  62.374  1.00  0.00    -0.081 N  
HETATM   45  H2  UNL     1      -9.421   2.857  62.395  1.00  0.00     0.000 HD 
HETATM   46  O   UNL     1      -7.548   5.246  63.301  1.00  0.00    -0.060 OA 
HETATM   47  H1  UNL     1      -7.978   3.568  61.618  1.00  0.00     0.000 HD 
ENDBRANCH  42  43
ENDBRANCH  36  37
ENDBRANCH  35  36
ENDBRANCH   4  30
TORSDOF 11
ENDMDL
MODEL       66
REMARK 921   NORMALIZED FREE ENERGY PREDICTED BY IDOCK:   -5.92 KCAL/MOL
REMARK 922        TOTAL FREE ENERGY PREDICTED BY IDOCK:  -11.36 KCAL/MOL
REMARK 923 INTER-LIGAND FREE ENERGY PREDICTED BY IDOCK:  -10.14 KCAL/MOL
REMARK 924 INTRA-LIGAND FREE ENERGY PREDICTED BY IDOCK:   -1.21 KCAL/MOL
REMARK 927      BINDING AFFINITY PREDICTED BY RF-SCORE:    0.00 PKD
ROOT
HETATM    1  C   UNL     1      -5.301  10.961  65.463  1.00  0.00    -0.126 C  
HETATM    2  N   UNL     1      -5.906  10.775  66.773  1.00  0.00    -0.066 N  
HETATM    3  O   UNL     1      -7.363   9.250  65.831  1.00  0.00    -0.092 OA 
HETATM    4  C   UNL     1      -6.947   9.821  66.841  1.00  0.00    -0.088 C  
ENDROOT
BRANCH   2   5
HETATM    5  C   UNL     1      -5.252  11.309  67.969  1.00  0.00    -0.043 C  
BRANCH   5   6
HETATM    6  C   UNL     1      -5.439  12.774  68.397  1.00  0.00    -0.060 C  
BRANCH   6   7
HETATM    7  N   UNL     1      -6.444  13.456  67.545  1.00  0.00    -0.235 NA 
HETATM    8  C   UNL     1      -6.234  14.910  67.493  1.00  0.00    -0.008 C  
HETATM    9  C   UNL     1      -7.842  13.174  67.912  1.00  0.00    -0.151 C  
HETATM   10  C   UNL     1      -7.989  15.259  69.297  1.00  0.00    -0.223 C  
HETATM   11  C   UNL     1      -8.215  13.744  69.277  1.00  0.00     0.465 C  
HETATM   12  C   UNL     1      -6.585  15.620  68.802  1.00  0.00    -0.110 C  
BRANCH  10  13
HETATM   13  O   UNL     1      -8.944  15.898  68.427  1.00  0.00    -0.180 OA 
BRANCH  13  14
HETATM   14  C   UNL     1     -10.139  16.194  69.007  1.00  0.00    -0.247 C  
HETATM   15  H   UNL     1      -9.370  15.242  70.679  1.00  0.00     0.000 HD 
HETATM   16  O   UNL     1     -10.990  16.917  68.513  1.00  0.00    -0.350 OA 
HETATM   17  N   UNL     1     -10.221  15.542  70.204  1.00  0.00    -0.288 N  
BRANCH  17  18
HETATM   18  C   UNL     1     -11.479  15.283  70.786  1.00  0.00    -0.325 A  
HETATM   19  C   UNL     1     -12.304  14.232  70.327  1.00  0.00    -0.418 A  
HETATM   20  C   UNL     1     -13.071  15.912  72.505  1.00  0.00    -0.536 A  
HETATM   21  C   UNL     1     -13.525  14.063  71.018  1.00  0.00    -0.178 A  
HETATM   22  C   UNL     1     -13.898  14.878  72.095  1.00  0.00    -0.576 A  
HETATM   23  C   UNL     1     -11.867  16.122  71.845  1.00  0.00    -0.605 A  
BRANCH  19  24
HETATM   24  C   UNL     1     -11.962  13.305  69.205  1.00  0.00    -0.354 A  
HETATM   25  C   UNL     1     -11.433  12.018  69.417  1.00  0.00    -0.361 A  
HETATM   26  C   UNL     1     -11.100  11.170  68.353  1.00  0.00    -0.303 A  
HETATM   27  C   UNL     1     -11.254  11.599  67.041  1.00  0.00    -0.376 A  
HETATM   28  C   UNL     1     -11.763  12.868  66.793  1.00  0.00    -0.445 A  
HETATM   29  C   UNL     1     -12.126  13.699  67.860  1.00  0.00    -0.318 A  
ENDBRANCH  19  24
ENDBRANCH  17  18
ENDBRANCH  13  14
ENDBRANCH  10  13
ENDBRANCH   6   7
ENDBRANCH   5   6
ENDBRANCH   2   5
BRANCH   4  30
HETATM   30  C   UNL     1      -7.520   9.387  68.159  1.00  0.00    -0.079 A  
HETATM   31  C   UNL     1      -8.197   8.158  68.206  1.00  0.00    -0.129 A  
HETATM   32  C   UNL     1      -7.420  10.134  69.335  1.00  0.00    -0.119 A  
HETATM   33  C   UNL     1      -7.826   9.599  70.558  1.00  0.00    -0.150 A  
HETATM   34  C   UNL     1      -8.667   7.647  69.423  1.00  0.00    -0.136 A  
HETATM   35  C   UNL     1      -8.450   8.348  70.615  1.00  0.00    -0.141 A  
BRANCH  35  36
HETATM   36  C   UNL     1      -8.909   7.795  71.949  1.00  0.00    -0.121 C  
BRANCH  36  37
HETATM   37  N   UNL     1     -10.201   8.350  72.378  1.00  0.00    -0.325 NA 
HETATM   38  C   UNL     1     -11.027   7.368  73.087  1.00  0.00    -0.359 C  
HETATM   39  C   UNL     1     -10.956   8.986  71.286  1.00  0.00    -0.313 C  
HETATM   40  C   UNL     1     -11.577   7.986  70.307  1.00  0.00    -0.003 C  
HETATM   41  C   UNL     1     -11.645   6.307  72.172  1.00  0.00    -0.367 C  
HETATM   42  C   UNL     1     -12.441   6.945  71.028  1.00  0.00    -0.364 C  
BRANCH  42  43
HETATM   43  C   UNL     1     -13.755   7.555  71.516  1.00  0.00    -0.372 C  
HETATM   44  N   UNL     1     -14.360   6.902  72.547  1.00  0.00    -0.365 N  
HETATM   45  H2  UNL     1     -13.961   6.062  72.967  1.00  0.00     0.000 HD 
HETATM   46  O   UNL     1     -14.292   8.542  71.024  1.00  0.00    -0.202 OA 
HETATM   47  H1  UNL     1     -15.237   7.309  72.874  1.00  0.00     0.000 HD 
ENDBRANCH  42  43
ENDBRANCH  36  37
ENDBRANCH  35  36
ENDBRANCH   4  30
TORSDOF 11
ENDMDL
MODEL       67
REMARK 921   NORMALIZED FREE ENERGY PREDICTED BY IDOCK:   -5.91 KCAL/MOL
REMARK 922        TOTAL FREE ENERGY PREDICTED BY IDOCK:  -11.35 KCAL/MOL
REMARK 923 INTER-LIGAND FREE ENERGY PREDICTED BY IDOCK:  -10.24 KCAL/MOL
REMARK 924 INTRA-LIGAND FREE ENERGY PREDICTED BY IDOCK:   -1.11 KCAL/MOL
REMARK 927      BINDING AFFINITY PREDICTED BY RF-SCORE:    0.00 PKD
ROOT
HETATM    1  C   UNL     1      -6.521  18.006  69.244  1.00  0.00    -0.246 C  
HETATM    2  N   UNL     1      -7.351  16.943  68.698  1.00  0.00    -0.210 N  
HETATM    3  O   UNL     1      -9.180  18.341  68.887  1.00  0.00    -0.269 OA 
HETATM    4  C   UNL     1      -8.717  17.259  68.520  1.00  0.00    -0.273 C  
ENDROOT
BRANCH   2   5
HETATM    5  C   UNL     1      -6.732  15.764  68.089  1.00  0.00    -0.122 C  
BRANCH   5   6
HETATM    6  C   UNL     1      -6.396  14.517  68.922  1.00  0.00    -0.089 C  
BRANCH   6   7
HETATM    7  N   UNL     1      -6.057  13.366  68.050  1.00  0.00    -0.115 NA 
HETATM    8  C   UNL     1      -7.233  12.839  67.343  1.00  0.00    -0.132 C  
HETATM    9  C   UNL     1      -5.364  12.265  68.740  1.00  0.00    -0.050 C  
HETATM   10  C   UNL     1      -7.513  11.022  69.097  1.00  0.00    -0.121 C  
HETATM   11  C   UNL     1      -6.250  11.570  69.769  1.00  0.00    -0.138 C  
HETATM   12  C   UNL     1      -8.209  12.098  68.258  1.00  0.00    -0.168 C  
BRANCH  10  13
HETATM   13  O   UNL     1      -7.155   9.937  68.218  1.00  0.00    -0.075 OA 
BRANCH  13  14
HETATM   14  C   UNL     1      -8.108   8.976  68.079  1.00  0.00    -0.105 C  
HETATM   15  H   UNL     1      -7.416   8.265  69.898  1.00  0.00     0.000 HD 
HETATM   16  O   UNL     1      -8.970   8.974  67.214  1.00  0.00    -0.126 OA 
HETATM   17  N   UNL     1      -7.925   8.030  69.046  1.00  0.00    -0.113 N  
BRANCH  17  18
HETATM   18  C   UNL     1      -8.438   6.728  68.871  1.00  0.00    -0.120 A  
HETATM   19  C   UNL     1      -9.602   6.295  69.544  1.00  0.00    -0.163 A  
HETATM   20  C   UNL     1      -8.191   4.603  67.727  1.00  0.00    -0.099 A  
HETATM   21  C   UNL     1     -10.024   4.978  69.255  1.00  0.00    -0.277 A  
HETATM   22  C   UNL     1      -9.342   4.150  68.354  1.00  0.00    -0.213 A  
HETATM   23  C   UNL     1      -7.733   5.887  67.992  1.00  0.00    -0.100 A  
BRANCH  19  24
HETATM   24  C   UNL     1     -10.399   7.128  70.495  1.00  0.00    -0.215 A  
HETATM   25  C   UNL     1     -10.747   8.465  70.227  1.00  0.00    -0.240 A  
HETATM   26  C   UNL     1     -11.478   9.238  71.139  1.00  0.00    -0.403 A  
HETATM   27  C   UNL     1     -11.855   8.704  72.365  1.00  0.00    -0.402 A  
HETATM   28  C   UNL     1     -11.519   7.390  72.669  1.00  0.00    -0.337 A  
HETATM   29  C   UNL     1     -10.817   6.613  71.741  1.00  0.00    -0.265 A  
ENDBRANCH  19  24
ENDBRANCH  17  18
ENDBRANCH  13  14
ENDBRANCH  10  13
ENDBRANCH   6   7
ENDBRANCH   5   6
ENDBRANCH   2   5
BRANCH   4  30
HETATM   30  C   UNL     1      -9.641  16.331  67.786  1.00  0.00    -0.223 A  
HETATM   31  C   UNL     1     -10.284  15.326  68.526  1.00  0.00    -0.224 A  
HETATM   32  C   UNL     1      -9.899  16.411  66.415  1.00  0.00    -0.312 A  
HETATM   33  C   UNL     1     -10.894  15.629  65.828  1.00  0.00    -0.312 A  
HETATM   34  C   UNL     1     -11.235  14.492  67.924  1.00  0.00    -0.310 A  
HETATM   35  C   UNL     1     -11.575  14.664  66.577  1.00  0.00    -0.350 A  
BRANCH  35  36
HETATM   36  C   UNL     1     -12.633  13.805  65.916  1.00  0.00    -0.447 C  
BRANCH  36  37
HETATM   37  N   UNL     1     -12.185  12.421  65.700  1.00  0.00    -0.626 NA 
HETATM   38  C   UNL     1     -10.774  12.227  66.047  1.00  0.00    -0.261 C  
HETATM   39  C   UNL     1     -12.471  11.919  64.347  1.00  0.00    -0.114 C  
HETATM   40  C   UNL     1     -11.557  12.507  63.268  1.00  0.00    -0.445 C  
HETATM   41  C   UNL     1      -9.801  12.833  65.032  1.00  0.00    -0.077 C  
HETATM   42  C   UNL     1     -10.076  12.321  63.613  1.00  0.00    -0.369 C  
BRANCH  42  43
HETATM   43  C   UNL     1      -9.642  10.865  63.437  1.00  0.00    -0.332 C  
HETATM   44  N   UNL     1     -10.224  10.199  62.400  1.00  0.00    -0.459 N  
HETATM   45  H2  UNL     1     -10.904  10.643  61.782  1.00  0.00     0.000 HD 
HETATM   46  O   UNL     1      -8.856  10.277  64.171  1.00  0.00    -0.189 OA 
HETATM   47  H1  UNL     1      -9.935   9.228  62.282  1.00  0.00     0.000 HD 
ENDBRANCH  42  43
ENDBRANCH  36  37
ENDBRANCH  35  36
ENDBRANCH   4  30
TORSDOF 11
ENDMDL
MODEL       68
REMARK 921   NORMALIZED FREE ENERGY PREDICTED BY IDOCK:   -5.91 KCAL/MOL
REMARK 922        TOTAL FREE ENERGY PREDICTED BY IDOCK:  -11.34 KCAL/MOL
REMARK 923 INTER-LIGAND FREE ENERGY PREDICTED BY IDOCK:   -9.81 KCAL/MOL
REMARK 924 INTRA-LIGAND FREE ENERGY PREDICTED BY IDOCK:   -1.53 KCAL/MOL
REMARK 927      BINDING AFFINITY PREDICTED BY RF-SCORE:    0.00 PKD
ROOT
HETATM    1  C   UNL     1      -5.478   9.841  63.147  1.00  0.00    -0.089 C  
HETATM    2  N   UNL     1      -6.566   9.303  63.949  1.00  0.00    -0.090 N  
HETATM    3  O   UNL     1      -5.129   9.220  65.756  1.00  0.00    -0.035 OA 
HETATM    4  C   UNL     1      -6.267   9.061  65.310  1.00  0.00    -0.063 C  
ENDROOT
BRANCH   2   5
HETATM    5  C   UNL     1      -7.938   9.326  63.440  1.00  0.00    -0.143 C  
BRANCH   5   6
HETATM    6  C   UNL     1      -8.629  10.647  63.062  1.00  0.00    -0.183 C  
BRANCH   6   7
HETATM    7  N   UNL     1     -10.046  10.654  63.501  1.00  0.00    -0.292 NA 
HETATM    8  C   UNL     1     -10.731  11.906  63.147  1.00  0.00    -0.244 C  
HETATM    9  C   UNL     1     -10.239  10.375  64.934  1.00  0.00    -0.260 C  
HETATM   10  C   UNL     1     -10.332  12.820  65.485  1.00  0.00    -0.284 C  
HETATM   11  C   UNL     1      -9.677  11.478  65.825  1.00  0.00    -0.263 C  
HETATM   12  C   UNL     1     -10.272  13.104  63.980  1.00  0.00    -0.050 C  
BRANCH  10  13
HETATM   13  O   UNL     1     -11.719  12.789  65.874  1.00  0.00    -0.368 OA 
BRANCH  13  14
HETATM   14  C   UNL     1     -12.090  13.762  66.750  1.00  0.00    -0.418 C  
HETATM   15  H   UNL     1     -10.129  13.673  67.415  1.00  0.00     0.000 HD 
HETATM   16  O   UNL     1     -13.160  14.349  66.724  1.00  0.00     0.602 OA 
HETATM   17  N   UNL     1     -11.081  13.951  67.652  1.00  0.00    -0.270 N  
BRANCH  17  18
HETATM   18  C   UNL     1     -11.353  14.528  68.909  1.00  0.00    -0.274 A  
HETATM   19  C   UNL     1     -10.910  15.829  69.237  1.00  0.00    -0.255 A  
HETATM   20  C   UNL     1     -12.437  14.251  71.061  1.00  0.00    -0.432 A  
HETATM   21  C   UNL     1     -11.277  16.299  70.518  1.00  0.00    -0.327 A  
HETATM   22  C   UNL     1     -12.037  15.532  71.410  1.00  0.00    -0.453 A  
HETATM   23  C   UNL     1     -12.087  13.745  69.816  1.00  0.00    -0.400 A  
BRANCH  19  24
HETATM   24  C   UNL     1     -10.121  16.718  68.328  1.00  0.00    -0.274 A  
HETATM   25  C   UNL     1      -8.774  16.473  68.007  1.00  0.00    -0.189 A  
HETATM   26  C   UNL     1      -8.044  17.327  67.170  1.00  0.00    -0.225 A  
HETATM   27  C   UNL     1      -8.635  18.474  66.655  1.00  0.00    -0.295 A  
HETATM   28  C   UNL     1      -9.961  18.754  66.960  1.00  0.00    -0.379 A  
HETATM   29  C   UNL     1     -10.695  17.880  67.770  1.00  0.00    -0.339 A  
ENDBRANCH  19  24
ENDBRANCH  17  18
ENDBRANCH  13  14
ENDBRANCH  10  13
ENDBRANCH   6   7
ENDBRANCH   5   6
ENDBRANCH   2   5
BRANCH   4  30
HETATM   30  C   UNL     1      -7.343   8.697  66.291  1.00  0.00    -0.086 A  
HETATM   31  C   UNL     1      -8.038   7.495  66.085  1.00  0.00    -0.116 A  
HETATM   32  C   UNL     1      -7.691   9.483  67.393  1.00  0.00    -0.095 A  
HETATM   33  C   UNL     1      -8.580   9.008  68.357  1.00  0.00    -0.130 A  
HETATM   34  C   UNL     1      -8.982   7.046  67.017  1.00  0.00    -0.130 A  
HETATM   35  C   UNL     1      -9.232   7.782  68.181  1.00  0.00    -0.138 A  
BRANCH  35  36
HETATM   36  C   UNL     1     -10.216   7.295  69.225  1.00  0.00    -0.193 C  
BRANCH  36  37
HETATM   37  N   UNL     1      -9.552   6.699  70.395  1.00  0.00    -0.166 NA 
HETATM   38  C   UNL     1     -10.359   5.650  71.024  1.00  0.00    -0.233 C  
HETATM   39  C   UNL     1      -9.111   7.694  71.385  1.00  0.00    -0.133 C  
HETATM   40  C   UNL     1     -10.257   8.301  72.198  1.00  0.00    -0.355 C  
HETATM   41  C   UNL     1     -11.554   6.185  71.818  1.00  0.00    -0.333 C  
HETATM   42  C   UNL     1     -11.118   7.221  72.862  1.00  0.00    -0.369 C  
BRANCH  42  43
HETATM   43  C   UNL     1     -10.390   6.574  74.040  1.00  0.00    -0.340 C  
HETATM   44  N   UNL     1      -9.353   7.292  74.556  1.00  0.00    -0.431 N  
HETATM   45  H2  UNL     1      -9.081   8.201  74.182  1.00  0.00     0.000 HD 
HETATM   46  O   UNL     1     -10.656   5.471  74.505  1.00  0.00    -0.270 OA 
HETATM   47  H1  UNL     1      -8.867   6.860  75.343  1.00  0.00     0.000 HD 
ENDBRANCH  42  43
ENDBRANCH  36  37
ENDBRANCH  35  36
ENDBRANCH   4  30
TORSDOF 11
ENDMDL
MODEL       69
REMARK 921   NORMALIZED FREE ENERGY PREDICTED BY IDOCK:   -5.91 KCAL/MOL
REMARK 922        TOTAL FREE ENERGY PREDICTED BY IDOCK:  -11.34 KCAL/MOL
REMARK 923 INTER-LIGAND FREE ENERGY PREDICTED BY IDOCK:   -9.13 KCAL/MOL
REMARK 924 INTRA-LIGAND FREE ENERGY PREDICTED BY IDOCK:   -2.20 KCAL/MOL
REMARK 927      BINDING AFFINITY PREDICTED BY RF-SCORE:    0.00 PKD
ROOT
HETATM    1  C   UNL     1     -12.457   8.513  72.350  1.00  0.00    -0.353 C  
HETATM    2  N   UNL     1     -11.482   8.648  71.278  1.00  0.00    -0.270 N  
HETATM    3  O   UNL     1     -10.067   7.252  72.455  1.00  0.00    -0.175 OA 
HETATM    4  C   UNL     1     -10.290   7.904  71.433  1.00  0.00    -0.198 C  
ENDROOT
BRANCH   2   5
HETATM    5  C   UNL     1     -11.868   9.255  70.004  1.00  0.00     0.205 C  
BRANCH   5   6
HETATM    6  C   UNL     1     -11.082  10.436  69.409  1.00  0.00    -0.254 C  
BRANCH   6   7
HETATM    7  N   UNL     1     -11.972  11.336  68.637  1.00  0.00    -0.537 NA 
HETATM    8  C   UNL     1     -11.618  11.379  67.211  1.00  0.00    -0.149 C  
HETATM    9  C   UNL     1     -12.054  12.708  69.165  1.00  0.00    -0.142 C  
HETATM   10  C   UNL     1     -10.292  13.517  67.572  1.00  0.00    -0.237 C  
HETATM   11  C   UNL     1     -10.733  13.463  69.039  1.00  0.00    -0.160 C  
HETATM   12  C   UNL     1     -10.312  12.125  66.933  1.00  0.00    -0.235 C  
BRANCH  10  13
HETATM   13  O   UNL     1     -11.198  14.358  66.830  1.00  0.00    -0.314 OA 
BRANCH  13  14
HETATM   14  C   UNL     1     -11.159  15.676  67.166  1.00  0.00    -0.218 C  
HETATM   15  H   UNL     1     -10.265  15.945  65.316  1.00  0.00     0.000 HD 
HETATM   16  O   UNL     1     -11.708  16.159  68.143  1.00  0.00    -0.228 OA 
HETATM   17  N   UNL     1     -10.403  16.343  66.245  1.00  0.00    -0.323 N  
BRANCH  17  18
HETATM   18  C   UNL     1      -9.812  17.580  66.575  1.00  0.00    -0.310 A  
HETATM   19  C   UNL     1      -8.642  17.654  67.363  1.00  0.00    -0.229 A  
HETATM   20  C   UNL     1      -9.907  19.990  66.317  1.00  0.00    -0.576 A  
HETATM   21  C   UNL     1      -8.138  18.954  67.593  1.00  0.00    -0.278 A  
HETATM   22  C   UNL     1      -8.748  20.101  67.070  1.00  0.00    -0.420 A  
HETATM   23  C   UNL     1     -10.445  18.732  66.078  1.00  0.00    -0.483 A  
BRANCH  19  24
HETATM   24  C   UNL     1      -7.918  16.475  67.931  1.00  0.00    -0.165 A  
HETATM   25  C   UNL     1      -7.850  16.217  69.312  1.00  0.00    -0.179 A  
HETATM   26  C   UNL     1      -7.150  15.118  69.828  1.00  0.00    -0.169 A  
HETATM   27  C   UNL     1      -6.466  14.262  68.974  1.00  0.00    -0.100 A  
HETATM   28  C   UNL     1      -6.501  14.492  67.604  1.00  0.00    -0.153 A  
HETATM   29  C   UNL     1      -7.229  15.572  67.093  1.00  0.00    -0.208 A  
ENDBRANCH  19  24
ENDBRANCH  17  18
ENDBRANCH  13  14
ENDBRANCH  10  13
ENDBRANCH   6   7
ENDBRANCH   5   6
ENDBRANCH   2   5
BRANCH   4  30
HETATM   30  C   UNL     1      -9.290   7.794  70.319  1.00  0.00    -0.156 A  
HETATM   31  C   UNL     1      -9.571   6.902  69.272  1.00  0.00    -0.149 A  
HETATM   32  C   UNL     1      -8.102   8.527  70.264  1.00  0.00    -0.106 A  
HETATM   33  C   UNL     1      -7.301   8.505  69.122  1.00  0.00    -0.079 A  
HETATM   34  C   UNL     1      -8.732   6.826  68.153  1.00  0.00    -0.122 A  
HETATM   35  C   UNL     1      -7.610   7.656  68.053  1.00  0.00    -0.110 A  
BRANCH  35  36
HETATM   36  C   UNL     1      -6.712   7.625  66.833  1.00  0.00    -0.067 C  
BRANCH  36  37
HETATM   37  N   UNL     1      -6.588   8.940  66.186  1.00  0.00    -0.065 NA 
HETATM   38  C   UNL     1      -7.851   9.685  66.184  1.00  0.00    -0.101 C  
HETATM   39  C   UNL     1      -6.010   8.875  64.835  1.00  0.00    -0.064 C  
HETATM   40  C   UNL     1      -6.971   8.317  63.782  1.00  0.00    -0.080 C  
HETATM   41  C   UNL     1      -8.880   9.151  65.184  1.00  0.00    -0.241 C  
HETATM   42  C   UNL     1      -8.301   9.078  63.765  1.00  0.00    -0.178 C  
BRANCH  42  43
HETATM   43  C   UNL     1      -8.141  10.465  63.141  1.00  0.00    -0.141 C  
HETATM   44  N   UNL     1      -9.136  11.353  63.418  1.00  0.00    -0.481 N  
HETATM   45  H2  UNL     1      -9.935  11.110  64.003  1.00  0.00     0.000 HD 
HETATM   46  O   UNL     1      -7.218  10.796  62.405  1.00  0.00    -0.136 OA 
HETATM   47  H1  UNL     1      -9.029  12.279  63.001  1.00  0.00     0.000 HD 
ENDBRANCH  42  43
ENDBRANCH  36  37
ENDBRANCH  35  36
ENDBRANCH   4  30
TORSDOF 11
ENDMDL
MODEL       70
REMARK 921   NORMALIZED FREE ENERGY PREDICTED BY IDOCK:   -5.88 KCAL/MOL
REMARK 922        TOTAL FREE ENERGY PREDICTED BY IDOCK:  -11.29 KCAL/MOL
REMARK 923 INTER-LIGAND FREE ENERGY PREDICTED BY IDOCK:   -8.43 KCAL/MOL
REMARK 924 INTRA-LIGAND FREE ENERGY PREDICTED BY IDOCK:   -2.86 KCAL/MOL
REMARK 927      BINDING AFFINITY PREDICTED BY RF-SCORE:    0.00 PKD
ROOT
HETATM    1  C   UNL     1      -5.363   7.096  64.042  1.00  0.00    -0.029 C  
HETATM    2  N   UNL     1      -6.223   8.226  64.363  1.00  0.00    -0.064 N  
HETATM    3  O   UNL     1      -8.029   7.005  63.599  1.00  0.00    -0.127 OA 
HETATM    4  C   UNL     1      -7.603   8.035  64.124  1.00  0.00    -0.122 C  
ENDROOT
BRANCH   2   5
HETATM    5  C   UNL     1      -5.712   9.336  65.168  1.00  0.00    -0.058 C  
BRANCH   5   6
HETATM    6  C   UNL     1      -6.234   9.600  66.590  1.00  0.00    -0.065 C  
BRANCH   6   7
HETATM    7  N   UNL     1      -5.635   8.656  67.564  1.00  0.00    -0.038 NA 
HETATM    8  C   UNL     1      -6.519   7.518  67.852  1.00  0.00    -0.054 C  
HETATM    9  C   UNL     1      -5.208   9.279  68.829  1.00  0.00    -0.037 C  
HETATM   10  C   UNL     1      -7.362   8.664  69.958  1.00  0.00    -0.052 C  
HETATM   11  C   UNL     1      -6.384   9.802  69.649  1.00  0.00    -0.047 C  
HETATM   12  C   UNL     1      -7.744   7.897  68.688  1.00  0.00    -0.113 C  
BRANCH  10  13
HETATM   13  O   UNL     1      -6.743   7.733  70.868  1.00  0.00    -0.038 OA 
BRANCH  13  14
HETATM   14  C   UNL     1      -7.531   7.336  71.903  1.00  0.00    -0.084 C  
HETATM   15  H   UNL     1      -7.005   5.412  71.344  1.00  0.00     0.000 HD 
HETATM   16  O   UNL     1      -8.019   8.088  72.731  1.00  0.00    -0.125 OA 
HETATM   17  N   UNL     1      -7.687   5.980  71.844  1.00  0.00    -0.097 N  
BRANCH  17  18
HETATM   18  C   UNL     1      -8.789   5.365  72.473  1.00  0.00    -0.130 A  
HETATM   19  C   UNL     1      -9.922   4.949  71.739  1.00  0.00    -0.252 A  
HETATM   20  C   UNL     1      -9.721   4.550  74.559  1.00  0.00    -0.173 A  
HETATM   21  C   UNL     1     -10.942   4.319  72.488  1.00  0.00     0.003 A  
HETATM   22  C   UNL     1     -10.840   4.110  73.870  1.00  0.00    -0.321 A  
HETATM   23  C   UNL     1      -8.700   5.186  73.865  1.00  0.00    -0.118 A  
BRANCH  19  24
HETATM   24  C   UNL     1     -10.090   5.111  70.262  1.00  0.00    -0.338 A  
HETATM   25  C   UNL     1      -9.425   4.296  69.328  1.00  0.00    -0.254 A  
HETATM   26  C   UNL     1      -9.579   4.474  67.946  1.00  0.00    -0.208 A  
HETATM   27  C   UNL     1     -10.380   5.499  67.459  1.00  0.00    -0.268 A  
HETATM   28  C   UNL     1     -11.044   6.331  68.352  1.00  0.00    -0.371 A  
HETATM   29  C   UNL     1     -10.912   6.127  69.730  1.00  0.00    -0.459 A  
ENDBRANCH  19  24
ENDBRANCH  17  18
ENDBRANCH  13  14
ENDBRANCH  10  13
ENDBRANCH   6   7
ENDBRANCH   5   6
ENDBRANCH   2   5
BRANCH   4  30
HETATM   30  C   UNL     1      -8.619   9.037  64.592  1.00  0.00    -0.190 A  
HETATM   31  C   UNL     1      -9.373   8.722  65.733  1.00  0.00    -0.259 A  
HETATM   32  C   UNL     1      -8.856  10.259  63.958  1.00  0.00    -0.237 A  
HETATM   33  C   UNL     1      -9.691  11.215  64.538  1.00  0.00    -0.310 A  
HETATM   34  C   UNL     1     -10.264   9.653  66.281  1.00  0.00    -0.286 A  
HETATM   35  C   UNL     1     -10.401  10.923  65.708  1.00  0.00    -0.303 A  
BRANCH  35  36
HETATM   36  C   UNL     1     -11.324  11.963  66.309  1.00  0.00    -0.334 C  
BRANCH  36  37
HETATM   37  N   UNL     1     -10.891  12.402  67.644  1.00  0.00    -0.218 NA 
HETATM   38  C   UNL     1     -11.903  13.217  68.323  1.00  0.00    -0.354 C  
HETATM   39  C   UNL     1      -9.583  13.076  67.642  1.00  0.00    -0.206 C  
HETATM   40  C   UNL     1      -9.623  14.492  67.060  1.00  0.00    -0.250 C  
HETATM   41  C   UNL     1     -12.031  14.635  67.760  1.00  0.00    -0.302 C  
HETATM   42  C   UNL     1     -10.680  15.361  67.751  1.00  0.00    -0.289 C  
BRANCH  42  43
HETATM   43  C   UNL     1     -10.236  15.761  69.159  1.00  0.00    -0.231 C  
HETATM   44  N   UNL     1     -11.206  16.299  69.951  1.00  0.00    -0.341 N  
HETATM   45  H2  UNL     1     -12.165  16.426  69.626  1.00  0.00     0.000 HD 
HETATM   46  O   UNL     1      -9.091  15.660  69.585  1.00  0.00    -0.273 OA 
HETATM   47  H1  UNL     1     -10.910  16.565  70.890  1.00  0.00     0.000 HD 
ENDBRANCH  42  43
ENDBRANCH  36  37
ENDBRANCH  35  36
ENDBRANCH   4  30
TORSDOF 11
ENDMDL
MODEL       71
REMARK 921   NORMALIZED FREE ENERGY PREDICTED BY IDOCK:   -5.86 KCAL/MOL
REMARK 922        TOTAL FREE ENERGY PREDICTED BY IDOCK:  -11.26 KCAL/MOL
REMARK 923 INTER-LIGAND FREE ENERGY PREDICTED BY IDOCK:  -11.26 KCAL/MOL
REMARK 924 INTRA-LIGAND FREE ENERGY PREDICTED BY IDOCK:   -0.00 KCAL/MOL
REMARK 927      BINDING AFFINITY PREDICTED BY RF-SCORE:    0.00 PKD
ROOT
HETATM    1  C   UNL     1     -12.157  11.507  70.644  1.00  0.00    -0.353 C  
HETATM    2  N   UNL     1     -11.334  10.311  70.541  1.00  0.00    -0.323 N  
HETATM    3  O   UNL     1     -12.434   9.455  72.384  1.00  0.00    -0.301 OA 
HETATM    4  C   UNL     1     -11.607   9.294  71.484  1.00  0.00    -0.382 C  
ENDROOT
BRANCH   2   5
HETATM    5  C   UNL     1     -10.520  10.077  69.348  1.00  0.00    -0.232 C  
BRANCH   5   6
HETATM    6  C   UNL     1     -11.099  10.263  67.935  1.00  0.00    -0.276 C  
BRANCH   6   7
HETATM    7  N   UNL     1     -10.114  10.910  67.035  1.00  0.00    -0.198 NA 
HETATM    8  C   UNL     1      -9.450  12.057  67.669  1.00  0.00    -0.185 C  
HETATM    9  C   UNL     1     -10.662  11.318  65.730  1.00  0.00    -0.223 C  
HETATM   10  C   UNL     1     -11.066  13.659  66.537  1.00  0.00    -0.305 C  
HETATM   11  C   UNL     1     -11.691  12.439  65.853  1.00  0.00    -0.476 C  
HETATM   12  C   UNL     1     -10.368  13.269  67.843  1.00  0.00    -0.239 C  
BRANCH  10  13
HETATM   13  O   UNL     1     -10.078  14.244  65.665  1.00  0.00    -0.318 OA 
BRANCH  13  14
HETATM   14  C   UNL     1     -10.154  15.597  65.541  1.00  0.00    -0.362 C  
HETATM   15  H   UNL     1      -8.457  15.629  66.730  1.00  0.00     0.000 HD 
HETATM   16  O   UNL     1     -10.916  16.183  64.790  1.00  0.00    -0.594 OA 
HETATM   17  N   UNL     1      -9.256  16.168  66.397  1.00  0.00    -0.272 N  
BRANCH  17  18
HETATM   18  C   UNL     1      -9.431  17.501  66.823  1.00  0.00    -0.275 A  
HETATM   19  C   UNL     1      -8.713  18.028  67.920  1.00  0.00    -0.258 A  
HETATM   20  C   UNL     1     -10.556  19.612  66.421  1.00  0.00    -0.592 A  
HETATM   21  C   UNL     1      -8.961  19.386  68.221  1.00  0.00    -0.384 A  
HETATM   22  C   UNL     1      -9.855  20.170  67.479  1.00  0.00    -0.574 A  
HETATM   23  C   UNL     1     -10.353  18.277  66.099  1.00  0.00    -0.414 A  
BRANCH  19  24
HETATM   24  C   UNL     1      -7.723  17.264  68.739  1.00  0.00    -0.261 A  
HETATM   25  C   UNL     1      -6.519  17.828  69.198  1.00  0.00    -0.240 A  
HETATM   26  C   UNL     1      -5.593  17.092  69.949  1.00  0.00    -0.216 A  
HETATM   27  C   UNL     1      -5.831  15.753  70.233  1.00  0.00    -0.126 A  
HETATM   28  C   UNL     1      -7.004  15.158  69.787  1.00  0.00    -0.174 A  
HETATM   29  C   UNL     1      -7.941  15.908  69.066  1.00  0.00    -0.222 A  
ENDBRANCH  19  24
ENDBRANCH  17  18
ENDBRANCH  13  14
ENDBRANCH  10  13
ENDBRANCH   6   7
ENDBRANCH   5   6
ENDBRANCH   2   5
BRANCH   4  30
HETATM   30  C   UNL     1     -10.975   7.937  71.370  1.00  0.00    -0.264 A  
HETATM   31  C   UNL     1      -9.674   7.776  71.872  1.00  0.00    -0.216 A  
HETATM   32  C   UNL     1     -11.605   6.830  70.796  1.00  0.00    -0.418 A  
HETATM   33  C   UNL     1     -11.030   5.561  70.873  1.00  0.00    -0.194 A  
HETATM   34  C   UNL     1      -9.065   6.515  71.890  1.00  0.00    -0.148 A  
HETATM   35  C   UNL     1      -9.756   5.390  71.425  1.00  0.00    -0.213 A  
BRANCH  35  36
HETATM   36  C   UNL     1      -9.136   4.008  71.476  1.00  0.00    -0.120 C  
BRANCH  36  37
HETATM   37  N   UNL     1      -8.115   3.807  70.436  1.00  0.00    -0.053 NA 
HETATM   38  C   UNL     1      -8.469   4.454  69.169  1.00  0.00    -0.078 C  
HETATM   39  C   UNL     1      -7.763   2.394  70.228  1.00  0.00    -0.042 C  
HETATM   40  C   UNL     1      -8.841   1.595  69.490  1.00  0.00    -0.122 C  
HETATM   41  C   UNL     1      -9.576   3.732  68.397  1.00  0.00    -0.172 C  
HETATM   42  C   UNL     1      -9.231   2.257  68.164  1.00  0.00    -0.247 C  
BRANCH  42  43
HETATM   43  C   UNL     1      -8.133   2.086  67.113  1.00  0.00    -0.068 C  
HETATM   44  N   UNL     1      -8.532   2.226  65.818  1.00  0.00    -0.095 N  
HETATM   45  H2  UNL     1      -9.498   2.432  65.566  1.00  0.00     0.000 HD 
HETATM   46  O   UNL     1      -6.965   1.805  67.363  1.00  0.00    -0.038 OA 
HETATM   47  H1  UNL     1      -7.799   2.112  65.116  1.00  0.00     0.000 HD 
ENDBRANCH  42  43
ENDBRANCH  36  37
ENDBRANCH  35  36
ENDBRANCH   4  30
TORSDOF 11
ENDMDL
MODEL       72
REMARK 921   NORMALIZED FREE ENERGY PREDICTED BY IDOCK:   -5.82 KCAL/MOL
REMARK 922        TOTAL FREE ENERGY PREDICTED BY IDOCK:  -11.20 KCAL/MOL
REMARK 923 INTER-LIGAND FREE ENERGY PREDICTED BY IDOCK:  -10.01 KCAL/MOL
REMARK 924 INTRA-LIGAND FREE ENERGY PREDICTED BY IDOCK:   -1.20 KCAL/MOL
REMARK 927      BINDING AFFINITY PREDICTED BY RF-SCORE:    0.00 PKD
ROOT
HETATM    1  C   UNL     1     -12.969  12.029  71.482  1.00  0.00    -0.304 C  
HETATM    2  N   UNL     1     -12.026  11.687  70.428  1.00  0.00    -0.370 N  
HETATM    3  O   UNL     1     -11.625   9.682  71.505  1.00  0.00    -0.370 OA 
HETATM    4  C   UNL     1     -11.422  10.413  70.533  1.00  0.00    -0.345 C  
ENDROOT
BRANCH   2   5
HETATM    5  C   UNL     1     -11.972  12.482  69.201  1.00  0.00    -0.236 C  
BRANCH   5   6
HETATM    6  C   UNL     1     -10.810  13.450  68.924  1.00  0.00    -0.220 C  
BRANCH   6   7
HETATM    7  N   UNL     1     -11.145  14.827  69.361  1.00  0.00    -0.271 NA 
HETATM    8  C   UNL     1     -11.483  15.702  68.229  1.00  0.00    -0.350 C  
HETATM    9  C   UNL     1     -10.111  15.471  70.188  1.00  0.00    -0.144 C  
HETATM   10  C   UNL     1      -9.116  16.627  68.197  1.00  0.00    -0.213 C  
HETATM   11  C   UNL     1      -8.825  15.740  69.412  1.00  0.00    -0.237 C  
HETATM   12  C   UNL     1     -10.275  16.069  67.365  1.00  0.00    -0.273 C  
BRANCH  10  13
HETATM   13  O   UNL     1      -9.487  17.946  68.645  1.00  0.00    -0.299 OA 
BRANCH  13  14
HETATM   14  C   UNL     1      -9.064  18.962  67.843  1.00  0.00    -0.300 C  
HETATM   15  H   UNL     1      -7.759  17.564  67.047  1.00  0.00     0.000 HD 
HETATM   16  O   UNL     1      -9.607  20.052  67.762  1.00  0.00    -0.356 OA 
HETATM   17  N   UNL     1      -7.945  18.558  67.173  1.00  0.00    -0.238 N  
BRANCH  17  18
HETATM   18  C   UNL     1      -7.046  19.513  66.656  1.00  0.00    -0.215 A  
HETATM   19  C   UNL     1      -6.003  20.050  67.443  1.00  0.00    -0.203 A  
HETATM   20  C   UNL     1      -6.375  20.803  64.714  1.00  0.00    -0.305 A  
HETATM   21  C   UNL     1      -5.155  20.974  66.791  1.00  0.00    -0.240 A  
HETATM   22  C   UNL     1      -5.327  21.336  65.448  1.00  0.00    -0.189 A  
HETATM   23  C   UNL     1      -7.240  19.900  65.318  1.00  0.00    -0.156 A  
BRANCH  19  24
HETATM   24  C   UNL     1      -5.738  19.692  68.870  1.00  0.00    -0.249 A  
HETATM   25  C   UNL     1      -5.857  18.378  69.359  1.00  0.00    -0.236 A  
HETATM   26  C   UNL     1      -5.624  18.064  70.705  1.00  0.00    -0.139 A  
HETATM   27  C   UNL     1      -5.298  19.066  71.611  1.00  0.00    -0.309 A  
HETATM   28  C   UNL     1      -5.183  20.377  71.166  1.00  0.00    -0.299 A  
HETATM   29  C   UNL     1      -5.384  20.680  69.814  1.00  0.00    -0.387 A  
ENDBRANCH  19  24
ENDBRANCH  17  18
ENDBRANCH  13  14
ENDBRANCH  10  13
ENDBRANCH   6   7
ENDBRANCH   5   6
ENDBRANCH   2   5
BRANCH   4  30
HETATM   30  C   UNL     1     -10.587   9.853  69.418  1.00  0.00    -0.250 A  
HETATM   31  C   UNL     1      -9.214   9.678  69.652  1.00  0.00    -0.225 A  
HETATM   32  C   UNL     1     -11.096   9.498  68.166  1.00  0.00    -0.052 A  
HETATM   33  C   UNL     1     -10.301   8.828  67.235  1.00  0.00    -0.360 A  
HETATM   34  C   UNL     1      -8.397   9.068  68.692  1.00  0.00    -0.123 A  
HETATM   35  C   UNL     1      -8.944   8.603  67.490  1.00  0.00    -0.143 A  
BRANCH  35  36
HETATM   36  C   UNL     1      -8.090   7.898  66.456  1.00  0.00    -0.107 C  
BRANCH  36  37
HETATM   37  N   UNL     1      -7.698   6.543  66.873  1.00  0.00    -0.098 NA 
HETATM   38  C   UNL     1      -7.015   5.804  65.806  1.00  0.00    -0.068 C  
HETATM   39  C   UNL     1      -8.810   5.759  67.431  1.00  0.00    -0.106 C  
HETATM   40  C   UNL     1      -9.810   5.273  66.377  1.00  0.00    -0.204 C  
HETATM   41  C   UNL     1      -7.949   5.327  64.691  1.00  0.00    -0.109 C  
HETATM   42  C   UNL     1      -9.116   4.502  65.249  1.00  0.00    -0.149 C  
BRANCH  42  43
HETATM   43  C   UNL     1      -8.665   3.118  65.716  1.00  0.00    -0.128 C  
HETATM   44  N   UNL     1      -9.601   2.391  66.390  1.00  0.00    -0.359 N  
HETATM   45  H2  UNL     1     -10.539   2.747  66.570  1.00  0.00     0.000 HD 
HETATM   46  O   UNL     1      -7.540   2.658  65.555  1.00  0.00    -0.074 OA 
HETATM   47  H1  UNL     1      -9.300   1.467  66.702  1.00  0.00     0.000 HD 
ENDBRANCH  42  43
ENDBRANCH  36  37
ENDBRANCH  35  36
ENDBRANCH   4  30
TORSDOF 11
ENDMDL
MODEL       73
REMARK 921   NORMALIZED FREE ENERGY PREDICTED BY IDOCK:   -5.79 KCAL/MOL
REMARK 922        TOTAL FREE ENERGY PREDICTED BY IDOCK:  -11.15 KCAL/MOL
REMARK 923 INTER-LIGAND FREE ENERGY PREDICTED BY IDOCK:  -10.12 KCAL/MOL
REMARK 924 INTRA-LIGAND FREE ENERGY PREDICTED BY IDOCK:   -1.03 KCAL/MOL
REMARK 927      BINDING AFFINITY PREDICTED BY RF-SCORE:    0.00 PKD
ROOT
HETATM    1  C   UNL     1     -14.131  13.611  72.439  1.00  0.00    -0.484 C  
HETATM    2  N   UNL     1     -13.239  13.577  71.290  1.00  0.00    -0.264 N  
HETATM    3  O   UNL     1     -13.393  15.879  71.164  1.00  0.00    -0.516 OA 
HETATM    4  C   UNL     1     -12.895  14.834  70.741  1.00  0.00    -0.361 C  
ENDROOT
BRANCH   2   5
HETATM    5  C   UNL     1     -12.516  12.350  70.955  1.00  0.00    -0.274 C  
BRANCH   5   6
HETATM    6  C   UNL     1     -12.754  11.043  71.729  1.00  0.00    -0.303 C  
BRANCH   6   7
HETATM    7  N   UNL     1     -12.799   9.878  70.812  1.00  0.00    -0.263 NA 
HETATM    8  C   UNL     1     -12.948   8.607  71.535  1.00  0.00    -0.312 C  
HETATM    9  C   UNL     1     -11.654   9.787  69.890  1.00  0.00    -0.079 C  
HETATM   10  C   UNL     1     -10.442   8.207  71.414  1.00  0.00    -0.212 C  
HETATM   11  C   UNL     1     -10.340   9.509  70.615  1.00  0.00    -0.369 C  
HETATM   12  C   UNL     1     -11.690   8.193  72.302  1.00  0.00    -0.439 C  
BRANCH  10  13
HETATM   13  O   UNL     1     -10.533   7.092  70.505  1.00  0.00    -0.203 OA 
BRANCH  13  14
HETATM   14  C   UNL     1      -9.554   7.042  69.561  1.00  0.00    -0.153 C  
HETATM   15  H   UNL     1     -11.098   7.252  68.195  1.00  0.00     0.000 HD 
HETATM   16  O   UNL     1      -8.358   7.071  69.800  1.00  0.00    -0.129 OA 
HETATM   17  N   UNL     1     -10.135   6.944  68.329  1.00  0.00    -0.160 N  
BRANCH  17  18
HETATM   18  C   UNL     1      -9.407   6.417  67.242  1.00  0.00    -0.119 A  
HETATM   19  C   UNL     1      -8.786   7.257  66.292  1.00  0.00    -0.162 A  
HETATM   20  C   UNL     1      -8.599   4.412  66.142  1.00  0.00    -0.113 A  
HETATM   21  C   UNL     1      -8.063   6.600  65.271  1.00  0.00    -0.130 A  
HETATM   22  C   UNL     1      -7.958   5.204  65.202  1.00  0.00    -0.106 A  
HETATM   23  C   UNL     1      -9.331   5.016  67.156  1.00  0.00    -0.132 A  
BRANCH  19  24
HETATM   24  C   UNL     1      -8.827   8.752  66.315  1.00  0.00    -0.187 A  
HETATM   25  C   UNL     1      -7.693   9.540  66.580  1.00  0.00    -0.097 A  
HETATM   26  C   UNL     1      -7.754  10.940  66.617  1.00  0.00    -0.146 A  
HETATM   27  C   UNL     1      -8.965  11.592  66.424  1.00  0.00    -0.200 A  
HETATM   28  C   UNL     1     -10.110  10.845  66.171  1.00  0.00    -0.291 A  
HETATM   29  C   UNL     1     -10.036   9.449  66.102  1.00  0.00    -0.351 A  
ENDBRANCH  19  24
ENDBRANCH  17  18
ENDBRANCH  13  14
ENDBRANCH  10  13
ENDBRANCH   6   7
ENDBRANCH   5   6
ENDBRANCH   2   5
BRANCH   4  30
HETATM   30  C   UNL     1     -11.834  14.958  69.686  1.00  0.00    -0.356 A  
HETATM   31  C   UNL     1     -11.925  16.033  68.789  1.00  0.00    -0.088 A  
HETATM   32  C   UNL     1     -10.766  14.068  69.547  1.00  0.00    -0.009 A  
HETATM   33  C   UNL     1      -9.725  14.334  68.657  1.00  0.00    -0.213 A  
HETATM   34  C   UNL     1     -10.915  16.266  67.847  1.00  0.00    -0.310 A  
HETATM   35  C   UNL     1      -9.787  15.438  67.800  1.00  0.00    -0.220 A  
BRANCH  35  36
HETATM   36  C   UNL     1      -8.660  15.696  66.821  1.00  0.00    -0.274 C  
BRANCH  36  37
HETATM   37  N   UNL     1      -7.429  16.156  67.482  1.00  0.00    -0.140 NA 
HETATM   38  C   UNL     1      -7.698  16.880  68.728  1.00  0.00    -0.247 C  
HETATM   39  C   UNL     1      -6.547  16.933  66.598  1.00  0.00    -0.217 C  
HETATM   40  C   UNL     1      -7.059  18.347  66.308  1.00  0.00    -0.287 C  
HETATM   41  C   UNL     1      -8.258  18.289  68.513  1.00  0.00    -0.329 C  
HETATM   42  C   UNL     1      -7.352  19.121  67.598  1.00  0.00    -0.253 C  
BRANCH  42  43
HETATM   43  C   UNL     1      -6.061  19.542  68.300  1.00  0.00    -0.223 C  
HETATM   44  N   UNL     1      -5.145  20.176  67.516  1.00  0.00    -0.167 N  
HETATM   45  H2  UNL     1      -5.310  20.359  66.526  1.00  0.00     0.000 HD 
HETATM   46  O   UNL     1      -5.801  19.316  69.477  1.00  0.00    -0.232 OA 
HETATM   47  H1  UNL     1      -4.283  20.457  67.984  1.00  0.00     0.000 HD 
ENDBRANCH  42  43
ENDBRANCH  36  37
ENDBRANCH  35  36
ENDBRANCH   4  30
TORSDOF 11
ENDMDL
MODEL       74
REMARK 921   NORMALIZED FREE ENERGY PREDICTED BY IDOCK:   -5.74 KCAL/MOL
REMARK 922        TOTAL FREE ENERGY PREDICTED BY IDOCK:  -11.07 KCAL/MOL
REMARK 923 INTER-LIGAND FREE ENERGY PREDICTED BY IDOCK:   -9.98 KCAL/MOL
REMARK 924 INTRA-LIGAND FREE ENERGY PREDICTED BY IDOCK:   -1.09 KCAL/MOL
REMARK 927      BINDING AFFINITY PREDICTED BY RF-SCORE:    0.00 PKD
ROOT
HETATM    1  C   UNL     1     -11.977  11.592  63.247  1.00  0.00    -0.127 C  
HETATM    2  N   UNL     1     -11.243  12.589  64.013  1.00  0.00    -0.369 N  
HETATM    3  O   UNL     1     -13.027  14.032  63.752  1.00  0.00    -0.315 OA 
HETATM    4  C   UNL     1     -11.920  13.808  64.245  1.00  0.00    -0.443 C  
ENDROOT
BRANCH   2   5
HETATM    5  C   UNL     1     -10.034  12.211  64.747  1.00  0.00    -0.200 C  
BRANCH   5   6
HETATM    6  C   UNL     1      -9.695  10.737  65.025  1.00  0.00    -0.269 C  
BRANCH   6   7
HETATM    7  N   UNL     1     -10.636  10.148  66.008  1.00  0.00    -0.074 NA 
HETATM    8  C   UNL     1     -10.820  11.008  67.186  1.00  0.00    -0.282 C  
HETATM    9  C   UNL     1     -10.284   8.786  66.444  1.00  0.00    -0.186 C  
HETATM   10  C   UNL     1      -9.109   9.650  68.484  1.00  0.00    -0.131 C  
HETATM   11  C   UNL     1      -8.991   8.746  67.253  1.00  0.00    -0.144 C  
HETATM   12  C   UNL     1      -9.596  11.051  68.103  1.00  0.00    -0.175 C  
BRANCH  10  13
HETATM   13  O   UNL     1     -10.063   9.084  69.405  1.00  0.00    -0.186 OA 
BRANCH  13  14
HETATM   14  C   UNL     1      -9.605   8.024  70.124  1.00  0.00    -0.175 C  
HETATM   15  H   UNL     1     -11.006   6.921  69.070  1.00  0.00     0.000 HD 
HETATM   16  O   UNL     1      -8.622   8.050  70.847  1.00  0.00    -0.126 OA 
HETATM   17  N   UNL     1     -10.429   6.957  69.910  1.00  0.00    -0.208 N  
BRANCH  17  18
HETATM   18  C   UNL     1     -10.485   5.905  70.847  1.00  0.00    -0.244 A  
HETATM   19  C   UNL     1      -9.864   4.660  70.599  1.00  0.00    -0.296 A  
HETATM   20  C   UNL     1     -11.255   5.194  73.035  1.00  0.00    -0.390 A  
HETATM   21  C   UNL     1      -9.970   3.704  71.634  1.00  0.00    -0.196 A  
HETATM   22  C   UNL     1     -10.641   3.968  72.836  1.00  0.00    -0.237 A  
HETATM   23  C   UNL     1     -11.187   6.159  72.038  1.00  0.00    -0.335 A  
BRANCH  19  24
HETATM   24  C   UNL     1      -9.106   4.315  69.357  1.00  0.00    -0.179 A  
HETATM   25  C   UNL     1      -7.709   4.444  69.258  1.00  0.00    -0.055 A  
HETATM   26  C   UNL     1      -7.017   4.134  68.079  1.00  0.00    -0.058 A  
HETATM   27  C   UNL     1      -7.711   3.718  66.950  1.00  0.00    -0.081 A  
HETATM   28  C   UNL     1      -9.094   3.590  67.007  1.00  0.00    -0.188 A  
HETATM   29  C   UNL     1      -9.775   3.869  68.197  1.00  0.00    -0.124 A  
ENDBRANCH  19  24
ENDBRANCH  17  18
ENDBRANCH  13  14
ENDBRANCH  10  13
ENDBRANCH   6   7
ENDBRANCH   5   6
ENDBRANCH   2   5
BRANCH   4  30
HETATM   30  C   UNL     1     -11.364  14.841  65.181  1.00  0.00    -0.379 A  
HETATM   31  C   UNL     1     -10.983  16.079  64.641  1.00  0.00    -0.297 A  
HETATM   32  C   UNL     1     -11.207  14.641  66.556  1.00  0.00    -0.346 A  
HETATM   33  C   UNL     1     -10.845  15.696  67.394  1.00  0.00    -0.315 A  
HETATM   34  C   UNL     1     -10.553  17.120  65.472  1.00  0.00    -0.160 A  
HETATM   35  C   UNL     1     -10.518  16.948  66.861  1.00  0.00    -0.271 A  
BRANCH  35  36
HETATM   36  C   UNL     1     -10.100  18.074  67.785  1.00  0.00    -0.353 C  
BRANCH  36  37
HETATM   37  N   UNL     1      -9.200  19.038  67.132  1.00  0.00    -0.288 NA 
HETATM   38  C   UNL     1      -8.036  18.391  66.518  1.00  0.00    -0.269 C  
HETATM   39  C   UNL     1      -8.788  20.141  68.013  1.00  0.00    -0.161 C  
HETATM   40  C   UNL     1      -7.768  19.730  69.078  1.00  0.00    -0.234 C  
HETATM   41  C   UNL     1      -6.993  17.911  67.530  1.00  0.00    -0.204 C  
HETATM   42  C   UNL     1      -6.544  19.046  68.458  1.00  0.00    -0.276 C  
BRANCH  42  43
HETATM   43  C   UNL     1      -5.649  20.055  67.736  1.00  0.00    -0.192 C  
HETATM   44  N   UNL     1      -5.226  19.684  66.495  1.00  0.00    -0.163 N  
HETATM   45  H2  UNL     1      -5.488  18.792  66.076  1.00  0.00     0.000 HD 
HETATM   46  O   UNL     1      -5.279  21.123  68.210  1.00  0.00    -0.280 OA 
HETATM   47  H1  UNL     1      -4.629  20.357  66.013  1.00  0.00     0.000 HD 
ENDBRANCH  42  43
ENDBRANCH  36  37
ENDBRANCH  35  36
ENDBRANCH   4  30
TORSDOF 11
ENDMDL
MODEL       75
REMARK 921   NORMALIZED FREE ENERGY PREDICTED BY IDOCK:   -5.70 KCAL/MOL
REMARK 922        TOTAL FREE ENERGY PREDICTED BY IDOCK:  -11.00 KCAL/MOL
REMARK 923 INTER-LIGAND FREE ENERGY PREDICTED BY IDOCK:   -9.59 KCAL/MOL
REMARK 924 INTRA-LIGAND FREE ENERGY PREDICTED BY IDOCK:   -1.42 KCAL/MOL
REMARK 927      BINDING AFFINITY PREDICTED BY RF-SCORE:    0.00 PKD
ROOT
HETATM    1  C   UNL     1      -9.094   7.222  74.353  1.00  0.00    -0.163 C  
HETATM    2  N   UNL     1      -9.324   6.651  73.035  1.00  0.00    -0.135 N  
HETATM    3  O   UNL     1      -7.118   5.965  73.002  1.00  0.00    -0.082 OA 
HETATM    4  C   UNL     1      -8.222   5.982  72.453  1.00  0.00    -0.109 C  
ENDROOT
BRANCH   2   5
HETATM    5  C   UNL     1     -10.686   6.513  72.518  1.00  0.00    -0.226 C  
BRANCH   5   6
HETATM    6  C   UNL     1     -11.654   7.708  72.484  1.00  0.00    -0.330 C  
BRANCH   6   7
HETATM    7  N   UNL     1     -12.147   7.958  71.108  1.00  0.00    -0.299 NA 
HETATM    8  C   UNL     1     -11.053   8.247  70.169  1.00  0.00    -0.189 C  
HETATM    9  C   UNL     1     -13.169   9.014  71.012  1.00  0.00    -0.005 C  
HETATM   10  C   UNL     1     -11.450  10.744  70.427  1.00  0.00    -0.307 C  
HETATM   11  C   UNL     1     -12.617  10.394  71.355  1.00  0.00    -0.539 C  
HETATM   12  C   UNL     1     -10.411   9.618  70.390  1.00  0.00    -0.352 C  
BRANCH  10  13
HETATM   13  O   UNL     1     -11.943  10.935  69.086  1.00  0.00    -0.326 OA 
BRANCH  13  14
HETATM   14  C   UNL     1     -10.981  11.130  68.144  1.00  0.00    -0.238 C  
HETATM   15  H   UNL     1     -12.130   9.880  66.956  1.00  0.00     0.000 HD 
HETATM   16  O   UNL     1     -10.071  11.938  68.239  1.00  0.00    -0.192 OA 
HETATM   17  N   UNL     1     -11.200  10.270  67.106  1.00  0.00    -0.095 N  
BRANCH  17  18
HETATM   18  C   UNL     1     -10.143   9.920  66.241  1.00  0.00    -0.241 A  
HETATM   19  C   UNL     1      -9.818  10.707  65.113  1.00  0.00    -0.344 A  
HETATM   20  C   UNL     1      -8.347   8.354  65.786  1.00  0.00    -0.150 A  
HETATM   21  C   UNL     1      -8.718  10.259  64.348  1.00  0.00    -0.209 A  
HETATM   22  C   UNL     1      -7.986   9.112  64.683  1.00  0.00    -0.125 A  
HETATM   23  C   UNL     1      -9.430   8.750  66.559  1.00  0.00    -0.281 A  
BRANCH  19  24
HETATM   24  C   UNL     1     -10.533  11.956  64.709  1.00  0.00    -0.333 A  
HETATM   25  C   UNL     1     -10.179  13.227  65.200  1.00  0.00    -0.301 A  
HETATM   26  C   UNL     1     -10.872  14.386  64.825  1.00  0.00    -0.415 A  
HETATM   27  C   UNL     1     -11.966  14.302  63.973  1.00  0.00    -0.328 A  
HETATM   28  C   UNL     1     -12.351  13.062  63.477  1.00  0.00    -0.500 A  
HETATM   29  C   UNL     1     -11.635  11.912  63.828  1.00  0.00    -0.555 A  
ENDBRANCH  19  24
ENDBRANCH  17  18
ENDBRANCH  13  14
ENDBRANCH  10  13
ENDBRANCH   6   7
ENDBRANCH   5   6
ENDBRANCH   2   5
BRANCH   4  30
HETATM   30  C   UNL     1      -8.374   5.180  71.194  1.00  0.00    -0.121 A  
HETATM   31  C   UNL     1      -7.232   4.551  70.675  1.00  0.00    -0.048 A  
HETATM   32  C   UNL     1      -9.584   5.025  70.511  1.00  0.00    -0.252 A  
HETATM   33  C   UNL     1      -9.693   4.132  69.444  1.00  0.00    -0.233 A  
HETATM   34  C   UNL     1      -7.324   3.706  69.562  1.00  0.00    -0.049 A  
HETATM   35  C   UNL     1      -8.564   3.460  68.961  1.00  0.00    -0.117 A  
BRANCH  35  36
HETATM   36  C   UNL     1      -8.696   2.515  67.785  1.00  0.00    -0.113 C  
BRANCH  36  37
HETATM   37  N   UNL     1      -8.005   3.007  66.583  1.00  0.00    -0.077 NA 
HETATM   38  C   UNL     1      -8.505   4.313  66.143  1.00  0.00    -0.112 C  
HETATM   39  C   UNL     1      -8.003   2.040  65.474  1.00  0.00    -0.074 C  
HETATM   40  C   UNL     1      -9.360   1.899  64.779  1.00  0.00    -0.100 C  
HETATM   41  C   UNL     1      -9.883   4.253  65.478  1.00  0.00    -0.221 C  
HETATM   42  C   UNL     1      -9.904   3.254  64.315  1.00  0.00    -0.170 C  
BRANCH  42  43
HETATM   43  C   UNL     1      -9.137   3.775  63.099  1.00  0.00    -0.105 C  
HETATM   44  N   UNL     1      -9.425   5.054  62.726  1.00  0.00    -0.350 N  
HETATM   45  H2  UNL     1     -10.107   5.625  63.224  1.00  0.00     0.000 HD 
HETATM   46  O   UNL     1      -8.333   3.118  62.447  1.00  0.00    -0.072 OA 
HETATM   47  H1  UNL     1      -8.912   5.402  61.915  1.00  0.00     0.000 HD 
ENDBRANCH  42  43
ENDBRANCH  36  37
ENDBRANCH  35  36
ENDBRANCH   4  30
TORSDOF 11
ENDMDL
MODEL       76
REMARK 921   NORMALIZED FREE ENERGY PREDICTED BY IDOCK:   -5.66 KCAL/MOL
REMARK 922        TOTAL FREE ENERGY PREDICTED BY IDOCK:  -10.93 KCAL/MOL
REMARK 923 INTER-LIGAND FREE ENERGY PREDICTED BY IDOCK:   -9.48 KCAL/MOL
REMARK 924 INTRA-LIGAND FREE ENERGY PREDICTED BY IDOCK:   -1.45 KCAL/MOL
REMARK 927      BINDING AFFINITY PREDICTED BY RF-SCORE:    0.00 PKD
ROOT
HETATM    1  C   UNL     1     -11.797  15.215  68.058  1.00  0.00    -0.202 C  
HETATM    2  N   UNL     1     -11.616  13.848  68.522  1.00  0.00    -0.309 N  
HETATM    3  O   UNL     1     -12.571  14.458  70.536  1.00  0.00    -0.328 OA 
HETATM    4  C   UNL     1     -12.103  13.570  69.820  1.00  0.00    -0.318 C  
ENDROOT
BRANCH   2   5
HETATM    5  C   UNL     1     -11.252  12.791  67.578  1.00  0.00    -0.289 C  
BRANCH   5   6
HETATM    6  C   UNL     1     -11.433  12.974  66.062  1.00  0.00    -0.335 C  
BRANCH   6   7
HETATM    7  N   UNL     1     -11.517  11.665  65.371  1.00  0.00    -0.175 NA 
HETATM    8  C   UNL     1     -10.453  10.744  65.793  1.00  0.00    -0.188 C  
HETATM    9  C   UNL     1     -11.535  11.755  63.901  1.00  0.00    -0.393 C  
HETATM   10  C   UNL     1      -9.060  11.371  63.762  1.00  0.00     0.064 C  
HETATM   11  C   UNL     1     -10.219  12.276  63.331  1.00  0.00    -0.360 C  
HETATM   12  C   UNL     1      -9.068  11.139  65.276  1.00  0.00    -0.183 C  
BRANCH  10  13
HETATM   13  O   UNL     1      -9.188  10.089  63.116  1.00  0.00    -0.260 OA 
BRANCH  13  14
HETATM   14  C   UNL     1      -8.045   9.352  63.077  1.00  0.00    -0.151 C  
HETATM   15  H   UNL     1      -9.304   7.722  62.855  1.00  0.00     0.000 HD 
HETATM   16  O   UNL     1      -6.919   9.822  63.015  1.00  0.00    -0.104 OA 
HETATM   17  N   UNL     1      -8.371   8.028  63.132  1.00  0.00    -0.051 N  
BRANCH  17  18
HETATM   18  C   UNL     1      -7.423   7.081  63.571  1.00  0.00    -0.099 A  
HETATM   19  C   UNL     1      -7.475   6.529  64.871  1.00  0.00    -0.086 A  
HETATM   20  C   UNL     1      -5.477   5.757  62.984  1.00  0.00    -0.014 A  
HETATM   21  C   UNL     1      -6.483   5.569  65.171  1.00  0.00    -0.039 A  
HETATM   22  C   UNL     1      -5.509   5.178  64.243  1.00  0.00    -0.016 A  
HETATM   23  C   UNL     1      -6.426   6.715  62.650  1.00  0.00    -0.039 A  
BRANCH  19  24
HETATM   24  C   UNL     1      -8.500   6.874  65.905  1.00  0.00    -0.147 A  
HETATM   25  C   UNL     1      -8.260   7.805  66.932  1.00  0.00    -0.116 A  
HETATM   26  C   UNL     1      -9.225   8.101  67.904  1.00  0.00    -0.138 A  
HETATM   27  C   UNL     1     -10.449   7.445  67.897  1.00  0.00    -0.265 A  
HETATM   28  C   UNL     1     -10.717   6.511  66.904  1.00  0.00    -0.403 A  
HETATM   29  C   UNL     1      -9.762   6.243  65.916  1.00  0.00     0.169 A  
ENDBRANCH  19  24
ENDBRANCH  17  18
ENDBRANCH  13  14
ENDBRANCH  10  13
ENDBRANCH   6   7
ENDBRANCH   5   6
ENDBRANCH   2   5
BRANCH   4  30
HETATM   30  C   UNL     1     -12.162  12.165  70.345  1.00  0.00    -0.378 A  
HETATM   31  C   UNL     1     -11.317  11.210  69.758  1.00  0.00    -0.354 A  
HETATM   32  C   UNL     1     -13.006  11.756  71.381  1.00  0.00    -0.408 A  
HETATM   33  C   UNL     1     -12.891  10.480  71.934  1.00  0.00    -0.509 A  
HETATM   34  C   UNL     1     -11.249   9.907  70.267  1.00  0.00    -0.364 A  
HETATM   35  C   UNL     1     -12.009   9.543  71.385  1.00  0.00    -0.464 A  
BRANCH  35  36
HETATM   36  C   UNL     1     -11.918   8.154  71.981  1.00  0.00    -0.340 C  
BRANCH  36  37
HETATM   37  N   UNL     1     -10.575   7.844  72.494  1.00  0.00    -0.288 NA 
HETATM   38  C   UNL     1      -9.695   7.287  71.462  1.00  0.00    -0.159 C  
HETATM   39  C   UNL     1     -10.590   6.991  73.693  1.00  0.00    -0.345 C  
HETATM   40  C   UNL     1     -10.945   5.530  73.404  1.00  0.00    -0.324 C  
HETATM   41  C   UNL     1     -10.023   5.839  71.089  1.00  0.00    -0.244 C  
HETATM   42  C   UNL     1     -10.040   4.929  72.323  1.00  0.00    -0.247 C  
BRANCH  42  43
HETATM   43  C   UNL     1      -8.632   4.666  72.859  1.00  0.00    -0.110 C  
HETATM   44  N   UNL     1      -7.846   3.869  72.082  1.00  0.00    -0.070 N  
HETATM   45  H2  UNL     1      -8.175   3.474  71.201  1.00  0.00     0.000 HD 
HETATM   46  O   UNL     1      -8.202   5.089  73.927  1.00  0.00    -0.104 OA 
HETATM   47  H1  UNL     1      -6.907   3.694  72.440  1.00  0.00     0.000 HD 
ENDBRANCH  42  43
ENDBRANCH  36  37
ENDBRANCH  35  36
ENDBRANCH   4  30
TORSDOF 11
ENDMDL
MODEL       77
REMARK 921   NORMALIZED FREE ENERGY PREDICTED BY IDOCK:   -5.63 KCAL/MOL
REMARK 922        TOTAL FREE ENERGY PREDICTED BY IDOCK:  -10.88 KCAL/MOL
REMARK 923 INTER-LIGAND FREE ENERGY PREDICTED BY IDOCK:   -8.78 KCAL/MOL
REMARK 924 INTRA-LIGAND FREE ENERGY PREDICTED BY IDOCK:   -2.10 KCAL/MOL
REMARK 927      BINDING AFFINITY PREDICTED BY RF-SCORE:    0.00 PKD
ROOT
HETATM    1  C   UNL     1     -12.372  10.969  69.736  1.00  0.00    -0.262 C  
HETATM    2  N   UNL     1     -11.403   9.909  69.502  1.00  0.00    -0.173 N  
HETATM    3  O   UNL     1     -11.899   9.061  71.593  1.00  0.00    -0.312 OA 
HETATM    4  C   UNL     1     -11.281   8.949  70.533  1.00  0.00    -0.252 C  
ENDROOT
BRANCH   2   5
HETATM    5  C   UNL     1     -10.851   9.697  68.164  1.00  0.00    -0.190 C  
BRANCH   5   6
HETATM    6  C   UNL     1      -9.457  10.220  67.781  1.00  0.00    -0.148 C  
BRANCH   6   7
HETATM    7  N   UNL     1      -8.950  11.181  68.790  1.00  0.00    -0.159 NA 
HETATM    8  C   UNL     1      -9.440  12.546  68.553  1.00  0.00    -0.097 C  
HETATM    9  C   UNL     1      -7.484  11.202  68.926  1.00  0.00    -0.125 C  
HETATM   10  C   UNL     1      -7.280  13.148  67.357  1.00  0.00    -0.110 C  
HETATM   11  C   UNL     1      -6.788  11.733  67.677  1.00  0.00    -0.099 C  
HETATM   12  C   UNL     1      -8.810  13.213  67.328  1.00  0.00    -0.208 C  
BRANCH  10  13
HETATM   13  O   UNL     1      -6.818  14.058  68.375  1.00  0.00    -0.082 OA 
BRANCH  13  14
HETATM   14  C   UNL     1      -6.795  15.367  68.005  1.00  0.00    -0.140 C  
HETATM   15  H   UNL     1      -7.465  15.746  69.929  1.00  0.00     0.000 HD 
HETATM   16  O   UNL     1      -6.318  15.784  66.962  1.00  0.00    -0.308 OA 
HETATM   17  N   UNL     1      -7.397  16.111  68.979  1.00  0.00    -0.190 N  
BRANCH  17  18
HETATM   18  C   UNL     1      -7.927  17.381  68.674  1.00  0.00    -0.271 A  
HETATM   19  C   UNL     1      -9.320  17.614  68.644  1.00  0.00    -0.270 A  
HETATM   20  C   UNL     1      -7.432  19.695  68.138  1.00  0.00    -0.339 A  
HETATM   21  C   UNL     1      -9.715  18.940  68.355  1.00  0.00    -0.432 A  
HETATM   22  C   UNL     1      -8.791  19.966  68.120  1.00  0.00    -0.309 A  
HETATM   23  C   UNL     1      -6.999  18.402  68.405  1.00  0.00    -0.263 A  
BRANCH  19  24
HETATM   24  C   UNL     1     -10.366  16.580  68.913  1.00  0.00    -0.292 A  
HETATM   25  C   UNL     1     -11.005  15.860  67.887  1.00  0.00    -0.327 A  
HETATM   26  C   UNL     1     -11.997  14.907  68.157  1.00  0.00    -0.234 A  
HETATM   27  C   UNL     1     -12.404  14.672  69.464  1.00  0.00    -0.232 A  
HETATM   28  C   UNL     1     -11.802  15.372  70.503  1.00  0.00    -0.373 A  
HETATM   29  C   UNL     1     -10.789  16.298  70.230  1.00  0.00    -0.257 A  
ENDBRANCH  19  24
ENDBRANCH  17  18
ENDBRANCH  13  14
ENDBRANCH  10  13
ENDBRANCH   6   7
ENDBRANCH   5   6
ENDBRANCH   2   5
BRANCH   4  30
HETATM   30  C   UNL     1     -10.470   7.700  70.342  1.00  0.00    -0.221 A  
HETATM   31  C   UNL     1     -11.152   6.522  69.999  1.00  0.00    -0.422 A  
HETATM   32  C   UNL     1      -9.081   7.644  70.484  1.00  0.00    -0.151 A  
HETATM   33  C   UNL     1      -8.372   6.496  70.128  1.00  0.00    -0.134 A  
HETATM   34  C   UNL     1     -10.448   5.348  69.707  1.00  0.00    -0.378 A  
HETATM   35  C   UNL     1      -9.048   5.337  69.732  1.00  0.00    -0.150 A  
BRANCH  35  36
HETATM   36  C   UNL     1      -8.263   4.091  69.376  1.00  0.00    -0.058 C  
BRANCH  36  37
HETATM   37  N   UNL     1      -7.522   4.231  68.113  1.00  0.00    -0.067 NA 
HETATM   38  C   UNL     1      -8.356   4.757  67.028  1.00  0.00    -0.106 C  
HETATM   39  C   UNL     1      -6.833   2.998  67.701  1.00  0.00    -0.049 C  
HETATM   40  C   UNL     1      -7.776   1.917  67.165  1.00  0.00    -0.064 C  
HETATM   41  C   UNL     1      -9.358   3.741  66.473  1.00  0.00    -0.204 C  
HETATM   42  C   UNL     1      -8.663   2.447  66.032  1.00  0.00    -0.123 C  
BRANCH  42  43
HETATM   43  C   UNL     1      -7.863   2.639  64.743  1.00  0.00    -0.077 C  
HETATM   44  N   UNL     1      -6.986   1.640  64.441  1.00  0.00    -0.037 N  
HETATM   45  H2  UNL     1      -6.871   0.820  65.035  1.00  0.00     0.000 HD 
HETATM   46  O   UNL     1      -7.940   3.621  64.013  1.00  0.00    -0.083 OA 
HETATM   47  H1  UNL     1      -6.453   1.768  63.580  1.00  0.00     0.000 HD 
ENDBRANCH  42  43
ENDBRANCH  36  37
ENDBRANCH  35  36
ENDBRANCH   4  30
TORSDOF 11
ENDMDL
MODEL       78
REMARK 921   NORMALIZED FREE ENERGY PREDICTED BY IDOCK:   -5.60 KCAL/MOL
REMARK 922        TOTAL FREE ENERGY PREDICTED BY IDOCK:  -10.84 KCAL/MOL
REMARK 923 INTER-LIGAND FREE ENERGY PREDICTED BY IDOCK:   -9.39 KCAL/MOL
REMARK 924 INTRA-LIGAND FREE ENERGY PREDICTED BY IDOCK:   -1.45 KCAL/MOL
REMARK 927      BINDING AFFINITY PREDICTED BY RF-SCORE:    0.00 PKD
ROOT
HETATM    1  C   UNL     1      -5.575  10.679  64.279  1.00  0.00    -0.065 C  
HETATM    2  N   UNL     1      -6.441   9.612  64.758  1.00  0.00    -0.085 N  
HETATM    3  O   UNL     1      -5.138   9.474  66.660  1.00  0.00    -0.039 OA 
HETATM    4  C   UNL     1      -6.132   9.096  66.037  1.00  0.00    -0.055 C  
ENDROOT
BRANCH   2   5
HETATM    5  C   UNL     1      -7.715   9.342  64.090  1.00  0.00    -0.120 C  
BRANCH   5   6
HETATM    6  C   UNL     1      -8.577  10.480  63.518  1.00  0.00    -0.165 C  
BRANCH   6   7
HETATM    7  N   UNL     1      -9.936  10.472  64.111  1.00  0.00    -0.333 NA 
HETATM    8  C   UNL     1     -10.664  11.721  63.849  1.00  0.00    -0.399 C  
HETATM    9  C   UNL     1      -9.967  10.179  65.554  1.00  0.00    -0.293 C  
HETATM   10  C   UNL     1     -10.014  12.619  66.135  1.00  0.00    -0.261 C  
HETATM   11  C   UNL     1      -9.315  11.279  66.388  1.00  0.00    -0.210 C  
HETATM   12  C   UNL     1     -10.123  12.916  64.637  1.00  0.00    -0.254 C  
BRANCH  10  13
HETATM   13  O   UNL     1     -11.349  12.573  66.677  1.00  0.00    -0.296 OA 
BRANCH  13  14
HETATM   14  C   UNL     1     -11.688  13.639  67.452  1.00  0.00    -0.381 C  
HETATM   15  H   UNL     1     -10.228  12.945  68.748  1.00  0.00     0.000 HD 
HETATM   16  O   UNL     1     -12.439  14.537  67.106  1.00  0.00    -0.180 OA 
HETATM   17  N   UNL     1     -11.066  13.521  68.661  1.00  0.00    -0.258 N  
BRANCH  17  18
HETATM   18  C   UNL     1     -11.578  14.191  69.791  1.00  0.00    -0.290 A  
HETATM   19  C   UNL     1     -12.163  13.488  70.867  1.00  0.00    -0.387 A  
HETATM   20  C   UNL     1     -11.913  16.332  70.882  1.00  0.00    -0.102 A  
HETATM   21  C   UNL     1     -12.607  14.280  71.950  1.00  0.00    -0.396 A  
HETATM   22  C   UNL     1     -12.474  15.674  71.966  1.00  0.00    -0.503 A  
HETATM   23  C   UNL     1     -11.474  15.593  69.791  1.00  0.00    -0.346 A  
BRANCH  19  24
HETATM   24  C   UNL     1     -12.313  12.001  70.936  1.00  0.00    -0.384 A  
HETATM   25  C   UNL     1     -13.238  11.369  71.786  1.00  0.00    -0.472 A  
HETATM   26  C   UNL     1     -13.352   9.974  71.851  1.00  0.00    -0.516 A  
HETATM   27  C   UNL     1     -12.515   9.168  71.091  1.00  0.00    -0.315 A  
HETATM   28  C   UNL     1     -11.580   9.757  70.248  1.00  0.00    -0.283 A  
HETATM   29  C   UNL     1     -11.494  11.151  70.162  1.00  0.00    -0.361 A  
ENDBRANCH  19  24
ENDBRANCH  17  18
ENDBRANCH  13  14
ENDBRANCH  10  13
ENDBRANCH   6   7
ENDBRANCH   5   6
ENDBRANCH   2   5
BRANCH   4  30
HETATM   30  C   UNL     1      -7.054   8.138  66.734  1.00  0.00    -0.077 A  
HETATM   31  C   UNL     1      -7.027   6.793  66.334  1.00  0.00    -0.062 A  
HETATM   32  C   UNL     1      -7.935   8.508  67.754  1.00  0.00    -0.107 A  
HETATM   33  C   UNL     1      -8.640   7.544  68.474  1.00  0.00    -0.129 A  
HETATM   34  C   UNL     1      -7.786   5.831  67.011  1.00  0.00    -0.102 A  
HETATM   35  C   UNL     1      -8.570   6.194  68.112  1.00  0.00    -0.115 A  
BRANCH  35  36
HETATM   36  C   UNL     1      -9.365   5.164  68.888  1.00  0.00    -0.125 C  
BRANCH  36  37
HETATM   37  N   UNL     1      -8.513   4.292  69.711  1.00  0.00    -0.061 NA 
HETATM   38  C   UNL     1      -9.284   3.284  70.445  1.00  0.00    -0.148 C  
HETATM   39  C   UNL     1      -7.618   5.034  70.613  1.00  0.00    -0.070 C  
HETATM   40  C   UNL     1      -8.336   5.662  71.811  1.00  0.00    -0.120 C  
HETATM   41  C   UNL     1     -10.066   3.851  71.632  1.00  0.00    -0.167 C  
HETATM   42  C   UNL     1      -9.154   4.625  72.591  1.00  0.00    -0.140 C  
BRANCH  42  43
HETATM   43  C   UNL     1      -8.248   3.694  73.396  1.00  0.00    -0.083 C  
HETATM   44  N   UNL     1      -8.853   2.589  73.916  1.00  0.00    -0.074 N  
HETATM   45  H2  UNL     1      -9.845   2.397  73.777  1.00  0.00     0.000 HD 
HETATM   46  O   UNL     1      -7.059   3.897  73.620  1.00  0.00    -0.055 OA 
HETATM   47  H1  UNL     1      -8.248   1.967  74.453  1.00  0.00     0.000 HD 
ENDBRANCH  42  43
ENDBRANCH  36  37
ENDBRANCH  35  36
ENDBRANCH   4  30
TORSDOF 11
ENDMDL
MODEL       79
REMARK 921   NORMALIZED FREE ENERGY PREDICTED BY IDOCK:   -5.59 KCAL/MOL
REMARK 922        TOTAL FREE ENERGY PREDICTED BY IDOCK:  -10.82 KCAL/MOL
REMARK 923 INTER-LIGAND FREE ENERGY PREDICTED BY IDOCK:   -8.14 KCAL/MOL
REMARK 924 INTRA-LIGAND FREE ENERGY PREDICTED BY IDOCK:   -2.68 KCAL/MOL
REMARK 927      BINDING AFFINITY PREDICTED BY RF-SCORE:    0.00 PKD
ROOT
HETATM    1  C   UNL     1      -9.944   6.878  74.139  1.00  0.00    -0.316 C  
HETATM    2  N   UNL     1      -9.600   6.513  72.773  1.00  0.00    -0.149 N  
HETATM    3  O   UNL     1     -11.816   5.972  72.411  1.00  0.00    -0.310 OA 
HETATM    4  C   UNL     1     -10.677   6.096  71.958  1.00  0.00    -0.233 C  
ENDROOT
BRANCH   2   5
HETATM    5  C   UNL     1      -8.291   6.869  72.223  1.00  0.00    -0.104 C  
BRANCH   5   6
HETATM    6  C   UNL     1      -7.986   8.298  71.745  1.00  0.00    -0.128 C  
BRANCH   6   7
HETATM    7  N   UNL     1      -7.162   8.286  70.512  1.00  0.00    -0.044 NA 
HETATM    8  C   UNL     1      -5.936   9.085  70.654  1.00  0.00    -0.038 C  
HETATM    9  C   UNL     1      -7.881   8.701  69.297  1.00  0.00    -0.101 C  
HETATM   10  C   UNL     1      -7.054  11.059  69.509  1.00  0.00    -0.113 C  
HETATM   11  C   UNL     1      -8.289  10.171  69.332  1.00  0.00    -0.174 C  
HETATM   12  C   UNL     1      -6.196  10.592  70.689  1.00  0.00    -0.045 C  
BRANCH  10  13
HETATM   13  O   UNL     1      -6.243  10.995  68.319  1.00  0.00    -0.049 OA 
BRANCH  13  14
HETATM   14  C   UNL     1      -6.150  12.162  67.626  1.00  0.00    -0.110 C  
HETATM   15  H   UNL     1      -6.850  13.051  69.362  1.00  0.00     0.000 HD 
HETATM   16  O   UNL     1      -5.629  12.276  66.528  1.00  0.00    -0.231 OA 
HETATM   17  N   UNL     1      -6.742  13.154  68.353  1.00  0.00    -0.085 N  
BRANCH  17  18
HETATM   18  C   UNL     1      -7.205  14.322  67.713  1.00  0.00    -0.175 A  
HETATM   19  C   UNL     1      -8.525  14.422  67.219  1.00  0.00    -0.229 A  
HETATM   20  C   UNL     1      -6.671  16.583  67.015  1.00  0.00    -0.240 A  
HETATM   21  C   UNL     1      -8.868  15.658  66.628  1.00  0.00    -0.327 A  
HETATM   22  C   UNL     1      -7.965  16.725  66.538  1.00  0.00    -0.334 A  
HETATM   23  C   UNL     1      -6.288  15.380  67.593  1.00  0.00    -0.177 A  
BRANCH  19  24
HETATM   24  C   UNL     1      -9.554  13.339  67.305  1.00  0.00    -0.234 A  
HETATM   25  C   UNL     1      -9.753  12.397  66.280  1.00  0.00    -0.253 A  
HETATM   26  C   UNL     1     -10.734  11.401  66.368  1.00  0.00    -0.325 A  
HETATM   27  C   UNL     1     -11.572  11.341  67.475  1.00  0.00    -0.257 A  
HETATM   28  C   UNL     1     -11.412  12.262  68.503  1.00  0.00    -0.349 A  
HETATM   29  C   UNL     1     -10.408  13.234  68.424  1.00  0.00    -0.254 A  
ENDBRANCH  19  24
ENDBRANCH  17  18
ENDBRANCH  13  14
ENDBRANCH  10  13
ENDBRANCH   6   7
ENDBRANCH   5   6
ENDBRANCH   2   5
BRANCH   4  30
HETATM   30  C   UNL     1     -10.499   5.882  70.483  1.00  0.00    -0.319 A  
HETATM   31  C   UNL     1      -9.791   4.745  70.066  1.00  0.00    -0.297 A  
HETATM   32  C   UNL     1     -10.997   6.748  69.505  1.00  0.00    -0.325 A  
HETATM   33  C   UNL     1     -10.944   6.405  68.154  1.00  0.00    -0.393 A  
HETATM   34  C   UNL     1      -9.676   4.432  68.705  1.00  0.00    -0.200 A  
HETATM   35  C   UNL     1     -10.286   5.242  67.740  1.00  0.00    -0.196 A  
BRANCH  35  36
HETATM   36  C   UNL     1     -10.215   4.900  66.266  1.00  0.00    -0.279 C  
BRANCH  36  37
HETATM   37  N   UNL     1      -8.977   4.190  65.908  1.00  0.00    -0.121 NA 
HETATM   38  C   UNL     1      -7.816   5.084  65.846  1.00  0.00    -0.092 C  
HETATM   39  C   UNL     1      -9.096   3.391  64.678  1.00  0.00    -0.133 C  
HETATM   40  C   UNL     1      -9.123   4.233  63.399  1.00  0.00    -0.138 C  
HETATM   41  C   UNL     1      -7.802   5.990  64.612  1.00  0.00    -0.112 C  
HETATM   42  C   UNL     1      -7.920   5.179  63.316  1.00  0.00    -0.090 C  
BRANCH  42  43
HETATM   43  C   UNL     1      -6.634   4.417  62.998  1.00  0.00    -0.030 C  
HETATM   44  N   UNL     1      -5.475   5.089  63.247  1.00  0.00    -0.013 N  
HETATM   45  H2  UNL     1      -5.466   6.038  63.621  1.00  0.00     0.000 HD 
HETATM   46  O   UNL     1      -6.591   3.289  62.518  1.00  0.00    -0.021 OA 
HETATM   47  H1  UNL     1      -4.616   4.580  63.036  1.00  0.00     0.000 HD 
ENDBRANCH  42  43
ENDBRANCH  36  37
ENDBRANCH  35  36
ENDBRANCH   4  30
TORSDOF 11
ENDMDL
MODEL       80
REMARK 921   NORMALIZED FREE ENERGY PREDICTED BY IDOCK:   -5.58 KCAL/MOL
REMARK 922        TOTAL FREE ENERGY PREDICTED BY IDOCK:  -10.80 KCAL/MOL
REMARK 923 INTER-LIGAND FREE ENERGY PREDICTED BY IDOCK:   -9.49 KCAL/MOL
REMARK 924 INTRA-LIGAND FREE ENERGY PREDICTED BY IDOCK:   -1.31 KCAL/MOL
REMARK 927      BINDING AFFINITY PREDICTED BY RF-SCORE:    0.00 PKD
ROOT
HETATM    1  C   UNL     1      -8.196   4.977  74.481  1.00  0.00    -0.097 C  
HETATM    2  N   UNL     1      -7.965   4.655  73.080  1.00  0.00    -0.099 N  
HETATM    3  O   UNL     1      -9.440   2.890  73.293  1.00  0.00    -0.088 OA 
HETATM    4  C   UNL     1      -8.709   3.568  72.568  1.00  0.00    -0.085 C  
ENDROOT
BRANCH   2   5
HETATM    5  C   UNL     1      -7.259   5.600  72.214  1.00  0.00    -0.089 C  
BRANCH   5   6
HETATM    6  C   UNL     1      -7.805   7.015  71.959  1.00  0.00    -0.093 C  
BRANCH   6   7
HETATM    7  N   UNL     1      -8.952   6.985  71.020  1.00  0.00    -0.150 NA 
HETATM    8  C   UNL     1      -8.861   8.037  69.997  1.00  0.00    -0.143 C  
HETATM    9  C   UNL     1     -10.271   7.045  71.671  1.00  0.00    -0.194 C  
HETATM   10  C   UNL     1     -10.412   9.528  71.348  1.00  0.00    -0.188 C  
HETATM   11  C   UNL     1     -10.523   8.383  72.360  1.00  0.00    -0.402 C  
HETATM   12  C   UNL     1      -9.108   9.442  70.549  1.00  0.00    -0.308 C  
BRANCH  10  13
HETATM   13  O   UNL     1     -11.509   9.452  70.416  1.00  0.00    -0.256 OA 
BRANCH  13  14
HETATM   14  C   UNL     1     -12.427  10.450  70.530  1.00  0.00    -0.317 C  
HETATM   15  H   UNL     1     -10.968  11.657  69.688  1.00  0.00     0.000 HD 
HETATM   16  O   UNL     1     -13.594  10.286  70.847  1.00  0.00    -0.221 OA 
HETATM   17  N   UNL     1     -11.821  11.641  70.247  1.00  0.00    -0.345 N  
BRANCH  17  18
HETATM   18  C   UNL     1     -12.371  12.848  70.725  1.00  0.00    -0.299 A  
HETATM   19  C   UNL     1     -12.231  14.059  70.010  1.00  0.00    -0.414 A  
HETATM   20  C   UNL     1     -13.677  13.915  72.468  1.00  0.00    -0.665 A  
HETATM   21  C   UNL     1     -12.857  15.187  70.586  1.00  0.00    -0.440 A  
HETATM   22  C   UNL     1     -13.579  15.117  71.785  1.00  0.00    -0.553 A  
HETATM   23  C   UNL     1     -13.066  12.783  71.945  1.00  0.00    -0.474 A  
BRANCH  19  24
HETATM   24  C   UNL     1     -11.503  14.206  68.713  1.00  0.00    -0.333 A  
HETATM   25  C   UNL     1     -12.155  14.166  67.466  1.00  0.00    -0.363 A  
HETATM   26  C   UNL     1     -11.454  14.287  66.259  1.00  0.00    -0.360 A  
HETATM   27  C   UNL     1     -10.071  14.415  66.263  1.00  0.00    -0.308 A  
HETATM   28  C   UNL     1      -9.392  14.447  67.475  1.00  0.00    -0.198 A  
HETATM   29  C   UNL     1     -10.101  14.360  68.678  1.00  0.00    -0.242 A  
ENDBRANCH  19  24
ENDBRANCH  17  18
ENDBRANCH  13  14
ENDBRANCH  10  13
ENDBRANCH   6   7
ENDBRANCH   5   6
ENDBRANCH   2   5
BRANCH   4  30
HETATM   30  C   UNL     1      -8.718   3.254  71.100  1.00  0.00    -0.125 A  
HETATM   31  C   UNL     1      -7.699   2.430  70.600  1.00  0.00    -0.042 A  
HETATM   32  C   UNL     1      -9.681   3.733  70.207  1.00  0.00    -0.222 A  
HETATM   33  C   UNL     1      -9.730   3.269  68.893  1.00  0.00     0.038 A  
HETATM   34  C   UNL     1      -7.706   2.015  69.262  1.00  0.00    -0.045 A  
HETATM   35  C   UNL     1      -8.745   2.402  68.407  1.00  0.00    -0.130 A  
BRANCH  35  36
HETATM   36  C   UNL     1      -8.799   1.930  66.969  1.00  0.00    -0.128 C  
BRANCH  36  37
HETATM   37  N   UNL     1      -7.839   2.634  66.105  1.00  0.00    -0.080 NA 
HETATM   38  C   UNL     1      -7.925   4.091  66.242  1.00  0.00    -0.098 C  
HETATM   39  C   UNL     1      -7.918   2.230  64.693  1.00  0.00    -0.074 C  
HETATM   40  C   UNL     1      -9.151   2.775  63.966  1.00  0.00    -0.107 C  
HETATM   41  C   UNL     1      -9.162   4.701  65.577  1.00  0.00    -0.153 C  
HETATM   42  C   UNL     1      -9.264   4.297  64.101  1.00  0.00    -0.150 C  
BRANCH  42  43
HETATM   43  C   UNL     1      -8.222   5.011  63.239  1.00  0.00    -0.109 C  
HETATM   44  N   UNL     1      -8.257   6.372  63.280  1.00  0.00    -0.300 N  
HETATM   45  H2  UNL     1      -8.934   6.882  63.848  1.00  0.00     0.000 HD 
HETATM   46  O   UNL     1      -7.410   4.446  62.515  1.00  0.00    -0.039 OA 
HETATM   47  H1  UNL     1      -7.561   6.849  62.705  1.00  0.00     0.000 HD 
ENDBRANCH  42  43
ENDBRANCH  36  37
ENDBRANCH  35  36
ENDBRANCH   4  30
TORSDOF 11
ENDMDL
MODEL       81
REMARK 921   NORMALIZED FREE ENERGY PREDICTED BY IDOCK:   -5.58 KCAL/MOL
REMARK 922        TOTAL FREE ENERGY PREDICTED BY IDOCK:  -10.80 KCAL/MOL
REMARK 923 INTER-LIGAND FREE ENERGY PREDICTED BY IDOCK:   -8.52 KCAL/MOL
REMARK 924 INTRA-LIGAND FREE ENERGY PREDICTED BY IDOCK:   -2.28 KCAL/MOL
REMARK 927      BINDING AFFINITY PREDICTED BY RF-SCORE:    0.00 PKD
ROOT
HETATM    1  C   UNL     1     -10.365   5.660  74.470  1.00  0.00    -0.232 C  
HETATM    2  N   UNL     1      -9.622   5.778  73.225  1.00  0.00    -0.143 N  
HETATM    3  O   UNL     1     -10.406   3.693  72.615  1.00  0.00    -0.165 OA 
HETATM    4  C   UNL     1      -9.761   4.701  72.320  1.00  0.00    -0.161 C  
ENDROOT
BRANCH   2   5
HETATM    5  C   UNL     1      -9.045   7.064  72.830  1.00  0.00    -0.134 C  
BRANCH   5   6
HETATM    6  C   UNL     1      -9.924   8.202  72.286  1.00  0.00    -0.263 C  
BRANCH   6   7
HETATM    7  N   UNL     1     -10.292   7.963  70.869  1.00  0.00    -0.200 NA 
HETATM    8  C   UNL     1      -9.168   8.206  69.954  1.00  0.00    -0.151 C  
HETATM    9  C   UNL     1     -11.471   8.718  70.412  1.00  0.00    -0.144 C  
HETATM   10  C   UNL     1     -10.038  10.542  69.456  1.00  0.00    -0.178 C  
HETATM   11  C   UNL     1     -11.222  10.223  70.375  1.00  0.00    -0.407 C  
HETATM   12  C   UNL     1      -8.815   9.688  69.807  1.00  0.00    -0.224 C  
BRANCH  10  13
HETATM   13  O   UNL     1     -10.400  10.257  68.091  1.00  0.00    -0.160 OA 
BRANCH  13  14
HETATM   14  C   UNL     1     -10.188  11.278  67.217  1.00  0.00    -0.194 C  
HETATM   15  H   UNL     1     -11.907  12.103  68.026  1.00  0.00     0.000 HD 
HETATM   16  O   UNL     1      -9.181  11.412  66.540  1.00  0.00    -0.178 OA 
HETATM   17  N   UNL     1     -11.280  12.098  67.223  1.00  0.00    -0.286 N  
BRANCH  17  18
HETATM   18  C   UNL     1     -11.542  12.937  66.121  1.00  0.00    -0.372 A  
HETATM   19  C   UNL     1     -11.093  14.277  66.087  1.00  0.00    -0.324 A  
HETATM   20  C   UNL     1     -12.535  13.113  63.914  1.00  0.00    -0.356 A  
HETATM   21  C   UNL     1     -11.398  14.997  64.910  1.00  0.00    -0.419 A  
HETATM   22  C   UNL     1     -12.093  14.425  63.837  1.00  0.00    -0.190 A  
HETATM   23  C   UNL     1     -12.269  12.372  65.058  1.00  0.00    -0.465 A  
BRANCH  19  24
HETATM   24  C   UNL     1     -10.322  14.947  67.179  1.00  0.00    -0.260 A  
HETATM   25  C   UNL     1     -10.943  15.590  68.265  1.00  0.00    -0.305 A  
HETATM   26  C   UNL     1     -10.205  16.230  69.269  1.00  0.00    -0.269 A  
HETATM   27  C   UNL     1      -8.818  16.275  69.196  1.00  0.00    -0.217 A  
HETATM   28  C   UNL     1      -8.170  15.660  68.132  1.00  0.00    -0.144 A  
HETATM   29  C   UNL     1      -8.912  14.994  67.150  1.00  0.00    -0.235 A  
ENDBRANCH  19  24
ENDBRANCH  17  18
ENDBRANCH  13  14
ENDBRANCH  10  13
ENDBRANCH   6   7
ENDBRANCH   5   6
ENDBRANCH   2   5
BRANCH   4  30
HETATM   30  C   UNL     1      -9.214   4.780  70.925  1.00  0.00    -0.194 A  
HETATM   31  C   UNL     1      -7.821   4.865  70.771  1.00  0.00    -0.078 A  
HETATM   32  C   UNL     1     -10.008   4.774  69.775  1.00  0.00    -0.308 A  
HETATM   33  C   UNL     1      -9.431   4.680  68.508  1.00  0.00    -0.206 A  
HETATM   34  C   UNL     1      -7.240   4.840  69.497  1.00  0.00    -0.055 A  
HETATM   35  C   UNL     1      -8.040   4.708  68.357  1.00  0.00    -0.083 A  
BRANCH  35  36
HETATM   36  C   UNL     1      -7.432   4.633  66.971  1.00  0.00    -0.086 C  
BRANCH  36  37
HETATM   37  N   UNL     1      -6.725   5.867  66.595  1.00  0.00    -0.056 NA 
HETATM   38  C   UNL     1      -7.452   7.075  66.998  1.00  0.00    -0.094 C  
HETATM   39  C   UNL     1      -6.360   5.920  65.170  1.00  0.00    -0.038 C  
HETATM   40  C   UNL     1      -7.550   6.177  64.241  1.00  0.00    -0.096 C  
HETATM   41  C   UNL     1      -8.684   7.369  66.138  1.00  0.00    -0.172 C  
HETATM   42  C   UNL     1      -8.328   7.433  64.648  1.00  0.00     0.033 C  
BRANCH  42  43
HETATM   43  C   UNL     1      -7.553   8.705  64.299  1.00  0.00    -0.120 C  
HETATM   44  N   UNL     1      -7.359   9.576  65.329  1.00  0.00    -0.100 N  
HETATM   45  H2  UNL     1      -7.707   9.392  66.270  1.00  0.00     0.000 HD 
HETATM   46  O   UNL     1      -7.144   8.988  63.178  1.00  0.00    -0.090 OA 
HETATM   47  H1  UNL     1      -6.841  10.424  65.097  1.00  0.00     0.000 HD 
ENDBRANCH  42  43
ENDBRANCH  36  37
ENDBRANCH  35  36
ENDBRANCH   4  30
TORSDOF 11
ENDMDL
MODEL       82
REMARK 921   NORMALIZED FREE ENERGY PREDICTED BY IDOCK:   -5.57 KCAL/MOL
REMARK 922        TOTAL FREE ENERGY PREDICTED BY IDOCK:  -10.79 KCAL/MOL
REMARK 923 INTER-LIGAND FREE ENERGY PREDICTED BY IDOCK:   -9.41 KCAL/MOL
REMARK 924 INTRA-LIGAND FREE ENERGY PREDICTED BY IDOCK:   -1.38 KCAL/MOL
REMARK 927      BINDING AFFINITY PREDICTED BY RF-SCORE:    0.00 PKD
ROOT
HETATM    1  C   UNL     1     -10.247  11.372  69.590  1.00  0.00     0.409 C  
HETATM    2  N   UNL     1      -9.874  10.118  68.953  1.00  0.00    -0.180 N  
HETATM    3  O   UNL     1      -9.645   9.176  71.050  1.00  0.00    -0.251 OA 
HETATM    4  C   UNL     1      -9.625   9.034  69.826  1.00  0.00    -0.175 C  
ENDROOT
BRANCH   2   5
HETATM    5  C   UNL     1     -10.064   9.937  67.513  1.00  0.00    -0.197 C  
BRANCH   5   6
HETATM    6  C   UNL     1     -11.140  10.722  66.743  1.00  0.00    -0.082 C  
BRANCH   6   7
HETATM    7  N   UNL     1     -10.543  11.490  65.623  1.00  0.00    -0.267 NA 
HETATM    8  C   UNL     1      -9.607  12.521  66.093  1.00  0.00    -0.228 C  
HETATM    9  C   UNL     1     -11.527  12.097  64.712  1.00  0.00    -0.322 C  
HETATM   10  C   UNL     1     -11.423  14.291  65.923  1.00  0.00    -0.335 C  
HETATM   11  C   UNL     1     -12.347  13.195  65.384  1.00  0.00    -0.532 C  
HETATM   12  C   UNL     1     -10.299  13.701  66.780  1.00  0.00    -0.268 C  
BRANCH  10  13
HETATM   13  O   UNL     1     -10.817  14.993  64.820  1.00  0.00    -0.394 OA 
BRANCH  13  14
HETATM   14  C   UNL     1     -10.731  16.342  64.978  1.00  0.00    -0.298 C  
HETATM   15  H   UNL     1      -9.071  15.929  66.147  1.00  0.00     0.000 HD 
HETATM   16  O   UNL     1     -11.402  17.156  64.364  1.00  0.00    -1.115 OA 
HETATM   17  N   UNL     1      -9.794  16.615  65.933  1.00  0.00    -0.300 N  
BRANCH  17  18
HETATM   18  C   UNL     1      -9.822  17.844  66.623  1.00  0.00    -0.342 A  
HETATM   19  C   UNL     1     -10.182  17.918  67.988  1.00  0.00    -0.381 A  
HETATM   20  C   UNL     1      -9.434  20.235  66.497  1.00  0.00    -0.460 A  
HETATM   21  C   UNL     1     -10.140  19.207  68.565  1.00  0.00    -0.499 A  
HETATM   22  C   UNL     1      -9.760  20.344  67.840  1.00  0.00    -0.426 A  
HETATM   23  C   UNL     1      -9.474  18.989  65.886  1.00  0.00     0.049 A  
BRANCH  19  24
HETATM   24  C   UNL     1     -10.569  16.747  68.834  1.00  0.00    -0.350 A  
HETATM   25  C   UNL     1      -9.634  16.006  69.579  1.00  0.00    -0.200 A  
HETATM   26  C   UNL     1     -10.011  14.899  70.351  1.00  0.00     0.470 A  
HETATM   27  C   UNL     1     -11.336  14.480  70.372  1.00  0.00    -0.196 A  
HETATM   28  C   UNL     1     -12.285  15.182  69.640  1.00  0.00    -0.292 A  
HETATM   29  C   UNL     1     -11.908  16.306  68.896  1.00  0.00    -0.060 A  
ENDBRANCH  19  24
ENDBRANCH  17  18
ENDBRANCH  13  14
ENDBRANCH  10  13
ENDBRANCH   6   7
ENDBRANCH   5   6
ENDBRANCH   2   5
BRANCH   4  30
HETATM   30  C   UNL     1      -9.427   7.641  69.301  1.00  0.00    -0.158 A  
HETATM   31  C   UNL     1      -8.194   7.336  68.703  1.00  0.00    -0.125 A  
HETATM   32  C   UNL     1     -10.395   6.636  69.374  1.00  0.00    -0.228 A  
HETATM   33  C   UNL     1     -10.088   5.322  69.022  1.00  0.00    -0.272 A  
HETATM   34  C   UNL     1      -7.906   6.030  68.286  1.00  0.00    -0.106 A  
HETATM   35  C   UNL     1      -8.839   5.004  68.478  1.00  0.00    -0.112 A  
BRANCH  35  36
HETATM   36  C   UNL     1      -8.533   3.576  68.076  1.00  0.00    -0.093 C  
BRANCH  36  37
HETATM   37  N   UNL     1      -9.451   3.069  67.044  1.00  0.00    -0.125 NA 
HETATM   38  C   UNL     1      -8.872   1.965  66.272  1.00  0.00    -0.116 C  
HETATM   39  C   UNL     1      -9.970   4.121  66.156  1.00  0.00    -0.173 C  
HETATM   40  C   UNL     1      -8.938   4.640  65.151  1.00  0.00    -0.150 C  
HETATM   41  C   UNL     1      -7.797   2.407  65.276  1.00  0.00    -0.078 C  
HETATM   42  C   UNL     1      -8.316   3.501  64.335  1.00  0.00    -0.093 C  
BRANCH  42  43
HETATM   43  C   UNL     1      -9.303   2.950  63.306  1.00  0.00    -0.094 C  
HETATM   44  N   UNL     1     -10.230   3.836  62.845  1.00  0.00    -0.176 N  
HETATM   45  H2  UNL     1     -10.262   4.804  63.166  1.00  0.00     0.000 HD 
HETATM   46  O   UNL     1      -9.327   1.788  62.914  1.00  0.00    -0.089 OA 
HETATM   47  H1  UNL     1     -10.888   3.468  62.158  1.00  0.00     0.000 HD 
ENDBRANCH  42  43
ENDBRANCH  36  37
ENDBRANCH  35  36
ENDBRANCH   4  30
TORSDOF 11
ENDMDL
MODEL       83
REMARK 921   NORMALIZED FREE ENERGY PREDICTED BY IDOCK:   -5.56 KCAL/MOL
REMARK 922        TOTAL FREE ENERGY PREDICTED BY IDOCK:  -10.77 KCAL/MOL
REMARK 923 INTER-LIGAND FREE ENERGY PREDICTED BY IDOCK:   -8.32 KCAL/MOL
REMARK 924 INTRA-LIGAND FREE ENERGY PREDICTED BY IDOCK:   -2.45 KCAL/MOL
REMARK 927      BINDING AFFINITY PREDICTED BY RF-SCORE:    0.00 PKD
ROOT
HETATM    1  C   UNL     1      -5.339   1.907  64.903  1.00  0.00    -0.005 C  
HETATM    2  N   UNL     1      -5.835   3.269  64.782  1.00  0.00    -0.017 N  
HETATM    3  O   UNL     1      -5.324   3.204  62.530  1.00  0.00    -0.004 OA 
HETATM    4  C   UNL     1      -5.813   3.819  63.480  1.00  0.00    -0.014 C  
ENDROOT
BRANCH   2   5
HETATM    5  C   UNL     1      -6.591   3.878  65.878  1.00  0.00    -0.044 C  
BRANCH   5   6
HETATM    6  C   UNL     1      -5.879   4.533  67.073  1.00  0.00    -0.023 C  
BRANCH   6   7
HETATM    7  N   UNL     1      -5.976   6.012  67.009  1.00  0.00    -0.017 NA 
HETATM    8  C   UNL     1      -5.495   6.655  68.239  1.00  0.00    -0.012 C  
HETATM    9  C   UNL     1      -7.319   6.519  66.682  1.00  0.00    -0.078 C  
HETATM   10  C   UNL     1      -7.876   6.853  69.104  1.00  0.00    -0.111 C  
HETATM   11  C   UNL     1      -8.336   6.231  67.782  1.00  0.00    -0.117 C  
HETATM   12  C   UNL     1      -6.432   6.459  69.433  1.00  0.00    -0.040 C  
BRANCH  10  13
HETATM   13  O   UNL     1      -7.932   8.289  69.004  1.00  0.00    -0.108 OA 
BRANCH  13  14
HETATM   14  C   UNL     1      -8.668   8.902  69.970  1.00  0.00    -0.147 C  
HETATM   15  H   UNL     1     -10.087   7.445  69.575  1.00  0.00     0.000 HD 
HETATM   16  O   UNL     1      -8.254   9.789  70.699  1.00  0.00    -0.246 OA 
HETATM   17  N   UNL     1      -9.926   8.372  69.968  1.00  0.00    -0.186 N  
BRANCH  17  18
HETATM   18  C   UNL     1     -11.004   9.102  70.509  1.00  0.00    -0.258 A  
HETATM   19  C   UNL     1     -11.630   8.714  71.715  1.00  0.00    -0.403 A  
HETATM   20  C   UNL     1     -12.448  11.037  70.271  1.00  0.00    -0.365 A  
HETATM   21  C   UNL     1     -12.677   9.551  72.161  1.00  0.00    -0.442 A  
HETATM   22  C   UNL     1     -13.072  10.699  71.461  1.00  0.00    -0.527 A  
HETATM   23  C   UNL     1     -11.422  10.235  69.789  1.00  0.00    -0.320 A  
BRANCH  19  24
HETATM   24  C   UNL     1     -11.246   7.521  72.531  1.00  0.00    -0.381 A  
HETATM   25  C   UNL     1     -10.306   7.586  73.576  1.00  0.00    -0.373 A  
HETATM   26  C   UNL     1      -9.944   6.454  74.319  1.00  0.00    -0.346 A  
HETATM   27  C   UNL     1     -10.488   5.213  74.012  1.00  0.00    -0.323 A  
HETATM   28  C   UNL     1     -11.411   5.109  72.979  1.00  0.00    -0.349 A  
HETATM   29  C   UNL     1     -11.794   6.249  72.263  1.00  0.00    -0.326 A  
ENDBRANCH  19  24
ENDBRANCH  17  18
ENDBRANCH  13  14
ENDBRANCH  10  13
ENDBRANCH   6   7
ENDBRANCH   5   6
ENDBRANCH   2   5
BRANCH   4  30
HETATM   30  C   UNL     1      -6.475   5.132  63.178  1.00  0.00    -0.026 A  
HETATM   31  C   UNL     1      -7.825   5.113  62.794  1.00  0.00    -0.077 A  
HETATM   32  C   UNL     1      -5.827   6.368  63.259  1.00  0.00    -0.026 A  
HETATM   33  C   UNL     1      -6.541   7.559  63.131  1.00  0.00    -0.058 A  
HETATM   34  C   UNL     1      -8.529   6.307  62.597  1.00  0.00     0.079 A  
HETATM   35  C   UNL     1      -7.901   7.541  62.802  1.00  0.00    -0.132 A  
BRANCH  35  36
HETATM   36  C   UNL     1      -8.654   8.846  62.640  1.00  0.00    -0.180 C  
BRANCH  36  37
HETATM   37  N   UNL     1      -8.164   9.899  63.542  1.00  0.00    -0.151 NA 
HETATM   38  C   UNL     1      -8.506   9.640  64.944  1.00  0.00    -0.151 C  
HETATM   39  C   UNL     1      -8.576  11.252  63.138  1.00  0.00     0.114 C  
HETATM   40  C   UNL     1     -10.055  11.549  63.403  1.00  0.00    -0.454 C  
HETATM   41  C   UNL     1      -9.983   9.873  65.271  1.00  0.00    -0.320 C  
HETATM   42  C   UNL     1     -10.436  11.280  64.863  1.00  0.00    -0.375 C  
BRANCH  42  43
HETATM   43  C   UNL     1      -9.871  12.354  65.793  1.00  0.00    -0.240 C  
HETATM   44  N   UNL     1      -9.672  13.577  65.227  1.00  0.00    -0.541 N  
HETATM   45  H2  UNL     1      -9.887  13.764  64.247  1.00  0.00     0.000 HD 
HETATM   46  O   UNL     1      -9.566  12.171  66.967  1.00  0.00    -0.197 OA 
HETATM   47  H1  UNL     1      -9.296  14.294  65.847  1.00  0.00     0.000 HD 
ENDBRANCH  42  43
ENDBRANCH  36  37
ENDBRANCH  35  36
ENDBRANCH   4  30
TORSDOF 11
ENDMDL
MODEL       84
REMARK 921   NORMALIZED FREE ENERGY PREDICTED BY IDOCK:   -5.53 KCAL/MOL
REMARK 922        TOTAL FREE ENERGY PREDICTED BY IDOCK:  -10.72 KCAL/MOL
REMARK 923 INTER-LIGAND FREE ENERGY PREDICTED BY IDOCK:   -8.17 KCAL/MOL
REMARK 924 INTRA-LIGAND FREE ENERGY PREDICTED BY IDOCK:   -2.55 KCAL/MOL
REMARK 927      BINDING AFFINITY PREDICTED BY RF-SCORE:    0.00 PKD
ROOT
HETATM    1  C   UNL     1     -10.883   5.768  73.455  1.00  0.00    -0.260 C  
HETATM    2  N   UNL     1     -10.156   6.102  72.239  1.00  0.00    -0.178 N  
HETATM    3  O   UNL     1     -10.123   3.856  71.699  1.00  0.00    -0.173 OA 
HETATM    4  C   UNL     1      -9.856   5.017  71.384  1.00  0.00    -0.182 C  
ENDROOT
BRANCH   2   5
HETATM    5  C   UNL     1     -10.045   7.496  71.807  1.00  0.00    -0.176 C  
BRANCH   5   6
HETATM    6  C   UNL     1     -11.089   8.131  70.875  1.00  0.00    -0.258 C  
BRANCH   6   7
HETATM    7  N   UNL     1     -10.534   8.346  69.517  1.00  0.00    -0.223 NA 
HETATM    8  C   UNL     1      -9.172   8.896  69.553  1.00  0.00    -0.150 C  
HETATM    9  C   UNL     1     -11.378   9.177  68.641  1.00  0.00     0.466 C  
HETATM   10  C   UNL     1     -10.079  11.246  69.210  1.00  0.00     0.009 C  
HETATM   11  C   UNL     1     -11.475  10.622  69.122  1.00  0.00    -0.349 C  
HETATM   12  C   UNL     1      -9.120  10.356  70.008  1.00  0.00     0.252 C  
BRANCH  10  13
HETATM   13  O   UNL     1      -9.538  11.401  67.883  1.00  0.00    -0.168 OA 
BRANCH  13  14
HETATM   14  C   UNL     1      -9.108  12.656  67.584  1.00  0.00    -0.192 C  
HETATM   15  H   UNL     1     -10.803  13.294  68.590  1.00  0.00     0.000 HD 
HETATM   16  O   UNL     1      -8.020  12.918  67.095  1.00  0.00    -0.167 OA 
HETATM   17  N   UNL     1     -10.090  13.548  67.906  1.00  0.00    -0.242 N  
BRANCH  17  18
HETATM   18  C   UNL     1     -10.122  14.819  67.296  1.00  0.00    -0.236 A  
HETATM   19  C   UNL     1     -10.634  15.000  65.992  1.00  0.00    -0.329 A  
HETATM   20  C   UNL     1      -9.654  17.186  67.546  1.00  0.00    -0.254 A  
HETATM   21  C   UNL     1     -10.636  16.329  65.512  1.00  0.00    -0.369 A  
HETATM   22  C   UNL     1     -10.168  17.406  66.277  1.00  0.00    -0.344 A  
HETATM   23  C   UNL     1      -9.621  15.893  68.052  1.00  0.00    -0.211 A  
BRANCH  19  24
HETATM   24  C   UNL     1     -11.178  13.908  65.127  1.00  0.00    -0.326 A  
HETATM   25  C   UNL     1     -12.520  13.492  65.182  1.00  0.00    -0.495 A  
HETATM   26  C   UNL     1     -13.008  12.453  64.378  1.00  0.00    -0.219 A  
HETATM   27  C   UNL     1     -12.154  11.774  63.518  1.00  0.00    -0.485 A  
HETATM   28  C   UNL     1     -10.818  12.150  63.445  1.00  0.00    -0.474 A  
HETATM   29  C   UNL     1     -10.345  13.211  64.226  1.00  0.00    -0.361 A  
ENDBRANCH  19  24
ENDBRANCH  17  18
ENDBRANCH  13  14
ENDBRANCH  10  13
ENDBRANCH   6   7
ENDBRANCH   5   6
ENDBRANCH   2   5
BRANCH   4  30
HETATM   30  C   UNL     1      -9.290   5.242  70.012  1.00  0.00    -0.201 A  
HETATM   31  C   UNL     1      -7.915   5.505  69.905  1.00  0.00    -0.083 A  
HETATM   32  C   UNL     1     -10.050   5.203  68.840  1.00  0.00    -0.237 A  
HETATM   33  C   UNL     1      -9.436   5.252  67.588  1.00  0.00    -0.136 A  
HETATM   34  C   UNL     1      -7.305   5.622  68.650  1.00  0.00    -0.079 A  
HETATM   35  C   UNL     1      -8.056   5.458  67.480  1.00  0.00    -0.101 A  
BRANCH  35  36
HETATM   36  C   UNL     1      -7.411   5.536  66.111  1.00  0.00    -0.082 C  
BRANCH  36  37
HETATM   37  N   UNL     1      -6.759   6.832  65.865  1.00  0.00    -0.051 NA 
HETATM   38  C   UNL     1      -7.562   7.962  66.341  1.00  0.00    -0.091 C  
HETATM   39  C   UNL     1      -6.352   7.023  64.465  1.00  0.00    -0.036 C  
HETATM   40  C   UNL     1      -7.522   7.299  63.516  1.00  0.00    -0.100 C  
HETATM   41  C   UNL     1      -8.779   8.266  65.463  1.00  0.00    -0.173 C  
HETATM   42  C   UNL     1      -8.379   8.475  63.998  1.00  0.00    -0.099 C  
BRANCH  42  43
HETATM   43  C   UNL     1      -7.662   9.809  63.785  1.00  0.00    -0.135 C  
HETATM   44  N   UNL     1      -7.684  10.664  64.846  1.00  0.00    -0.346 N  
HETATM   45  H2  UNL     1      -8.147  10.430  65.723  1.00  0.00     0.000 HD 
HETATM   46  O   UNL     1      -7.120  10.151  62.740  1.00  0.00    -0.122 OA 
HETATM   47  H1  UNL     1      -7.205  11.554  64.704  1.00  0.00     0.000 HD 
ENDBRANCH  42  43
ENDBRANCH  36  37
ENDBRANCH  35  36
ENDBRANCH   4  30
TORSDOF 11
ENDMDL
MODEL       85
REMARK 921   NORMALIZED FREE ENERGY PREDICTED BY IDOCK:   -5.51 KCAL/MOL
REMARK 922        TOTAL FREE ENERGY PREDICTED BY IDOCK:  -10.69 KCAL/MOL
REMARK 923 INTER-LIGAND FREE ENERGY PREDICTED BY IDOCK:  -10.02 KCAL/MOL
REMARK 924 INTRA-LIGAND FREE ENERGY PREDICTED BY IDOCK:   -0.67 KCAL/MOL
REMARK 927      BINDING AFFINITY PREDICTED BY RF-SCORE:    0.00 PKD
ROOT
HETATM    1  C   UNL     1      -7.151   7.292  63.421  1.00  0.00    -0.066 C  
HETATM    2  N   UNL     1      -7.813   7.166  64.710  1.00  0.00    -0.122 N  
HETATM    3  O   UNL     1      -6.471   5.342  65.167  1.00  0.00    -0.037 OA 
HETATM    4  C   UNL     1      -7.335   6.133  65.549  1.00  0.00    -0.080 C  
ENDROOT
BRANCH   2   5
HETATM    5  C   UNL     1      -8.677   8.240  65.203  1.00  0.00    -0.054 C  
BRANCH   5   6
HETATM    6  C   UNL     1      -9.497   9.113  64.239  1.00  0.00     0.576 C  
BRANCH   6   7
HETATM    7  N   UNL     1      -8.966  10.496  64.185  1.00  0.00    -0.206 NA 
HETATM    8  C   UNL     1      -8.698  11.041  65.523  1.00  0.00    -0.138 C  
HETATM    9  C   UNL     1      -9.806  11.440  63.428  1.00  0.00    -0.396 C  
HETATM   10  C   UNL     1     -10.939  12.239  65.518  1.00  0.00    -0.298 C  
HETATM   11  C   UNL     1     -11.151  11.695  64.102  1.00  0.00    -0.435 C  
HETATM   12  C   UNL     1      -9.969  11.361  66.314  1.00  0.00    -0.259 C  
BRANCH  10  13
HETATM   13  O   UNL     1     -10.377  13.565  65.444  1.00  0.00    -0.299 OA 
BRANCH  13  14
HETATM   14  C   UNL     1     -10.003  14.095  66.639  1.00  0.00    -0.277 C  
HETATM   15  H   UNL     1      -8.787  15.339  65.514  1.00  0.00     0.000 HD 
HETATM   16  O   UNL     1     -10.533  13.837  67.709  1.00  0.00    -0.235 OA 
HETATM   17  N   UNL     1      -8.947  14.937  66.437  1.00  0.00    -0.256 N  
BRANCH  17  18
HETATM   18  C   UNL     1      -8.076  15.250  67.501  1.00  0.00    -0.172 A  
HETATM   19  C   UNL     1      -8.081  16.525  68.110  1.00  0.00    -0.172 A  
HETATM   20  C   UNL     1      -6.346  14.437  68.994  1.00  0.00    -0.097 A  
HETATM   21  C   UNL     1      -7.180  16.695  69.185  1.00  0.00    -0.220 A  
HETATM   22  C   UNL     1      -6.337  15.668  69.630  1.00  0.00    -0.174 A  
HETATM   23  C   UNL     1      -7.207  14.229  67.925  1.00  0.00    -0.166 A  
BRANCH  19  24
HETATM   24  C   UNL     1      -8.970  17.659  67.712  1.00  0.00    -0.247 A  
HETATM   25  C   UNL     1      -9.473  18.592  68.637  1.00  0.00    -0.373 A  
HETATM   26  C   UNL     1     -10.322  19.637  68.249  1.00  0.00    -0.539 A  
HETATM   27  C   UNL     1     -10.720  19.759  66.923  1.00  0.00    -0.541 A  
HETATM   28  C   UNL     1     -10.252  18.850  65.983  1.00  0.00    -0.437 A  
HETATM   29  C   UNL     1      -9.378  17.827  66.371  1.00  0.00    -0.264 A  
ENDBRANCH  19  24
ENDBRANCH  17  18
ENDBRANCH  13  14
ENDBRANCH  10  13
ENDBRANCH   6   7
ENDBRANCH   5   6
ENDBRANCH   2   5
BRANCH   4  30
HETATM   30  C   UNL     1      -7.788   6.016  66.975  1.00  0.00    -0.102 A  
HETATM   31  C   UNL     1      -7.192   6.862  67.924  1.00  0.00    -0.095 A  
HETATM   32  C   UNL     1      -8.766   5.118  67.411  1.00  0.00    -0.103 A  
HETATM   33  C   UNL     1      -9.261   5.177  68.714  1.00  0.00    -0.152 A  
HETATM   34  C   UNL     1      -7.639   6.876  69.251  1.00  0.00    -0.096 A  
HETATM   35  C   UNL     1      -8.705   6.059  69.647  1.00  0.00    -0.133 A  
BRANCH  35  36
HETATM   36  C   UNL     1      -9.236   6.089  71.065  1.00  0.00    -0.157 C  
BRANCH  36  37
HETATM   37  N   UNL     1     -10.692   6.291  71.121  1.00  0.00    -0.238 NA 
HETATM   38  C   UNL     1     -11.179   7.165  70.049  1.00  0.00    -0.238 C  
HETATM   39  C   UNL     1     -11.168   6.749  72.435  1.00  0.00    -0.264 C  
HETATM   40  C   UNL     1     -10.836   8.214  72.732  1.00  0.00    -0.390 C  
HETATM   41  C   UNL     1     -10.840   8.643  70.258  1.00  0.00    -0.250 C  
HETATM   42  C   UNL     1     -11.332   9.146  71.621  1.00  0.00    -0.446 C  
BRANCH  42  43
HETATM   43  C   UNL     1     -12.853   9.299  71.660  1.00  0.00    -0.372 C  
HETATM   44  N   UNL     1     -13.431   9.728  70.503  1.00  0.00    -0.535 N  
HETATM   45  H2  UNL     1     -12.885   9.934  69.666  1.00  0.00     0.000 HD 
HETATM   46  O   UNL     1     -13.549   9.096  72.648  1.00  0.00    -0.465 OA 
HETATM   47  H1  UNL     1     -14.446   9.829  70.529  1.00  0.00     0.000 HD 
ENDBRANCH  42  43
ENDBRANCH  36  37
ENDBRANCH  35  36
ENDBRANCH   4  30
TORSDOF 11
ENDMDL
MODEL       86
REMARK 921   NORMALIZED FREE ENERGY PREDICTED BY IDOCK:   -5.51 KCAL/MOL
REMARK 922        TOTAL FREE ENERGY PREDICTED BY IDOCK:  -10.68 KCAL/MOL
REMARK 923 INTER-LIGAND FREE ENERGY PREDICTED BY IDOCK:  -10.28 KCAL/MOL
REMARK 924 INTRA-LIGAND FREE ENERGY PREDICTED BY IDOCK:   -0.40 KCAL/MOL
REMARK 927      BINDING AFFINITY PREDICTED BY RF-SCORE:    0.00 PKD
ROOT
HETATM    1  C   UNL     1      -5.140  13.010  69.856  1.00  0.00    -0.085 C  
HETATM    2  N   UNL     1      -5.317  11.678  69.297  1.00  0.00    -0.048 N  
HETATM    3  O   UNL     1      -5.872  10.918  71.407  1.00  0.00    -0.348 OA 
HETATM    4  C   UNL     1      -5.743  10.681  70.204  1.00  0.00    -0.076 C  
ENDROOT
BRANCH   2   5
HETATM    5  C   UNL     1      -5.357  11.488  67.846  1.00  0.00    -0.046 C  
BRANCH   5   6
HETATM    6  C   UNL     1      -6.584  11.903  67.018  1.00  0.00    -0.128 C  
BRANCH   6   7
HETATM    7  N   UNL     1      -7.843  11.482  67.680  1.00  0.00    -0.119 NA 
HETATM    8  C   UNL     1      -8.750  10.785  66.757  1.00  0.00    -0.143 C  
HETATM    9  C   UNL     1      -8.569  12.573  68.352  1.00  0.00    -0.123 C  
HETATM   10  C   UNL     1     -10.048  12.933  66.359  1.00  0.00    -0.269 C  
HETATM   11  C   UNL     1      -9.114  13.606  67.370  1.00  0.00    -0.222 C  
HETATM   12  C   UNL     1      -9.386  11.710  65.717  1.00  0.00    -0.220 C  
BRANCH  10  13
HETATM   13  O   UNL     1     -11.243  12.489  67.031  1.00  0.00    -0.270 OA 
BRANCH  13  14
HETATM   14  C   UNL     1     -11.777  13.388  67.902  1.00  0.00    -0.361 C  
HETATM   15  H   UNL     1     -10.774  12.313  69.362  1.00  0.00     0.000 HD 
HETATM   16  O   UNL     1     -12.377  14.399  67.574  1.00  0.00    -0.273 OA 
HETATM   17  N   UNL     1     -11.539  12.961  69.177  1.00  0.00    -0.304 N  
BRANCH  17  18
HETATM   18  C   UNL     1     -12.349  13.415  70.239  1.00  0.00    -0.284 A  
HETATM   19  C   UNL     1     -12.826  12.533  71.234  1.00  0.00    -0.337 A  
HETATM   20  C   UNL     1     -13.411  15.327  71.288  1.00  0.00    -0.586 A  
HETATM   21  C   UNL     1     -13.601  13.123  72.258  1.00  0.00    -0.677 A  
HETATM   22  C   UNL     1     -13.879  14.496  72.294  1.00  0.00    -0.587 A  
HETATM   23  C   UNL     1     -12.655  14.787  70.256  1.00  0.00    -0.365 A  
BRANCH  19  24
HETATM   24  C   UNL     1     -12.548  11.064  71.279  1.00  0.00    -0.517 A  
HETATM   25  C   UNL     1     -11.454  10.477  70.618  1.00  0.00    -0.418 A  
HETATM   26  C   UNL     1     -11.219   9.096  70.654  1.00  0.00    -0.322 A  
HETATM   27  C   UNL     1     -12.096   8.255  71.328  1.00  0.00    -0.307 A  
HETATM   28  C   UNL     1     -13.194   8.799  71.984  1.00  0.00    -0.438 A  
HETATM   29  C   UNL     1     -13.405  10.182  71.972  1.00  0.00    -0.492 A  
ENDBRANCH  19  24
ENDBRANCH  17  18
ENDBRANCH  13  14
ENDBRANCH  10  13
ENDBRANCH   6   7
ENDBRANCH   5   6
ENDBRANCH   2   5
BRANCH   4  30
HETATM   30  C   UNL     1      -6.154   9.319  69.726  1.00  0.00    -0.039 A  
HETATM   31  C   UNL     1      -7.510   8.971  69.828  1.00  0.00    -0.062 A  
HETATM   32  C   UNL     1      -5.268   8.382  69.188  1.00  0.00    -0.031 A  
HETATM   33  C   UNL     1      -5.739   7.203  68.609  1.00  0.00    -0.022 A  
HETATM   34  C   UNL     1      -7.977   7.757  69.308  1.00  0.00    -0.125 A  
HETATM   35  C   UNL     1      -7.100   6.880  68.660  1.00  0.00    -0.085 A  
BRANCH  35  36
HETATM   36  C   UNL     1      -7.589   5.583  68.050  1.00  0.00    -0.081 C  
BRANCH  36  37
HETATM   37  N   UNL     1      -7.969   5.728  66.636  1.00  0.00    -0.101 NA 
HETATM   38  C   UNL     1      -9.422   5.727  66.443  1.00  0.00    -0.156 C  
HETATM   39  C   UNL     1      -7.316   4.750  65.752  1.00  0.00    -0.077 C  
HETATM   40  C   UNL     1      -7.882   3.333  65.880  1.00  0.00    -0.085 C  
HETATM   41  C   UNL     1     -10.063   4.346  66.602  1.00  0.00    -0.197 C  
HETATM   42  C   UNL     1      -9.402   3.309  65.686  1.00  0.00    -0.128 C  
BRANCH  42  43
HETATM   43  C   UNL     1      -9.780   3.518  64.220  1.00  0.00    -0.171 C  
HETATM   44  N   UNL     1     -10.953   2.948  63.827  1.00  0.00    -0.431 N  
HETATM   45  H2  UNL     1     -11.541   2.417  64.469  1.00  0.00     0.000 HD 
HETATM   46  O   UNL     1      -9.092   4.119  63.401  1.00  0.00    -0.123 OA 
HETATM   47  H1  UNL     1     -11.205   3.088  62.848  1.00  0.00     0.000 HD 
ENDBRANCH  42  43
ENDBRANCH  36  37
ENDBRANCH  35  36
ENDBRANCH   4  30
TORSDOF 11
ENDMDL
MODEL       87
REMARK 921   NORMALIZED FREE ENERGY PREDICTED BY IDOCK:   -5.50 KCAL/MOL
REMARK 922        TOTAL FREE ENERGY PREDICTED BY IDOCK:  -10.68 KCAL/MOL
REMARK 923 INTER-LIGAND FREE ENERGY PREDICTED BY IDOCK:   -9.55 KCAL/MOL
REMARK 924 INTRA-LIGAND FREE ENERGY PREDICTED BY IDOCK:   -1.12 KCAL/MOL
REMARK 927      BINDING AFFINITY PREDICTED BY RF-SCORE:    0.00 PKD
ROOT
HETATM    1  C   UNL     1     -13.605  13.579  70.958  1.00  0.00     0.212 C  
HETATM    2  N   UNL     1     -12.526  12.638  70.695  1.00  0.00    -0.288 N  
HETATM    3  O   UNL     1     -13.511  11.169  72.181  1.00  0.00    -0.380 OA 
HETATM    4  C   UNL     1     -12.616  11.396  71.364  1.00  0.00    -0.334 C  
ENDROOT
BRANCH   2   5
HETATM    5  C   UNL     1     -11.610  12.862  69.575  1.00  0.00    -0.282 C  
BRANCH   5   6
HETATM    6  C   UNL     1     -11.699  14.130  68.710  1.00  0.00    -0.345 C  
BRANCH   6   7
HETATM    7  N   UNL     1     -11.942  13.790  67.287  1.00  0.00    -0.401 NA 
HETATM    8  C   UNL     1     -11.866  12.343  67.039  1.00  0.00    -0.297 C  
HETATM    9  C   UNL     1     -11.068  14.498  66.336  1.00  0.00    -0.331 C  
HETATM   10  C   UNL     1      -9.462  12.573  66.247  1.00  0.00    -0.210 C  
HETATM   11  C   UNL     1      -9.605  14.083  66.466  1.00  0.00    -0.307 C  
HETATM   12  C   UNL     1     -10.442  11.788  67.124  1.00  0.00    -0.250 C  
BRANCH  10  13
HETATM   13  O   UNL     1      -9.749  12.259  64.870  1.00  0.00    -0.164 OA 
BRANCH  13  14
HETATM   14  C   UNL     1      -9.494  10.971  64.512  1.00  0.00    -0.233 C  
HETATM   15  H   UNL     1      -8.583  10.815  66.367  1.00  0.00     0.000 HD 
HETATM   16  O   UNL     1      -9.950  10.424  63.521  1.00  0.00    -0.277 OA 
HETATM   17  N   UNL     1      -8.647  10.418  65.429  1.00  0.00    -0.168 N  
BRANCH  17  18
HETATM   18  C   UNL     1      -7.861   9.299  65.084  1.00  0.00    -0.110 A  
HETATM   19  C   UNL     1      -7.000   8.684  66.020  1.00  0.00    -0.079 A  
HETATM   20  C   UNL     1      -7.277   7.705  63.352  1.00  0.00    -0.083 A  
HETATM   21  C   UNL     1      -6.293   7.553  65.552  1.00  0.00    -0.041 A  
HETATM   22  C   UNL     1      -6.437   7.063  64.248  1.00  0.00    -0.039 A  
HETATM   23  C   UNL     1      -7.981   8.828  63.765  1.00  0.00    -0.157 A  
BRANCH  19  24
HETATM   24  C   UNL     1      -6.815   9.130  67.435  1.00  0.00    -0.077 A  
HETATM   25  C   UNL     1      -6.495   8.241  68.477  1.00  0.00    -0.054 A  
HETATM   26  C   UNL     1      -6.345   8.674  69.801  1.00  0.00    -0.035 A  
HETATM   27  C   UNL     1      -6.547  10.009  70.128  1.00  0.00    -0.117 A  
HETATM   28  C   UNL     1      -6.876  10.915  69.126  1.00  0.00    -0.086 A  
HETATM   29  C   UNL     1      -6.991  10.482  67.800  1.00  0.00    -0.078 A  
ENDBRANCH  19  24
ENDBRANCH  17  18
ENDBRANCH  13  14
ENDBRANCH  10  13
ENDBRANCH   6   7
ENDBRANCH   5   6
ENDBRANCH   2   5
BRANCH   4  30
HETATM   30  C   UNL     1     -11.685  10.266  71.034  1.00  0.00    -0.461 A  
HETATM   31  C   UNL     1     -11.803   9.082  71.778  1.00  0.00    -0.442 A  
HETATM   32  C   UNL     1     -10.712  10.325  70.033  1.00  0.00    -0.345 A  
HETATM   33  C   UNL     1      -9.996   9.186  69.665  1.00  0.00    -0.198 A  
HETATM   34  C   UNL     1     -11.036   7.955  71.456  1.00  0.00    -0.278 A  
HETATM   35  C   UNL     1     -10.153   7.988  70.370  1.00  0.00    -0.194 A  
BRANCH  35  36
HETATM   36  C   UNL     1      -9.346   6.768  69.974  1.00  0.00    -0.158 C  
BRANCH  36  37
HETATM   37  N   UNL     1     -10.155   5.755  69.277  1.00  0.00    -0.187 NA 
HETATM   38  C   UNL     1      -9.359   4.602  68.846  1.00  0.00    -0.141 C  
HETATM   39  C   UNL     1     -10.942   6.303  68.162  1.00  0.00    -0.323 C  
HETATM   40  C   UNL     1     -10.102   6.650  66.929  1.00  0.00    -0.258 C  
HETATM   41  C   UNL     1      -8.458   4.891  67.642  1.00  0.00    -0.104 C  
HETATM   42  C   UNL     1      -9.257   5.459  66.463  1.00  0.00    -0.139 C  
BRANCH  42  43
HETATM   43  C   UNL     1     -10.123   4.391  65.793  1.00  0.00    -0.245 C  
HETATM   44  N   UNL     1     -11.372   4.793  65.424  1.00  0.00    -0.977 N  
HETATM   45  H2  UNL     1     -11.707   5.742  65.585  1.00  0.00     0.000 HD 
HETATM   46  O   UNL     1      -9.779   3.229  65.607  1.00  0.00    -0.092 OA 
HETATM   47  H1  UNL     1     -11.949   4.080  64.976  1.00  0.00     0.000 HD 
ENDBRANCH  42  43
ENDBRANCH  36  37
ENDBRANCH  35  36
ENDBRANCH   4  30
TORSDOF 11
ENDMDL
MODEL       88
REMARK 921   NORMALIZED FREE ENERGY PREDICTED BY IDOCK:   -5.49 KCAL/MOL
REMARK 922        TOTAL FREE ENERGY PREDICTED BY IDOCK:  -10.65 KCAL/MOL
REMARK 923 INTER-LIGAND FREE ENERGY PREDICTED BY IDOCK:   -9.21 KCAL/MOL
REMARK 924 INTRA-LIGAND FREE ENERGY PREDICTED BY IDOCK:   -1.44 KCAL/MOL
REMARK 927      BINDING AFFINITY PREDICTED BY RF-SCORE:    0.00 PKD
ROOT
HETATM    1  C   UNL     1     -11.906   9.026  72.078  1.00  0.00    -0.356 C  
HETATM    2  N   UNL     1     -11.069   8.163  71.258  1.00  0.00    -0.243 N  
HETATM    3  O   UNL     1     -10.107   7.341  73.191  1.00  0.00    -0.215 OA 
HETATM    4  C   UNL     1     -10.201   7.297  71.963  1.00  0.00    -0.190 C  
ENDROOT
BRANCH   2   5
HETATM    5  C   UNL     1     -11.357   7.995  69.833  1.00  0.00     0.056 C  
BRANCH   5   6
HETATM    6  C   UNL     1     -10.347   8.426  68.757  1.00  0.00    -0.206 C  
BRANCH   6   7
HETATM    7  N   UNL     1     -10.888   9.530  67.927  1.00  0.00    -0.223 NA 
HETATM    8  C   UNL     1     -10.306   9.548  66.577  1.00  0.00    -0.193 C  
HETATM    9  C   UNL     1     -10.761  10.865  68.535  1.00  0.00    -0.204 C  
HETATM   10  C   UNL     1      -8.634  11.324  67.288  1.00  0.00    -0.143 C  
HETATM   11  C   UNL     1      -9.308  11.313  68.663  1.00  0.00    -0.167 C  
HETATM   12  C   UNL     1      -8.844   9.996  66.553  1.00  0.00    -0.154 C  
BRANCH  10  13
HETATM   13  O   UNL     1      -9.207  12.372  66.481  1.00  0.00    -0.227 OA 
BRANCH  13  14
HETATM   14  C   UNL     1      -9.107  13.621  67.011  1.00  0.00    -0.248 C  
HETATM   15  H   UNL     1     -11.179  13.619  66.974  1.00  0.00     0.000 HD 
HETATM   16  O   UNL     1      -8.068  14.125  67.407  1.00  0.00    -0.174 OA 
HETATM   17  N   UNL     1     -10.343  14.202  67.007  1.00  0.00    -0.266 N  
BRANCH  17  18
HETATM   18  C   UNL     1     -10.467  15.606  67.050  1.00  0.00    -0.303 A  
HETATM   19  C   UNL     1     -10.984  16.269  68.185  1.00  0.00    -0.343 A  
HETATM   20  C   UNL     1     -10.093  17.698  65.879  1.00  0.00    -0.192 A  
HETATM   21  C   UNL     1     -11.025  17.679  68.107  1.00  0.00    -0.089 A  
HETATM   22  C   UNL     1     -10.576  18.384  66.982  1.00  0.00    -0.400 A  
HETATM   23  C   UNL     1     -10.047  16.310  65.908  1.00  0.00    -0.381 A  
BRANCH  19  24
HETATM   24  C   UNL     1     -11.455  15.589  69.431  1.00  0.00    -0.345 A  
HETATM   25  C   UNL     1     -12.102  14.340  69.418  1.00  0.00    -0.361 A  
HETATM   26  C   UNL     1     -12.554  13.727  70.594  1.00  0.00    -0.386 A  
HETATM   27  C   UNL     1     -12.401  14.365  71.818  1.00  0.00    -0.390 A  
HETATM   28  C   UNL     1     -11.777  15.605  71.869  1.00  0.00    -0.544 A  
HETATM   29  C   UNL     1     -11.298  16.197  70.695  1.00  0.00    -0.394 A  
ENDBRANCH  19  24
ENDBRANCH  17  18
ENDBRANCH  13  14
ENDBRANCH  10  13
ENDBRANCH   6   7
ENDBRANCH   5   6
ENDBRANCH   2   5
BRANCH   4  30
HETATM   30  C   UNL     1      -9.431   6.221  71.254  1.00  0.00    -0.171 A  
HETATM   31  C   UNL     1     -10.094   5.016  70.975  1.00  0.00    -0.297 A  
HETATM   32  C   UNL     1      -8.097   6.350  70.858  1.00  0.00    -0.124 A  
HETATM   33  C   UNL     1      -7.493   5.381  70.057  1.00  0.00    -0.069 A  
HETATM   34  C   UNL     1      -9.467   4.011  70.228  1.00  0.00    -0.255 A  
HETATM   35  C   UNL     1      -8.173   4.203  69.730  1.00  0.00    -0.068 A  
BRANCH  35  36
HETATM   36  C   UNL     1      -7.491   3.149  68.882  1.00  0.00    -0.048 C  
BRANCH  36  37
HETATM   37  N   UNL     1      -7.180   3.628  67.526  1.00  0.00    -0.059 NA 
HETATM   38  C   UNL     1      -8.259   4.441  66.957  1.00  0.00    -0.101 C  
HETATM   39  C   UNL     1      -6.786   2.552  66.603  1.00  0.00    -0.044 C  
HETATM   40  C   UNL     1      -7.955   1.671  66.152  1.00  0.00    -0.073 C  
HETATM   41  C   UNL     1      -9.483   3.628  66.525  1.00  0.00    -0.188 C  
HETATM   42  C   UNL     1      -9.098   2.502  65.558  1.00  0.00    -0.116 C  
BRANCH  42  43
HETATM   43  C   UNL     1      -8.735   3.037  64.173  1.00  0.00    -0.093 C  
HETATM   44  N   UNL     1      -9.584   3.972  63.662  1.00  0.00    -0.157 N  
HETATM   45  H2  UNL     1     -10.407   4.294  64.171  1.00  0.00     0.000 HD 
HETATM   46  O   UNL     1      -7.776   2.659  63.507  1.00  0.00    -0.065 OA 
HETATM   47  H1  UNL     1      -9.342   4.330  62.738  1.00  0.00     0.000 HD 
ENDBRANCH  42  43
ENDBRANCH  36  37
ENDBRANCH  35  36
ENDBRANCH   4  30
TORSDOF 11
ENDMDL
MODEL       89
REMARK 921   NORMALIZED FREE ENERGY PREDICTED BY IDOCK:   -5.47 KCAL/MOL
REMARK 922        TOTAL FREE ENERGY PREDICTED BY IDOCK:  -10.62 KCAL/MOL
REMARK 923 INTER-LIGAND FREE ENERGY PREDICTED BY IDOCK:   -8.38 KCAL/MOL
REMARK 924 INTRA-LIGAND FREE ENERGY PREDICTED BY IDOCK:   -2.24 KCAL/MOL
REMARK 927      BINDING AFFINITY PREDICTED BY RF-SCORE:    0.00 PKD
ROOT
HETATM    1  C   UNL     1      -6.518   7.404  65.812  1.00  0.00    -0.045 C  
HETATM    2  N   UNL     1      -7.254   8.635  66.059  1.00  0.00    -0.083 N  
HETATM    3  O   UNL     1      -9.145   7.618  65.208  1.00  0.00     0.136 OA 
HETATM    4  C   UNL     1      -8.631   8.604  65.740  1.00  0.00    -0.163 C  
ENDROOT
BRANCH   2   5
HETATM    5  C   UNL     1      -6.661   9.697  66.874  1.00  0.00    -0.075 C  
BRANCH   5   6
HETATM    6  C   UNL     1      -6.938   9.795  68.384  1.00  0.00    -0.068 C  
BRANCH   6   7
HETATM    7  N   UNL     1      -6.024   8.917  69.154  1.00  0.00    -0.042 NA 
HETATM    8  C   UNL     1      -6.324   7.492  68.955  1.00  0.00    -0.039 C  
HETATM    9  C   UNL     1      -5.970   9.212  70.595  1.00  0.00    -0.044 C  
HETATM   10  C   UNL     1      -7.674   7.444  71.108  1.00  0.00    -0.090 C  
HETATM   11  C   UNL     1      -7.289   8.914  71.303  1.00  0.00    -0.115 C  
HETATM   12  C   UNL     1      -7.624   7.046  69.629  1.00  0.00    -0.104 C  
BRANCH  10  13
HETATM   13  O   UNL     1      -6.746   6.606  71.824  1.00  0.00    -0.060 OA 
BRANCH  13  14
HETATM   14  C   UNL     1      -7.320   5.723  72.686  1.00  0.00    -0.095 C  
HETATM   15  H   UNL     1      -7.839   4.660  70.985  1.00  0.00     0.000 HD 
HETATM   16  O   UNL     1      -7.198   5.761  73.900  1.00  0.00    -0.085 OA 
HETATM   17  N   UNL     1      -8.051   4.819  71.970  1.00  0.00    -0.104 N  
BRANCH  17  18
HETATM   18  C   UNL     1      -9.097   4.104  72.588  1.00  0.00    -0.109 A  
HETATM   19  C   UNL     1     -10.414   4.615  72.637  1.00  0.00    -0.258 A  
HETATM   20  C   UNL     1      -9.741   2.070  73.742  1.00  0.00    -0.113 A  
HETATM   21  C   UNL     1     -11.372   3.784  73.258  1.00  0.00    -0.179 A  
HETATM   22  C   UNL     1     -11.048   2.528  73.790  1.00  0.00    -0.303 A  
HETATM   23  C   UNL     1      -8.764   2.860  73.151  1.00  0.00    -0.081 A  
BRANCH  19  24
HETATM   24  C   UNL     1     -10.842   5.929  72.067  1.00  0.00    -0.303 A  
HETATM   25  C   UNL     1     -11.176   6.098  70.710  1.00  0.00    -0.373 A  
HETATM   26  C   UNL     1     -11.556   7.341  70.189  1.00  0.00    -0.149 A  
HETATM   27  C   UNL     1     -11.580   8.464  71.007  1.00  0.00    -0.307 A  
HETATM   28  C   UNL     1     -11.246   8.339  72.349  1.00  0.00    -0.451 A  
HETATM   29  C   UNL     1     -10.899   7.087  72.872  1.00  0.00    -0.334 A  
ENDBRANCH  19  24
ENDBRANCH  17  18
ENDBRANCH  13  14
ENDBRANCH  10  13
ENDBRANCH   6   7
ENDBRANCH   5   6
ENDBRANCH   2   5
BRANCH   4  30
HETATM   30  C   UNL     1      -9.545   9.730  66.126  1.00  0.00    -0.287 A  
HETATM   31  C   UNL     1     -10.161   9.671  67.386  1.00  0.00    -0.283 A  
HETATM   32  C   UNL     1      -9.816  10.829  65.307  1.00  0.00    -0.329 A  
HETATM   33  C   UNL     1     -10.539  11.920  65.791  1.00  0.00    -0.309 A  
HETATM   34  C   UNL     1     -10.944  10.735  67.849  1.00  0.00    -0.344 A  
HETATM   35  C   UNL     1     -11.107  11.886  67.069  1.00  0.00    -0.354 A  
BRANCH  35  36
HETATM   36  C   UNL     1     -11.912  13.069  67.567  1.00  0.00    -0.306 C  
BRANCH  36  37
HETATM   37  N   UNL     1     -11.185  13.869  68.565  1.00  0.00    -0.255 NA 
HETATM   38  C   UNL     1     -11.777  15.196  68.759  1.00  0.00    -0.342 C  
HETATM   39  C   UNL     1      -9.742  13.967  68.297  1.00  0.00    -0.223 C  
HETATM   40  C   UNL     1      -9.396  14.894  67.128  1.00  0.00    -0.227 C  
HETATM   41  C   UNL     1     -11.509  16.165  67.604  1.00  0.00     0.038 C  
HETATM   42  C   UNL     1     -10.010  16.287  67.308  1.00  0.00    -0.250 C  
BRANCH  42  43
HETATM   43  C   UNL     1      -9.277  17.083  68.388  1.00  0.00    -0.259 C  
HETATM   44  N   UNL     1      -9.971  18.126  68.923  1.00  0.00    -0.366 N  
HETATM   45  H2  UNL     1     -10.917  18.361  68.623  1.00  0.00     0.000 HD 
HETATM   46  O   UNL     1      -8.129  16.863  68.760  1.00  0.00    -0.243 OA 
HETATM   47  H1  UNL     1      -9.482  18.657  69.644  1.00  0.00     0.000 HD 
ENDBRANCH  42  43
ENDBRANCH  36  37
ENDBRANCH  35  36
ENDBRANCH   4  30
TORSDOF 11
ENDMDL
MODEL       90
REMARK 921   NORMALIZED FREE ENERGY PREDICTED BY IDOCK:   -5.44 KCAL/MOL
REMARK 922        TOTAL FREE ENERGY PREDICTED BY IDOCK:  -10.58 KCAL/MOL
REMARK 923 INTER-LIGAND FREE ENERGY PREDICTED BY IDOCK:  -10.33 KCAL/MOL
REMARK 924 INTRA-LIGAND FREE ENERGY PREDICTED BY IDOCK:   -0.24 KCAL/MOL
REMARK 927      BINDING AFFINITY PREDICTED BY RF-SCORE:    0.00 PKD
ROOT
HETATM    1  C   UNL     1      -5.130   7.217  63.264  1.00  0.00    -0.033 C  
HETATM    2  N   UNL     1      -6.493   7.702  63.425  1.00  0.00    -0.058 N  
HETATM    3  O   UNL     1      -5.640   9.788  63.929  1.00  0.00    -0.076 OA 
HETATM    4  C   UNL     1      -6.625   9.076  63.731  1.00  0.00    -0.089 C  
ENDROOT
BRANCH   2   5
HETATM    5  C   UNL     1      -7.623   6.884  62.981  1.00  0.00    -0.096 C  
BRANCH   5   6
HETATM    6  C   UNL     1      -8.276   5.848  63.912  1.00  0.00    -0.056 C  
BRANCH   6   7
HETATM    7  N   UNL     1      -7.690   5.907  65.273  1.00  0.00    -0.090 NA 
HETATM    8  C   UNL     1      -7.183   4.601  65.717  1.00  0.00    -0.076 C  
HETATM    9  C   UNL     1      -8.591   6.460  66.298  1.00  0.00    -0.140 C  
HETATM   10  C   UNL     1      -9.332   4.169  67.003  1.00  0.00    -0.175 C  
HETATM   11  C   UNL     1      -9.796   5.561  66.563  1.00  0.00    -0.194 C  
HETATM   12  C   UNL     1      -8.292   3.596  66.035  1.00  0.00    -0.106 C  
BRANCH  10  13
HETATM   13  O   UNL     1      -8.722   4.257  68.307  1.00  0.00    -0.093 OA 
BRANCH  13  14
HETATM   14  C   UNL     1      -9.435   3.679  69.311  1.00  0.00    -0.174 C  
HETATM   15  H   UNL     1      -9.736   5.616  69.983  1.00  0.00     0.000 HD 
HETATM   16  O   UNL     1      -9.737   2.497  69.356  1.00  0.00    -0.036 OA 
HETATM   17  N   UNL     1      -9.732   4.630  70.245  1.00  0.00    -0.206 N  
BRANCH  17  18
HETATM   18  C   UNL     1     -10.035   4.253  71.569  1.00  0.00    -0.173 A  
HETATM   19  C   UNL     1     -10.674   5.141  72.463  1.00  0.00    -0.286 A  
HETATM   20  C   UNL     1      -9.968   2.481  73.225  1.00  0.00    -0.174 A  
HETATM   21  C   UNL     1     -10.946   4.626  73.751  1.00  0.00    -0.368 A  
HETATM   22  C   UNL     1     -10.613   3.317  74.123  1.00  0.00    -0.265 A  
HETATM   23  C   UNL     1      -9.670   2.951  71.952  1.00  0.00    -0.227 A  
BRANCH  19  24
HETATM   24  C   UNL     1     -11.086   6.539  72.131  1.00  0.00    -0.296 A  
HETATM   25  C   UNL     1     -10.172   7.608  72.072  1.00  0.00    -0.242 A  
HETATM   26  C   UNL     1     -10.579   8.916  71.778  1.00  0.00    -0.432 A  
HETATM   27  C   UNL     1     -11.922   9.200  71.567  1.00  0.00    -0.422 A  
HETATM   28  C   UNL     1     -12.855   8.172  71.629  1.00  0.00    -0.347 A  
HETATM   29  C   UNL     1     -12.439   6.862  71.890  1.00  0.00    -0.350 A  
ENDBRANCH  19  24
ENDBRANCH  17  18
ENDBRANCH  13  14
ENDBRANCH  10  13
ENDBRANCH   6   7
ENDBRANCH   5   6
ENDBRANCH   2   5
BRANCH   4  30
HETATM   30  C   UNL     1      -7.968   9.748  63.728  1.00  0.00    -0.145 A  
HETATM   31  C   UNL     1      -8.827   9.500  64.810  1.00  0.00    -0.244 A  
HETATM   32  C   UNL     1      -8.408  10.603  62.714  1.00  0.00    -0.188 A  
HETATM   33  C   UNL     1      -9.593  11.325  62.854  1.00  0.00    -0.377 A  
HETATM   34  C   UNL     1     -10.050  10.173  64.920  1.00  0.00    -0.277 A  
HETATM   35  C   UNL     1     -10.425  11.121  63.961  1.00  0.00    -0.447 A  
BRANCH  35  36
HETATM   36  C   UNL     1     -11.722  11.895  64.082  1.00  0.00    -0.340 C  
BRANCH  36  37
HETATM   37  N   UNL     1     -11.876  12.540  65.395  1.00  0.00    -0.409 NA 
HETATM   38  C   UNL     1     -12.713  13.743  65.333  1.00  0.00    -0.472 C  
HETATM   39  C   UNL     1     -10.595  12.821  66.061  1.00  0.00    -0.268 C  
HETATM   40  C   UNL     1      -9.824  13.991  65.445  1.00  0.00    -0.216 C  
HETATM   41  C   UNL     1     -12.019  14.944  64.684  1.00  0.00    -0.407 C  
HETATM   42  C   UNL     1     -10.682  15.259  65.366  1.00  0.00    -0.407 C  
BRANCH  42  43
HETATM   43  C   UNL     1     -10.878  15.884  66.747  1.00  0.00    -0.228 C  
HETATM   44  N   UNL     1     -10.521  17.195  66.855  1.00  0.00    -0.305 N  
HETATM   45  H2  UNL     1     -10.148  17.723  66.067  1.00  0.00     0.000 HD 
HETATM   46  O   UNL     1     -11.291  15.284  67.734  1.00  0.00    -0.326 OA 
HETATM   47  H1  UNL     1     -10.652  17.613  67.777  1.00  0.00     0.000 HD 
ENDBRANCH  42  43
ENDBRANCH  36  37
ENDBRANCH  35  36
ENDBRANCH   4  30
TORSDOF 11
ENDMDL
MODEL       91
REMARK 921   NORMALIZED FREE ENERGY PREDICTED BY IDOCK:   -5.42 KCAL/MOL
REMARK 922        TOTAL FREE ENERGY PREDICTED BY IDOCK:  -10.53 KCAL/MOL
REMARK 923 INTER-LIGAND FREE ENERGY PREDICTED BY IDOCK:   -9.35 KCAL/MOL
REMARK 924 INTRA-LIGAND FREE ENERGY PREDICTED BY IDOCK:   -1.18 KCAL/MOL
REMARK 927      BINDING AFFINITY PREDICTED BY RF-SCORE:    0.00 PKD
ROOT
HETATM    1  C   UNL     1      -5.461  12.820  68.877  1.00  0.00    -0.067 C  
HETATM    2  N   UNL     1      -5.668  11.384  68.768  1.00  0.00    -0.043 N  
HETATM    3  O   UNL     1      -5.841  11.283  71.070  1.00  0.00    -0.347 OA 
HETATM    4  C   UNL     1      -5.899  10.701  69.984  1.00  0.00    -0.076 C  
ENDROOT
BRANCH   2   5
HETATM    5  C   UNL     1      -5.934  10.775  67.464  1.00  0.00    -0.044 C  
BRANCH   5   6
HETATM    6  C   UNL     1      -7.267  11.000  66.732  1.00  0.00    -0.139 C  
BRANCH   6   7
HETATM    7  N   UNL     1      -8.407  10.986  67.680  1.00  0.00    -0.116 NA 
HETATM    8  C   UNL     1      -9.515  10.145  67.206  1.00  0.00    -0.154 C  
HETATM    9  C   UNL     1      -8.919  12.320  68.034  1.00  0.00    -0.190 C  
HETATM   10  C   UNL     1     -10.714  12.189  66.287  1.00  0.00    -0.261 C  
HETATM   11  C   UNL     1      -9.564  13.032  66.849  1.00  0.00    -0.243 C  
HETATM   12  C   UNL     1     -10.268  10.748  66.018  1.00  0.00    -0.310 C  
BRANCH  10  13
HETATM   13  O   UNL     1     -11.791  12.149  67.244  1.00  0.00    -0.530 OA 
BRANCH  13  14
HETATM   14  C   UNL     1     -11.981  13.302  67.940  1.00  0.00    -0.309 C  
HETATM   15  H   UNL     1     -10.770  12.434  69.379  1.00  0.00     0.000 HD 
HETATM   16  O   UNL     1     -12.527  14.299  67.494  1.00  0.00    -0.170 OA 
HETATM   17  N   UNL     1     -11.479  13.145  69.200  1.00  0.00    -0.289 N  
BRANCH  17  18
HETATM   18  C   UNL     1     -11.936  13.964  70.252  1.00  0.00    -0.331 A  
HETATM   19  C   UNL     1     -11.454  15.280  70.430  1.00  0.00    -0.330 A  
HETATM   20  C   UNL     1     -13.434  14.154  72.151  1.00  0.00    -0.545 A  
HETATM   21  C   UNL     1     -12.019  16.001  71.506  1.00  0.00    -0.539 A  
HETATM   22  C   UNL     1     -13.000  15.456  72.344  1.00  0.00    -0.495 A  
HETATM   23  C   UNL     1     -12.897  13.404  71.113  1.00  0.00    -0.372 A  
BRANCH  19  24
HETATM   24  C   UNL     1     -10.431  15.939  69.561  1.00  0.00    -0.281 A  
HETATM   25  C   UNL     1      -9.074  15.570  69.569  1.00  0.00    -0.260 A  
HETATM   26  C   UNL     1      -8.125  16.213  68.762  1.00  0.00    -0.218 A  
HETATM   27  C   UNL     1      -8.504  17.271  67.946  1.00  0.00    -0.218 A  
HETATM   28  C   UNL     1      -9.834  17.671  67.920  1.00  0.00    -0.300 A  
HETATM   29  C   UNL     1     -10.783  17.004  68.704  1.00  0.00    -0.333 A  
ENDBRANCH  19  24
ENDBRANCH  17  18
ENDBRANCH  13  14
ENDBRANCH  10  13
ENDBRANCH   6   7
ENDBRANCH   5   6
ENDBRANCH   2   5
BRANCH   4  30
HETATM   30  C   UNL     1      -6.322   9.261  70.001  1.00  0.00    -0.044 A  
HETATM   31  C   UNL     1      -7.693   8.982  70.102  1.00  0.00    -0.089 A  
HETATM   32  C   UNL     1      -5.431   8.187  69.920  1.00  0.00    -0.023 A  
HETATM   33  C   UNL     1      -5.899   6.881  69.770  1.00  0.00    -0.023 A  
HETATM   34  C   UNL     1      -8.163   7.665  70.021  1.00  0.00    -0.125 A  
HETATM   35  C   UNL     1      -7.270   6.607  69.815  1.00  0.00    -0.077 A  
BRANCH  35  36
HETATM   36  C   UNL     1      -7.758   5.179  69.678  1.00  0.00    -0.068 C  
BRANCH  36  37
HETATM   37  N   UNL     1      -7.362   4.565  68.402  1.00  0.00    -0.064 NA 
HETATM   38  C   UNL     1      -7.660   5.423  67.250  1.00  0.00    -0.092 C  
HETATM   39  C   UNL     1      -7.909   3.213  68.209  1.00  0.00    -0.058 C  
HETATM   40  C   UNL     1      -9.406   3.196  67.889  1.00  0.00    -0.252 C  
HETATM   41  C   UNL     1      -9.149   5.490  66.900  1.00  0.00    -0.115 C  
HETATM   42  C   UNL     1      -9.741   4.091  66.690  1.00  0.00    -0.215 C  
BRANCH  42  43
HETATM   43  C   UNL     1      -9.272   3.463  65.378  1.00  0.00    -0.152 C  
HETATM   44  N   UNL     1      -9.486   2.122  65.259  1.00  0.00    -0.331 N  
HETATM   45  H2  UNL     1      -9.929   1.575  65.996  1.00  0.00     0.000 HD 
HETATM   46  O   UNL     1      -8.705   4.070  64.476  1.00  0.00    -0.116 OA 
HETATM   47  H1  UNL     1      -9.173   1.703  64.382  1.00  0.00     0.000 HD 
ENDBRANCH  42  43
ENDBRANCH  36  37
ENDBRANCH  35  36
ENDBRANCH   4  30
TORSDOF 11
ENDMDL
MODEL       92
REMARK 921   NORMALIZED FREE ENERGY PREDICTED BY IDOCK:   -5.39 KCAL/MOL
REMARK 922        TOTAL FREE ENERGY PREDICTED BY IDOCK:  -10.48 KCAL/MOL
REMARK 923 INTER-LIGAND FREE ENERGY PREDICTED BY IDOCK:   -8.78 KCAL/MOL
REMARK 924 INTRA-LIGAND FREE ENERGY PREDICTED BY IDOCK:   -1.70 KCAL/MOL
REMARK 927      BINDING AFFINITY PREDICTED BY RF-SCORE:    0.00 PKD
ROOT
HETATM    1  C   UNL     1     -13.652   9.057  72.921  1.00  0.00    -0.031 C  
HETATM    2  N   UNL     1     -12.758   8.994  71.774  1.00  0.00    -0.342 N  
HETATM    3  O   UNL     1     -11.350   7.640  73.006  1.00  0.00    -0.372 OA 
HETATM    4  C   UNL     1     -11.610   8.185  71.932  1.00  0.00    -0.306 C  
ENDROOT
BRANCH   2   5
HETATM    5  C   UNL     1     -13.203   9.479  70.467  1.00  0.00     0.295 C  
BRANCH   5   6
HETATM    6  C   UNL     1     -13.282  10.983  70.155  1.00  0.00     0.416 C  
BRANCH   6   7
HETATM    7  N   UNL     1     -12.009  11.666  70.489  1.00  0.00    -0.359 NA 
HETATM    8  C   UNL     1     -12.227  13.021  71.018  1.00  0.00    -0.139 C  
HETATM    9  C   UNL     1     -11.040  11.721  69.382  1.00  0.00    -0.181 C  
HETATM   10  C   UNL     1     -11.795  14.020  68.722  1.00  0.00    -0.361 C  
HETATM   11  C   UNL     1     -11.520  12.597  68.228  1.00  0.00    -0.356 C  
HETATM   12  C   UNL     1     -12.701  14.017  69.958  1.00  0.00    -0.136 C  
BRANCH  10  13
HETATM   13  O   UNL     1     -10.550  14.650  69.087  1.00  0.00    -0.239 OA 
BRANCH  13  14
HETATM   14  C   UNL     1     -10.579  16.010  69.099  1.00  0.00    -0.260 C  
HETATM   15  H   UNL     1     -10.341  15.863  67.046  1.00  0.00     0.000 HD 
HETATM   16  O   UNL     1     -10.857  16.689  70.074  1.00  0.00    -0.329 OA 
HETATM   17  N   UNL     1     -10.235  16.469  67.859  1.00  0.00    -0.264 N  
BRANCH  17  18
HETATM   18  C   UNL     1      -9.734  17.777  67.701  1.00  0.00    -0.282 A  
HETATM   19  C   UNL     1      -8.362  18.069  67.864  1.00  0.00    -0.249 A  
HETATM   20  C   UNL     1     -10.258  20.082  67.156  1.00  0.00    -0.580 A  
HETATM   21  C   UNL     1      -7.990  19.415  67.646  1.00  0.00    -0.318 A  
HETATM   22  C   UNL     1      -8.916  20.402  67.286  1.00  0.00    -0.460 A  
HETATM   23  C   UNL     1     -10.670  18.774  67.373  1.00  0.00    -0.487 A  
BRANCH  19  24
HETATM   24  C   UNL     1      -7.311  17.065  68.217  1.00  0.00    -0.203 A  
HETATM   25  C   UNL     1      -6.450  17.223  69.319  1.00  0.00    -0.243 A  
HETATM   26  C   UNL     1      -5.457  16.281  69.624  1.00  0.00    -0.140 A  
HETATM   27  C   UNL     1      -5.275  15.169  68.812  1.00  0.00    -0.095 A  
HETATM   28  C   UNL     1      -6.099  14.987  67.709  1.00  0.00    -0.154 A  
HETATM   29  C   UNL     1      -7.110  15.913  67.428  1.00  0.00    -0.230 A  
ENDBRANCH  19  24
ENDBRANCH  17  18
ENDBRANCH  13  14
ENDBRANCH  10  13
ENDBRANCH   6   7
ENDBRANCH   5   6
ENDBRANCH   2   5
BRANCH   4  30
HETATM   30  C   UNL     1     -10.712   7.874  70.770  1.00  0.00    -0.230 A  
HETATM   31  C   UNL     1      -9.555   8.652  70.609  1.00  0.00    -0.222 A  
HETATM   32  C   UNL     1     -10.960   6.857  69.844  1.00  0.00    -0.318 A  
HETATM   33  C   UNL     1     -10.003   6.510  68.890  1.00  0.00    -0.165 A  
HETATM   34  C   UNL     1      -8.624   8.350  69.608  1.00  0.00    -0.132 A  
HETATM   35  C   UNL     1      -8.823   7.251  68.764  1.00  0.00    -0.127 A  
BRANCH  35  36
HETATM   36  C   UNL     1      -7.808   6.877  67.704  1.00  0.00    -0.112 C  
BRANCH  36  37
HETATM   37  N   UNL     1      -8.264   7.202  66.343  1.00  0.00    -0.115 NA 
HETATM   38  C   UNL     1      -7.349   6.704  65.311  1.00  0.00    -0.080 C  
HETATM   39  C   UNL     1      -8.552   8.631  66.150  1.00  0.00    -0.142 C  
HETATM   40  C   UNL     1      -7.298   9.505  66.065  1.00  0.00    -0.097 C  
HETATM   41  C   UNL     1      -6.049   7.505  65.202  1.00  0.00    -0.038 C  
HETATM   42  C   UNL     1      -6.324   8.999  64.995  1.00  0.00    -0.065 C  
BRANCH  42  43
HETATM   43  C   UNL     1      -6.841   9.296  63.587  1.00  0.00    -0.092 C  
HETATM   44  N   UNL     1      -6.771  10.600  63.197  1.00  0.00    -0.351 N  
HETATM   45  H2  UNL     1      -6.398  11.329  63.804  1.00  0.00     0.000 HD 
HETATM   46  O   UNL     1      -7.330   8.462  62.832  1.00  0.00    -0.094 OA 
HETATM   47  H1  UNL     1      -7.116  10.798  62.257  1.00  0.00     0.000 HD 
ENDBRANCH  42  43
ENDBRANCH  36  37
ENDBRANCH  35  36
ENDBRANCH   4  30
TORSDOF 11
ENDMDL
MODEL       93
REMARK 921   NORMALIZED FREE ENERGY PREDICTED BY IDOCK:   -5.37 KCAL/MOL
REMARK 922        TOTAL FREE ENERGY PREDICTED BY IDOCK:  -10.46 KCAL/MOL
REMARK 923 INTER-LIGAND FREE ENERGY PREDICTED BY IDOCK:   -7.85 KCAL/MOL
REMARK 924 INTRA-LIGAND FREE ENERGY PREDICTED BY IDOCK:   -2.60 KCAL/MOL
REMARK 927      BINDING AFFINITY PREDICTED BY RF-SCORE:    0.00 PKD
ROOT
HETATM    1  C   UNL     1      -8.222   8.164  74.466  1.00  0.00    -0.151 C  
HETATM    2  N   UNL     1      -8.127   7.282  73.312  1.00  0.00    -0.106 N  
HETATM    3  O   UNL     1     -10.043   6.212  74.034  1.00  0.00    -0.216 OA 
HETATM    4  C   UNL     1      -9.165   6.332  73.177  1.00  0.00    -0.128 C  
ENDROOT
BRANCH   2   5
HETATM    5  C   UNL     1      -7.199   7.591  72.223  1.00  0.00    -0.069 C  
BRANCH   5   6
HETATM    6  C   UNL     1      -7.345   8.873  71.387  1.00  0.00    -0.081 C  
BRANCH   6   7
HETATM    7  N   UNL     1      -7.059   8.614  69.955  1.00  0.00    -0.046 NA 
HETATM    8  C   UNL     1      -6.662   9.834  69.238  1.00  0.00    -0.053 C  
HETATM    9  C   UNL     1      -8.154   7.950  69.228  1.00  0.00    -0.126 C  
HETATM   10  C   UNL     1      -9.035  10.140  68.383  1.00  0.00    -0.123 C  
HETATM   11  C   UNL     1      -9.391   8.834  69.099  1.00  0.00    -0.149 C  
HETATM   12  C   UNL     1      -7.817  10.814  69.023  1.00  0.00    -0.138 C  
BRANCH  10  13
HETATM   13  O   UNL     1      -8.714   9.860  67.006  1.00  0.00    -0.130 OA 
BRANCH  13  14
HETATM   14  C   UNL     1      -8.990  10.870  66.137  1.00  0.00    -0.183 C  
HETATM   15  H   UNL     1     -10.582  11.290  67.394  1.00  0.00     0.000 HD 
HETATM   16  O   UNL     1      -8.259  11.216  65.222  1.00  0.00     0.022 OA 
HETATM   17  N   UNL     1     -10.205  11.405  66.454  1.00  0.00    -0.223 N  
BRANCH  17  18
HETATM   18  C   UNL     1     -10.941  12.117  65.485  1.00  0.00    -0.301 A  
HETATM   19  C   UNL     1     -11.093  13.520  65.554  1.00  0.00    -0.303 A  
HETATM   20  C   UNL     1     -12.218  11.984  63.426  1.00  0.00    -0.627 A  
HETATM   21  C   UNL     1     -11.828  14.111  64.502  1.00  0.00    -0.451 A  
HETATM   22  C   UNL     1     -12.370  13.361  63.449  1.00  0.00    -0.343 A  
HETATM   23  C   UNL     1     -11.513  11.360  64.447  1.00  0.00    -0.148 A  
BRANCH  19  24
HETATM   24  C   UNL     1     -10.521  14.389  66.627  1.00  0.00    -0.274 A  
HETATM   25  C   UNL     1     -11.117  14.525  67.894  1.00  0.00    -0.290 A  
HETATM   26  C   UNL     1     -10.577  15.360  68.882  1.00  0.00    -0.244 A  
HETATM   27  C   UNL     1      -9.440  16.113  68.617  1.00  0.00    -0.227 A  
HETATM   28  C   UNL     1      -8.831  16.013  67.372  1.00  0.00    -0.197 A  
HETATM   29  C   UNL     1      -9.355  15.152  66.401  1.00  0.00    -0.332 A  
ENDBRANCH  19  24
ENDBRANCH  17  18
ENDBRANCH  13  14
ENDBRANCH  10  13
ENDBRANCH   6   7
ENDBRANCH   5   6
ENDBRANCH   2   5
BRANCH   4  30
HETATM   30  C   UNL     1      -9.300   5.498  71.936  1.00  0.00    -0.163 A  
HETATM   31  C   UNL     1     -10.316   5.832  71.029  1.00  0.00    -0.291 A  
HETATM   32  C   UNL     1      -8.474   4.412  71.635  1.00  0.00    -0.112 A  
HETATM   33  C   UNL     1      -8.543   3.786  70.390  1.00  0.00    -0.110 A  
HETATM   34  C   UNL     1     -10.433   5.160  69.806  1.00  0.00    -0.274 A  
HETATM   35  C   UNL     1      -9.521   4.156  69.461  1.00  0.00    -0.254 A  
BRANCH  35  36
HETATM   36  C   UNL     1      -9.598   3.446  68.125  1.00  0.00    -0.094 C  
BRANCH  36  37
HETATM   37  N   UNL     1      -8.391   3.643  67.307  1.00  0.00    -0.094 NA 
HETATM   38  C   UNL     1      -8.154   5.055  66.989  1.00  0.00    -0.107 C  
HETATM   39  C   UNL     1      -8.368   2.815  66.092  1.00  0.00    -0.091 C  
HETATM   40  C   UNL     1      -9.328   3.297  65.001  1.00  0.00    -0.150 C  
HETATM   41  C   UNL     1      -9.111   5.618  65.936  1.00  0.00    -0.158 C  
HETATM   42  C   UNL     1      -9.101   4.774  64.656  1.00  0.00    -0.115 C  
BRANCH  42  43
HETATM   43  C   UNL     1      -7.813   4.966  63.854  1.00  0.00    -0.085 C  
HETATM   44  N   UNL     1      -7.430   6.258  63.657  1.00  0.00    -0.073 N  
HETATM   45  H2  UNL     1      -7.967   7.046  64.020  1.00  0.00     0.000 HD 
HETATM   46  O   UNL     1      -7.150   4.055  63.369  1.00  0.00    -0.043 OA 
HETATM   47  H1  UNL     1      -6.570   6.387  63.122  1.00  0.00     0.000 HD 
ENDBRANCH  42  43
ENDBRANCH  36  37
ENDBRANCH  35  36
ENDBRANCH   4  30
TORSDOF 11
ENDMDL
MODEL       94
REMARK 921   NORMALIZED FREE ENERGY PREDICTED BY IDOCK:   -5.36 KCAL/MOL
REMARK 922        TOTAL FREE ENERGY PREDICTED BY IDOCK:  -10.45 KCAL/MOL
REMARK 923 INTER-LIGAND FREE ENERGY PREDICTED BY IDOCK:   -9.93 KCAL/MOL
REMARK 924 INTRA-LIGAND FREE ENERGY PREDICTED BY IDOCK:   -0.51 KCAL/MOL
REMARK 927      BINDING AFFINITY PREDICTED BY RF-SCORE:    0.00 PKD
ROOT
HETATM    1  C   UNL     1      -7.831   8.026  65.300  1.00  0.00    -0.113 C  
HETATM    2  N   UNL     1      -7.932   9.451  65.577  1.00  0.00    -0.108 N  
HETATM    3  O   UNL     1     -10.232   9.247  65.532  1.00  0.00    -0.026 OA 
HETATM    4  C   UNL     1      -9.243   9.959  65.718  1.00  0.00    -0.179 C  
ENDROOT
BRANCH   2   5
HETATM    5  C   UNL     1      -6.749  10.207  65.992  1.00  0.00    -0.106 C  
BRANCH   5   6
HETATM    6  C   UNL     1      -6.189  10.097  67.419  1.00  0.00    -0.058 C  
BRANCH   6   7
HETATM    7  N   UNL     1      -6.619   8.834  68.067  1.00  0.00    -0.060 NA 
HETATM    8  C   UNL     1      -7.842   9.006  68.864  1.00  0.00    -0.095 C  
HETATM    9  C   UNL     1      -5.582   8.191  68.891  1.00  0.00    -0.031 C  
HETATM   10  C   UNL     1      -6.463   9.255  70.984  1.00  0.00    -0.086 C  
HETATM   11  C   UNL     1      -5.219   9.015  70.123  1.00  0.00    -0.028 C  
HETATM   12  C   UNL     1      -7.621   9.809  70.148  1.00  0.00    -0.180 C  
BRANCH  10  13
HETATM   13  O   UNL     1      -6.893   8.008  71.565  1.00  0.00    -0.049 OA 
BRANCH  13  14
HETATM   14  C   UNL     1      -8.139   8.029  72.109  1.00  0.00    -0.134 C  
HETATM   15  H   UNL     1      -8.492   6.351  70.947  1.00  0.00     0.000 HD 
HETATM   16  O   UNL     1      -8.483   8.758  73.027  1.00  0.00    -0.402 OA 
HETATM   17  N   UNL     1      -8.923   7.124  71.453  1.00  0.00    -0.136 N  
BRANCH  17  18
HETATM   18  C   UNL     1     -10.327   7.255  71.473  1.00  0.00    -0.201 A  
HETATM   19  C   UNL     1     -11.137   6.690  70.463  1.00  0.00    -0.359 A  
HETATM   20  C   UNL     1     -12.253   8.114  72.672  1.00  0.00    -0.270 A  
HETATM   21  C   UNL     1     -12.530   6.870  70.621  1.00  0.00    -0.179 A  
HETATM   22  C   UNL     1     -13.081   7.556  71.711  1.00  0.00    -0.362 A  
HETATM   23  C   UNL     1     -10.877   7.973  72.549  1.00  0.00    -0.415 A  
BRANCH  19  24
HETATM   24  C   UNL     1     -10.626   5.920  69.288  1.00  0.00    -0.379 A  
HETATM   25  C   UNL     1     -10.903   6.288  67.959  1.00  0.00    -0.409 A  
HETATM   26  C   UNL     1     -10.432   5.543  66.870  1.00  0.00    -0.348 A  
HETATM   27  C   UNL     1      -9.695   4.384  67.081  1.00  0.00    -0.230 A  
HETATM   28  C   UNL     1      -9.411   3.984  68.381  1.00  0.00    -0.211 A  
HETATM   29  C   UNL     1      -9.857   4.750  69.464  1.00  0.00    -0.292 A  
ENDBRANCH  19  24
ENDBRANCH  17  18
ENDBRANCH  13  14
ENDBRANCH  10  13
ENDBRANCH   6   7
ENDBRANCH   5   6
ENDBRANCH   2   5
BRANCH   4  30
HETATM   30  C   UNL     1      -9.488  11.360  66.197  1.00  0.00    -0.237 A  
HETATM   31  C   UNL     1      -9.663  12.363  65.230  1.00  0.00    -0.104 A  
HETATM   32  C   UNL     1      -9.552  11.722  67.545  1.00  0.00    -0.179 A  
HETATM   33  C   UNL     1      -9.950  13.005  67.923  1.00  0.00    -0.230 A  
HETATM   34  C   UNL     1      -9.996  13.670  65.607  1.00  0.00    -0.261 A  
HETATM   35  C   UNL     1     -10.179  13.991  66.957  1.00  0.00    -0.261 A  
BRANCH  35  36
HETATM   36  C   UNL     1     -10.583  15.387  67.387  1.00  0.00    -0.289 C  
BRANCH  36  37
HETATM   37  N   UNL     1      -9.478  16.353  67.288  1.00  0.00    -0.225 NA 
HETATM   38  C   UNL     1      -9.210  17.030  68.560  1.00  0.00    -0.266 C  
HETATM   39  C   UNL     1      -9.647  17.324  66.196  1.00  0.00    -0.202 C  
HETATM   40  C   UNL     1     -10.709  18.390  66.481  1.00  0.00    -0.232 C  
HETATM   41  C   UNL     1     -10.260  18.081  68.932  1.00  0.00    -0.320 C  
HETATM   42  C   UNL     1     -10.451  19.108  67.810  1.00  0.00    -0.512 C  
BRANCH  42  43
HETATM   43  C   UNL     1      -9.263  20.066  67.703  1.00  0.00    -0.349 C  
HETATM   44  N   UNL     1      -9.525  21.264  67.110  1.00  0.00    -0.518 N  
HETATM   45  H2  UNL     1     -10.452  21.506  66.760  1.00  0.00     0.000 HD 
HETATM   46  O   UNL     1      -8.124  19.809  68.077  1.00  0.00    -0.303 OA 
HETATM   47  H1  UNL     1      -8.733  21.903  67.039  1.00  0.00     0.000 HD 
ENDBRANCH  42  43
ENDBRANCH  36  37
ENDBRANCH  35  36
ENDBRANCH   4  30
TORSDOF 11
ENDMDL
MODEL       95
REMARK 921   NORMALIZED FREE ENERGY PREDICTED BY IDOCK:   -5.34 KCAL/MOL
REMARK 922        TOTAL FREE ENERGY PREDICTED BY IDOCK:  -10.40 KCAL/MOL
REMARK 923 INTER-LIGAND FREE ENERGY PREDICTED BY IDOCK:   -7.27 KCAL/MOL
REMARK 924 INTRA-LIGAND FREE ENERGY PREDICTED BY IDOCK:   -3.14 KCAL/MOL
REMARK 927      BINDING AFFINITY PREDICTED BY RF-SCORE:    0.00 PKD
ROOT
HETATM    1  C   UNL     1      -8.469   7.917  74.144  1.00  0.00    -0.256 C  
HETATM    2  N   UNL     1      -8.782   7.300  72.864  1.00  0.00    -0.120 N  
HETATM    3  O   UNL     1      -6.735   6.233  72.933  1.00  0.00    -0.064 OA 
HETATM    4  C   UNL     1      -7.811   6.406  72.358  1.00  0.00    -0.102 C  
ENDROOT
BRANCH   2   5
HETATM    5  C   UNL     1     -10.141   7.370  72.325  1.00  0.00    -0.196 C  
BRANCH   5   6
HETATM    6  C   UNL     1     -10.824   8.719  72.046  1.00  0.00    -0.358 C  
BRANCH   6   7
HETATM    7  N   UNL     1     -11.623   8.667  70.798  1.00  0.00    -0.270 NA 
HETATM    8  C   UNL     1     -10.884   8.044  69.690  1.00  0.00    -0.169 C  
HETATM    9  C   UNL     1     -12.155   9.969  70.363  1.00  0.00    -0.202 C  
HETATM   10  C   UNL     1     -10.226  10.332  68.801  1.00  0.00    -0.192 C  
HETATM   11  C   UNL     1     -11.055  10.938  69.938  1.00  0.00    -0.311 C  
HETATM   12  C   UNL     1      -9.750   8.919  69.150  1.00  0.00    -0.168 C  
BRANCH  10  13
HETATM   13  O   UNL     1     -11.035  10.246  67.611  1.00  0.00    -0.287 OA 
BRANCH  13  14
HETATM   14  C   UNL     1     -10.483  10.808  66.502  1.00  0.00    -0.240 C  
HETATM   15  H   UNL     1     -10.589   8.904  65.692  1.00  0.00     0.000 HD 
HETATM   16  O   UNL     1     -10.322  12.007  66.339  1.00  0.00    -0.210 OA 
HETATM   17  N   UNL     1     -10.135   9.815  65.631  1.00  0.00    -0.274 N  
BRANCH  17  18
HETATM   18  C   UNL     1      -9.151  10.047  64.648  1.00  0.00    -0.237 A  
HETATM   19  C   UNL     1      -7.781   9.822  64.906  1.00  0.00    -0.127 A  
HETATM   20  C   UNL     1      -8.709  10.722  62.361  1.00  0.00    -0.331 A  
HETATM   21  C   UNL     1      -6.904  10.064  63.824  1.00  0.00    -0.126 A  
HETATM   22  C   UNL     1      -7.358  10.493  62.570  1.00  0.00    -0.142 A  
HETATM   23  C   UNL     1      -9.605  10.509  63.401  1.00  0.00    -0.376 A  
BRANCH  19  24
HETATM   24  C   UNL     1      -7.224   9.337  66.207  1.00  0.00    -0.088 A  
HETATM   25  C   UNL     1      -6.701  10.207  67.181  1.00  0.00    -0.074 A  
HETATM   26  C   UNL     1      -6.165   9.734  68.386  1.00  0.00    -0.050 A  
HETATM   27  C   UNL     1      -6.106   8.369  68.637  1.00  0.00    -0.045 A  
HETATM   28  C   UNL     1      -6.603   7.479  67.693  1.00  0.00    -0.062 A  
HETATM   29  C   UNL     1      -7.167   7.959  66.505  1.00  0.00    -0.083 A  
ENDBRANCH  19  24
ENDBRANCH  17  18
ENDBRANCH  13  14
ENDBRANCH  10  13
ENDBRANCH   6   7
ENDBRANCH   5   6
ENDBRANCH   2   5
BRANCH   4  30
HETATM   30  C   UNL     1      -8.090   5.554  71.154  1.00  0.00    -0.112 A  
HETATM   31  C   UNL     1      -6.993   5.088  70.412  1.00  0.00    -0.049 A  
HETATM   32  C   UNL     1      -9.374   5.199  70.731  1.00  0.00    -0.210 A  
HETATM   33  C   UNL     1      -9.558   4.269  69.708  1.00  0.00    -0.279 A  
HETATM   34  C   UNL     1      -7.178   4.207  69.339  1.00  0.00    -0.050 A  
HETATM   35  C   UNL     1      -8.461   3.760  69.004  1.00  0.00    -0.099 A  
BRANCH  35  36
HETATM   36  C   UNL     1      -8.682   2.772  67.876  1.00  0.00    -0.106 C  
BRANCH  36  37
HETATM   37  N   UNL     1      -8.044   3.195  66.620  1.00  0.00    -0.083 NA 
HETATM   38  C   UNL     1      -8.568   4.473  66.127  1.00  0.00    -0.113 C  
HETATM   39  C   UNL     1      -8.085   2.166  65.569  1.00  0.00    -0.084 C  
HETATM   40  C   UNL     1      -9.471   1.983  64.943  1.00  0.00    -0.028 C  
HETATM   41  C   UNL     1      -9.973   4.373  65.527  1.00  0.00    -0.242 C  
HETATM   42  C   UNL     1     -10.040   3.309  64.425  1.00  0.00    -0.119 C  
BRANCH  42  43
HETATM   43  C   UNL     1      -9.327   3.760  63.150  1.00  0.00    -0.110 C  
HETATM   44  N   UNL     1      -9.408   5.091  62.870  1.00  0.00    -0.349 N  
HETATM   45  H2  UNL     1      -9.910   5.743  63.472  1.00  0.00     0.000 HD 
HETATM   46  O   UNL     1      -8.739   3.011  62.376  1.00  0.00    -0.074 OA 
HETATM   47  H1  UNL     1      -8.932   5.393  62.020  1.00  0.00     0.000 HD 
ENDBRANCH  42  43
ENDBRANCH  36  37
ENDBRANCH  35  36
ENDBRANCH   4  30
TORSDOF 11
ENDMDL
MODEL       96
REMARK 921   NORMALIZED FREE ENERGY PREDICTED BY IDOCK:   -5.32 KCAL/MOL
REMARK 922        TOTAL FREE ENERGY PREDICTED BY IDOCK:  -10.38 KCAL/MOL
REMARK 923 INTER-LIGAND FREE ENERGY PREDICTED BY IDOCK:   -7.88 KCAL/MOL
REMARK 924 INTRA-LIGAND FREE ENERGY PREDICTED BY IDOCK:   -2.50 KCAL/MOL
REMARK 927      BINDING AFFINITY PREDICTED BY RF-SCORE:    0.00 PKD
ROOT
HETATM    1  C   UNL     1     -13.708   8.633  72.948  1.00  0.00     0.023 C  
HETATM    2  N   UNL     1     -12.935   8.654  71.715  1.00  0.00    -0.343 N  
HETATM    3  O   UNL     1     -11.405   7.237  72.707  1.00  0.00    -0.300 OA 
HETATM    4  C   UNL     1     -11.774   7.848  71.703  1.00  0.00    -0.281 C  
ENDROOT
BRANCH   2   5
HETATM    5  C   UNL     1     -13.512   9.219  70.494  1.00  0.00     0.566 C  
BRANCH   5   6
HETATM    6  C   UNL     1     -13.383  10.715  70.166  1.00  0.00     0.487 C  
BRANCH   6   7
HETATM    7  N   UNL     1     -12.206  11.312  70.841  1.00  0.00    -0.371 NA 
HETATM    8  C   UNL     1     -12.500  12.639  71.402  1.00  0.00    -0.104 C  
HETATM    9  C   UNL     1     -10.999  11.390  70.002  1.00  0.00     0.152 C  
HETATM   10  C   UNL     1     -11.497  13.761  69.355  1.00  0.00    -0.286 C  
HETATM   11  C   UNL     1     -11.159  12.360  68.835  1.00  0.00    -0.307 C  
HETATM   12  C   UNL     1     -12.673  13.723  70.336  1.00  0.00    -0.245 C  
BRANCH  10  13
HETATM   13  O   UNL     1     -10.357  14.303  70.049  1.00  0.00     0.280 OA 
BRANCH  13  14
HETATM   14  C   UNL     1      -9.858  15.453  69.520  1.00  0.00    -0.260 C  
HETATM   15  H   UNL     1     -11.840  16.005  69.283  1.00  0.00     0.000 HD 
HETATM   16  O   UNL     1      -8.678  15.767  69.533  1.00  0.00    -0.259 OA 
HETATM   17  N   UNL     1     -10.883  16.167  68.971  1.00  0.00    -0.277 N  
BRANCH  17  18
HETATM   18  C   UNL     1     -10.623  17.129  67.973  1.00  0.00    -0.374 A  
HETATM   19  C   UNL     1     -10.652  16.798  66.600  1.00  0.00    -0.198 A  
HETATM   20  C   UNL     1     -10.111  19.453  67.500  1.00  0.00    -0.507 A  
HETATM   21  C   UNL     1     -10.404  17.863  65.706  1.00  0.00    -0.182 A  
HETATM   22  C   UNL     1     -10.151  19.169  66.144  1.00  0.00    -0.492 A  
HETATM   23  C   UNL     1     -10.337  18.433  68.415  1.00  0.00    -0.357 A  
BRANCH  19  24
HETATM   24  C   UNL     1     -10.943  15.436  66.056  1.00  0.00    -0.286 A  
HETATM   25  C   UNL     1     -12.251  14.978  65.812  1.00  0.00     0.206 A  
HETATM   26  C   UNL     1     -12.507  13.691  65.320  1.00  0.00    -0.517 A  
HETATM   27  C   UNL     1     -11.458  12.809  65.090  1.00  0.00    -0.356 A  
HETATM   28  C   UNL     1     -10.154  13.222  65.331  1.00  0.00    -0.267 A  
HETATM   29  C   UNL     1      -9.902  14.520  65.791  1.00  0.00    -0.343 A  
ENDBRANCH  19  24
ENDBRANCH  17  18
ENDBRANCH  13  14
ENDBRANCH  10  13
ENDBRANCH   6   7
ENDBRANCH   5   6
ENDBRANCH   2   5
BRANCH   4  30
HETATM   30  C   UNL     1     -10.997   7.622  70.438  1.00  0.00    -0.256 A  
HETATM   31  C   UNL     1     -11.443   6.617  69.566  1.00  0.00    -0.323 A  
HETATM   32  C   UNL     1      -9.861   8.352  70.081  1.00  0.00    -0.183 A  
HETATM   33  C   UNL     1      -9.286   8.208  68.818  1.00  0.00    -0.143 A  
HETATM   34  C   UNL     1     -10.826   6.422  68.324  1.00  0.00    -0.384 A  
HETATM   35  C   UNL     1      -9.766   7.243  67.925  1.00  0.00    -0.161 A  
BRANCH  35  36
HETATM   36  C   UNL     1      -9.111   7.082  66.568  1.00  0.00    -0.156 C  
BRANCH  36  37
HETATM   37  N   UNL     1      -7.916   7.925  66.411  1.00  0.00    -0.100 NA 
HETATM   38  C   UNL     1      -8.247   9.303  66.034  1.00  0.00    -0.111 C  
HETATM   39  C   UNL     1      -6.914   7.354  65.499  1.00  0.00    -0.060 C  
HETATM   40  C   UNL     1      -7.309   7.435  64.022  1.00  0.00    -0.088 C  
HETATM   41  C   UNL     1      -8.697   9.452  64.579  1.00  0.00    -0.233 C  
HETATM   42  C   UNL     1      -7.665   8.867  63.607  1.00  0.00    -0.129 C  
BRANCH  42  43
HETATM   43  C   UNL     1      -6.416   9.743  63.504  1.00  0.00    -0.117 C  
HETATM   44  N   UNL     1      -6.644  11.070  63.296  1.00  0.00    -0.171 N  
HETATM   45  H2  UNL     1      -7.585  11.454  63.214  1.00  0.00     0.000 HD 
HETATM   46  O   UNL     1      -5.264   9.326  63.562  1.00  0.00    -0.064 OA 
HETATM   47  H1  UNL     1      -5.810  11.655  63.227  1.00  0.00     0.000 HD 
ENDBRANCH  42  43
ENDBRANCH  36  37
ENDBRANCH  35  36
ENDBRANCH   4  30
TORSDOF 11
ENDMDL
MODEL       97
REMARK 921   NORMALIZED FREE ENERGY PREDICTED BY IDOCK:   -5.29 KCAL/MOL
REMARK 922        TOTAL FREE ENERGY PREDICTED BY IDOCK:  -10.32 KCAL/MOL
REMARK 923 INTER-LIGAND FREE ENERGY PREDICTED BY IDOCK:   -9.90 KCAL/MOL
REMARK 924 INTRA-LIGAND FREE ENERGY PREDICTED BY IDOCK:   -0.42 KCAL/MOL
REMARK 927      BINDING AFFINITY PREDICTED BY RF-SCORE:    0.00 PKD
ROOT
HETATM    1  C   UNL     1     -13.937  15.654  71.458  1.00  0.00    -0.256 C  
HETATM    2  N   UNL     1     -13.186  14.449  71.141  1.00  0.00    -0.357 N  
HETATM    3  O   UNL     1     -14.338  13.349  72.814  1.00  0.00    -0.633 OA 
HETATM    4  C   UNL     1     -13.520  13.299  71.893  1.00  0.00    -0.438 C  
ENDROOT
BRANCH   2   5
HETATM    5  C   UNL     1     -12.385  14.380  69.917  1.00  0.00    -0.314 C  
BRANCH   5   6
HETATM    6  C   UNL     1     -11.804  15.647  69.269  1.00  0.00    -0.363 C  
BRANCH   6   7
HETATM    7  N   UNL     1     -11.069  15.322  68.023  1.00  0.00    -0.300 NA 
HETATM    8  C   UNL     1     -10.647  13.915  67.977  1.00  0.00    -0.248 C  
HETATM    9  C   UNL     1      -9.911  16.192  67.756  1.00  0.00    -0.237 C  
HETATM   10  C   UNL     1      -8.329  14.551  68.802  1.00  0.00    -0.149 C  
HETATM   11  C   UNL     1      -8.795  16.010  68.780  1.00  0.00    -0.227 C  
HETATM   12  C   UNL     1      -9.513  13.590  68.951  1.00  0.00     0.155 C  
BRANCH  10  13
HETATM   13  O   UNL     1      -7.661  14.242  67.563  1.00  0.00    -0.166 OA 
BRANCH  13  14
HETATM   14  C   UNL     1      -7.270  12.946  67.431  1.00  0.00    -0.126 C  
HETATM   15  H   UNL     1      -8.378  12.967  65.680  1.00  0.00     0.000 HD 
HETATM   16  O   UNL     1      -6.439  12.397  68.137  1.00  0.00    -0.062 OA 
HETATM   17  N   UNL     1      -7.967  12.377  66.403  1.00  0.00     0.287 N  
BRANCH  17  18
HETATM   18  C   UNL     1      -8.120  10.977  66.339  1.00  0.00    -0.166 A  
HETATM   19  C   UNL     1      -9.206  10.382  65.659  1.00  0.00    -0.220 A  
HETATM   20  C   UNL     1      -7.187   8.819  66.936  1.00  0.00    -0.079 A  
HETATM   21  C   UNL     1      -9.223   8.969  65.646  1.00  0.00    -0.288 A  
HETATM   22  C   UNL     1      -8.226   8.200  66.260  1.00  0.00    -0.114 A  
HETATM   23  C   UNL     1      -7.138  10.206  66.985  1.00  0.00    -0.090 A  
BRANCH  19  24
HETATM   24  C   UNL     1     -10.290  11.135  64.956  1.00  0.00    -0.362 A  
HETATM   25  C   UNL     1     -11.362  11.739  65.638  1.00  0.00    -0.293 A  
HETATM   26  C   UNL     1     -12.380  12.424  64.961  1.00  0.00    -0.441 A  
HETATM   27  C   UNL     1     -12.372  12.495  63.574  1.00  0.00    -0.623 A  
HETATM   28  C   UNL     1     -11.336  11.900  62.865  1.00  0.00     0.204 A  
HETATM   29  C   UNL     1     -10.304  11.245  63.549  1.00  0.00    -0.463 A  
ENDBRANCH  19  24
ENDBRANCH  17  18
ENDBRANCH  13  14
ENDBRANCH  10  13
ENDBRANCH   6   7
ENDBRANCH   5   6
ENDBRANCH   2   5
BRANCH   4  30
HETATM   30  C   UNL     1     -12.968  11.949  71.538  1.00  0.00    -0.427 A  
HETATM   31  C   UNL     1     -13.573  10.822  72.115  1.00  0.00    -0.100 A  
HETATM   32  C   UNL     1     -11.892  11.751  70.669  1.00  0.00    -0.185 A  
HETATM   33  C   UNL     1     -11.538  10.468  70.250  1.00  0.00    -0.417 A  
HETATM   34  C   UNL     1     -13.175   9.530  71.748  1.00  0.00    -0.505 A  
HETATM   35  C   UNL     1     -12.179   9.344  70.783  1.00  0.00    -0.228 A  
BRANCH  35  36
HETATM   36  C   UNL     1     -11.762   7.958  70.337  1.00  0.00    -0.008 C  
BRANCH  36  37
HETATM   37  N   UNL     1     -10.358   7.657  70.657  1.00  0.00    -0.204 NA 
HETATM   38  C   UNL     1      -9.667   6.971  69.562  1.00  0.00    -0.160 C  
HETATM   39  C   UNL     1     -10.191   6.931  71.926  1.00  0.00    -0.188 C  
HETATM   40  C   UNL     1     -10.612   5.461  71.852  1.00  0.00    -0.288 C  
HETATM   41  C   UNL     1     -10.075   5.504  69.400  1.00  0.00    -0.306 C  
HETATM   42  C   UNL     1      -9.905   4.724  70.709  1.00  0.00    -0.280 C  
BRANCH  42  43
HETATM   43  C   UNL     1      -8.433   4.470  71.037  1.00  0.00    -0.094 C  
HETATM   44  N   UNL     1      -7.653   4.091  69.986  1.00  0.00    -0.048 N  
HETATM   45  H2  UNL     1      -8.026   3.984  69.043  1.00  0.00     0.000 HD 
HETATM   46  O   UNL     1      -7.944   4.553  72.159  1.00  0.00    -0.095 OA 
HETATM   47  H1  UNL     1      -6.671   3.922  70.205  1.00  0.00     0.000 HD 
ENDBRANCH  42  43
ENDBRANCH  36  37
ENDBRANCH  35  36
ENDBRANCH   4  30
TORSDOF 11
ENDMDL
MODEL       98
REMARK 921   NORMALIZED FREE ENERGY PREDICTED BY IDOCK:   -5.29 KCAL/MOL
REMARK 922        TOTAL FREE ENERGY PREDICTED BY IDOCK:  -10.32 KCAL/MOL
REMARK 923 INTER-LIGAND FREE ENERGY PREDICTED BY IDOCK:   -8.50 KCAL/MOL
REMARK 924 INTRA-LIGAND FREE ENERGY PREDICTED BY IDOCK:   -1.82 KCAL/MOL
REMARK 927      BINDING AFFINITY PREDICTED BY RF-SCORE:    0.00 PKD
ROOT
HETATM    1  C   UNL     1      -9.391   6.909  66.158  1.00  0.00    -0.042 C  
HETATM    2  N   UNL     1      -9.049   8.319  66.268  1.00  0.00    -0.177 N  
HETATM    3  O   UNL     1      -8.013   7.862  68.281  1.00  0.00    -0.118 OA 
HETATM    4  C   UNL     1      -8.290   8.682  67.403  1.00  0.00    -0.116 C  
ENDROOT
BRANCH   2   5
HETATM    5  C   UNL     1      -9.214   9.209  65.117  1.00  0.00    -0.153 C  
BRANCH   5   6
HETATM    6  C   UNL     1     -10.370  10.220  65.046  1.00  0.00    -0.104 C  
BRANCH   6   7
HETATM    7  N   UNL     1      -9.911  11.521  64.502  1.00  0.00    -0.252 NA 
HETATM    8  C   UNL     1      -9.756  12.538  65.551  1.00  0.00    -0.119 C  
HETATM    9  C   UNL     1     -10.751  12.056  63.418  1.00  0.00    -0.417 C  
HETATM   10  C   UNL     1     -12.053  13.484  65.017  1.00  0.00    -0.397 C  
HETATM   11  C   UNL     1     -12.147  12.443  63.897  1.00  0.00    -0.587 C  
HETATM   12  C   UNL     1     -11.088  13.033  66.118  1.00  0.00    -0.311 C  
BRANCH  10  13
HETATM   13  O   UNL     1     -11.559  14.726  64.477  1.00  0.00    -0.395 OA 
BRANCH  13  14
HETATM   14  C   UNL     1     -10.773  15.445  65.323  1.00  0.00    -0.421 C  
HETATM   15  H   UNL     1     -12.300  15.180  66.697  1.00  0.00     0.000 HD 
HETATM   16  O   UNL     1      -9.619  15.768  65.090  1.00  0.00    -0.275 OA 
HETATM   17  N   UNL     1     -11.491  15.746  66.444  1.00  0.00     0.141 N  
BRANCH  17  18
HETATM   18  C   UNL     1     -11.117  16.839  67.254  1.00  0.00     0.076 A  
HETATM   19  C   UNL     1     -11.105  16.745  68.664  1.00  0.00    -0.247 A  
HETATM   20  C   UNL     1     -10.333  19.134  67.304  1.00  0.00    -0.523 A  
HETATM   21  C   UNL     1     -10.681  17.903  69.352  1.00  0.00     0.554 A  
HETATM   22  C   UNL     1     -10.289  19.073  68.688  1.00  0.00    -0.273 A  
HETATM   23  C   UNL     1     -10.756  18.022  66.587  1.00  0.00    -0.156 A  
BRANCH  19  24
HETATM   24  C   UNL     1     -11.480  15.525  69.442  1.00  0.00    -0.345 A  
HETATM   25  C   UNL     1     -10.999  14.242  69.123  1.00  0.00    -0.286 A  
HETATM   26  C   UNL     1     -11.377  13.106  69.852  1.00  0.00    -0.055 A  
HETATM   27  C   UNL     1     -12.278  13.217  70.903  1.00  0.00    -0.346 A  
HETATM   28  C   UNL     1     -12.783  14.467  71.240  1.00  0.00    -0.413 A  
HETATM   29  C   UNL     1     -12.377  15.602  70.530  1.00  0.00    -0.443 A  
ENDBRANCH  19  24
ENDBRANCH  17  18
ENDBRANCH  13  14
ENDBRANCH  10  13
ENDBRANCH   6   7
ENDBRANCH   5   6
ENDBRANCH   2   5
BRANCH   4  30
HETATM   30  C   UNL     1      -7.702  10.057  67.540  1.00  0.00    -0.091 A  
HETATM   31  C   UNL     1      -8.333  10.955  68.416  1.00  0.00    -0.136 A  
HETATM   32  C   UNL     1      -6.568  10.492  66.849  1.00  0.00    -0.081 A  
HETATM   33  C   UNL     1      -5.977  11.720  67.148  1.00  0.00    -0.140 A  
HETATM   34  C   UNL     1      -7.780  12.216  68.667  1.00  0.00    -0.089 A  
HETATM   35  C   UNL     1      -6.574  12.593  68.063  1.00  0.00    -0.095 A  
BRANCH  35  36
HETATM   36  C   UNL     1      -5.933  13.934  68.353  1.00  0.00    -0.101 C  
BRANCH  36  37
HETATM   37  N   UNL     1      -6.188  14.926  67.297  1.00  0.00    -0.264 NA 
HETATM   38  C   UNL     1      -5.142  15.951  67.226  1.00  0.00     0.103 C  
HETATM   39  C   UNL     1      -7.523  15.536  67.379  1.00  0.00    -0.204 C  
HETATM   40  C   UNL     1      -7.669  16.544  68.523  1.00  0.00    -0.204 C  
HETATM   41  C   UNL     1      -5.199  16.969  68.368  1.00  0.00    -0.126 C  
HETATM   42  C   UNL     1      -6.581  17.624  68.471  1.00  0.00    -0.204 C  
BRANCH  42  43
HETATM   43  C   UNL     1      -6.833  18.612  67.332  1.00  0.00    -0.204 C  
HETATM   44  N   UNL     1      -6.778  19.930  67.674  1.00  0.00    -0.232 N  
HETATM   45  H2  UNL     1      -6.583  20.237  68.627  1.00  0.00     0.000 HD 
HETATM   46  O   UNL     1      -7.105  18.294  66.179  1.00  0.00    -0.230 OA 
HETATM   47  H1  UNL     1      -6.946  20.590  66.914  1.00  0.00     0.000 HD 
ENDBRANCH  42  43
ENDBRANCH  36  37
ENDBRANCH  35  36
ENDBRANCH   4  30
TORSDOF 11
ENDMDL
MODEL       99
REMARK 921   NORMALIZED FREE ENERGY PREDICTED BY IDOCK:   -5.28 KCAL/MOL
REMARK 922        TOTAL FREE ENERGY PREDICTED BY IDOCK:  -10.30 KCAL/MOL
REMARK 923 INTER-LIGAND FREE ENERGY PREDICTED BY IDOCK:   -9.10 KCAL/MOL
REMARK 924 INTRA-LIGAND FREE ENERGY PREDICTED BY IDOCK:   -1.20 KCAL/MOL
REMARK 927      BINDING AFFINITY PREDICTED BY RF-SCORE:    0.00 PKD
ROOT
HETATM    1  C   UNL     1     -10.416   6.528  73.773  1.00  0.00    -0.315 C  
HETATM    2  N   UNL     1      -9.960   5.943  72.521  1.00  0.00    -0.176 N  
HETATM    3  O   UNL     1      -8.480   4.641  73.725  1.00  0.00    -0.104 OA 
HETATM    4  C   UNL     1      -8.975   4.936  72.635  1.00  0.00    -0.127 C  
ENDROOT
BRANCH   2   5
HETATM    5  C   UNL     1     -10.712   6.168  71.285  1.00  0.00    -0.256 C  
BRANCH   5   6
HETATM    6  C   UNL     1     -10.026   6.705  70.018  1.00  0.00    -0.172 C  
BRANCH   6   7
HETATM    7  N   UNL     1     -10.867   7.725  69.346  1.00  0.00    -0.168 NA 
HETATM    8  C   UNL     1     -10.360   8.070  68.010  1.00  0.00    -0.206 C  
HETATM    9  C   UNL     1     -11.070   8.956  70.128  1.00  0.00    -0.201 C  
HETATM   10  C   UNL     1      -9.184  10.117  68.951  1.00  0.00    -0.172 C  
HETATM   11  C   UNL     1      -9.780   9.750  70.313  1.00  0.00    -0.279 C  
HETATM   12  C   UNL     1      -9.067   8.888  68.044  1.00  0.00    -0.143 C  
BRANCH  10  13
HETATM   13  O   UNL     1     -10.041  11.072  68.294  1.00  0.00    -0.166 OA 
BRANCH  13  14
HETATM   14  C   UNL     1      -9.617  12.363  68.363  1.00  0.00    -0.180 C  
HETATM   15  H   UNL     1     -11.563  12.794  68.928  1.00  0.00     0.000 HD 
HETATM   16  O   UNL     1      -8.452  12.716  68.268  1.00  0.00    -0.169 OA 
HETATM   17  N   UNL     1     -10.701  13.175  68.539  1.00  0.00    -0.254 N  
BRANCH  17  18
HETATM   18  C   UNL     1     -10.632  14.537  68.183  1.00  0.00    -0.238 A  
HETATM   19  C   UNL     1     -10.834  14.966  66.852  1.00  0.00    -0.319 A  
HETATM   20  C   UNL     1     -10.309  16.810  68.968  1.00  0.00    -0.326 A  
HETATM   21  C   UNL     1     -10.768  16.361  66.640  1.00  0.00    -0.173 A  
HETATM   22  C   UNL     1     -10.523  17.270  67.678  1.00  0.00    -0.363 A  
HETATM   23  C   UNL     1     -10.353  15.445  69.220  1.00  0.00    -0.253 A  
BRANCH  19  24
HETATM   24  C   UNL     1     -11.128  14.061  65.699  1.00  0.00    -0.302 A  
HETATM   25  C   UNL     1     -10.118  13.490  64.904  1.00  0.00    -0.280 A  
HETATM   26  C   UNL     1     -10.412  12.660  63.814  1.00  0.00    -0.411 A  
HETATM   27  C   UNL     1     -11.733  12.405  63.466  1.00  0.00    -0.592 A  
HETATM   28  C   UNL     1     -12.757  12.961  64.221  1.00  0.00    -0.286 A  
HETATM   29  C   UNL     1     -12.457  13.763  65.328  1.00  0.00    -0.512 A  
ENDBRANCH  19  24
ENDBRANCH  17  18
ENDBRANCH  13  14
ENDBRANCH  10  13
ENDBRANCH   6   7
ENDBRANCH   5   6
ENDBRANCH   2   5
BRANCH   4  30
HETATM   30  C   UNL     1      -8.561   4.113  71.450  1.00  0.00    -0.124 A  
HETATM   31  C   UNL     1      -9.493   3.203  70.926  1.00  0.00    -0.230 A  
HETATM   32  C   UNL     1      -7.307   4.202  70.840  1.00  0.00    -0.041 A  
HETATM   33  C   UNL     1      -7.046   3.535  69.643  1.00  0.00    -0.042 A  
HETATM   34  C   UNL     1      -9.208   2.480  69.761  1.00  0.00    -0.195 A  
HETATM   35  C   UNL     1      -7.996   2.670  69.089  1.00  0.00    -0.059 A  
BRANCH  35  36
HETATM   36  C   UNL     1      -7.684   1.932  67.803  1.00  0.00    -0.059 C  
BRANCH  36  37
HETATM   37  N   UNL     1      -7.325   2.840  66.702  1.00  0.00    -0.068 NA 
HETATM   38  C   UNL     1      -8.190   4.022  66.645  1.00  0.00    -0.101 C  
HETATM   39  C   UNL     1      -7.254   2.172  65.393  1.00  0.00    -0.057 C  
HETATM   40  C   UNL     1      -8.624   1.816  64.810  1.00  0.00    -0.097 C  
HETATM   41  C   UNL     1      -9.596   3.731  66.113  1.00  0.00    -0.171 C  
HETATM   42  C   UNL     1      -9.549   3.038  64.746  1.00  0.00    -0.121 C  
BRANCH  42  43
HETATM   43  C   UNL     1      -9.126   3.997  63.632  1.00  0.00    -0.128 C  
HETATM   44  N   UNL     1     -10.137   4.480  62.857  1.00  0.00    -0.385 N  
HETATM   45  H2  UNL     1     -11.111   4.220  63.009  1.00  0.00     0.000 HD 
HETATM   46  O   UNL     1      -7.967   4.315  63.387  1.00  0.00    -0.080 OA 
HETATM   47  H1  UNL     1      -9.855   5.121  62.114  1.00  0.00     0.000 HD 
ENDBRANCH  42  43
ENDBRANCH  36  37
ENDBRANCH  35  36
ENDBRANCH   4  30
TORSDOF 11
ENDMDL
MODEL      100
REMARK 921   NORMALIZED FREE ENERGY PREDICTED BY IDOCK:   -5.23 KCAL/MOL
REMARK 922        TOTAL FREE ENERGY PREDICTED BY IDOCK:  -10.22 KCAL/MOL
REMARK 923 INTER-LIGAND FREE ENERGY PREDICTED BY IDOCK:   -9.22 KCAL/MOL
REMARK 924 INTRA-LIGAND FREE ENERGY PREDICTED BY IDOCK:   -1.00 KCAL/MOL
REMARK 927      BINDING AFFINITY PREDICTED BY RF-SCORE:    0.00 PKD
ROOT
HETATM    1  C   UNL     1      -8.700   7.704  74.335  1.00  0.00    -0.158 C  
HETATM    2  N   UNL     1      -9.072   7.094  73.068  1.00  0.00    -0.131 N  
HETATM    3  O   UNL     1      -6.841   6.630  72.691  1.00  0.00    -0.064 OA 
HETATM    4  C   UNL     1      -8.013   6.530  72.321  1.00  0.00    -0.102 C  
ENDROOT
BRANCH   2   5
HETATM    5  C   UNL     1     -10.478   6.816  72.769  1.00  0.00    -0.220 C  
BRANCH   5   6
HETATM    6  C   UNL     1     -11.542   7.924  72.819  1.00  0.00    -0.329 C  
BRANCH   6   7
HETATM    7  N   UNL     1     -12.242   8.054  71.518  1.00  0.00    -0.292 NA 
HETATM    8  C   UNL     1     -11.316   8.347  70.415  1.00  0.00    -0.172 C  
HETATM    9  C   UNL     1     -13.339   9.036  71.514  1.00  0.00    -0.339 C  
HETATM   10  C   UNL     1     -11.846  10.827  70.589  1.00  0.00    -0.360 C  
HETATM   11  C   UNL     1     -12.842  10.467  71.695  1.00  0.00    -0.581 C  
HETATM   12  C   UNL     1     -10.747   9.767  70.463  1.00  0.00    -0.381 C  
BRANCH  10  13
HETATM   13  O   UNL     1     -12.537  10.900  69.326  1.00  0.00    -0.356 OA 
BRANCH  13  14
HETATM   14  C   UNL     1     -11.779  11.332  68.283  1.00  0.00    -0.274 C  
HETATM   15  H   UNL     1     -11.514  13.052  69.407  1.00  0.00     0.000 HD 
HETATM   16  O   UNL     1     -11.441  10.638  67.337  1.00  0.00    -0.436 OA 
HETATM   17  N   UNL     1     -11.481  12.651  68.470  1.00  0.00    -0.286 N  
BRANCH  17  18
HETATM   18  C   UNL     1     -11.129  13.461  67.371  1.00  0.00    -0.278 A  
HETATM   19  C   UNL     1      -9.778  13.702  67.033  1.00  0.00    -0.251 A  
HETATM   20  C   UNL     1     -11.933  14.789  65.507  1.00  0.00    -0.189 A  
HETATM   21  C   UNL     1      -9.565  14.507  65.891  1.00  0.00    -0.281 A  
HETATM   22  C   UNL     1     -10.620  15.031  65.132  1.00  0.00    -0.440 A  
HETATM   23  C   UNL     1     -12.188  14.014  66.631  1.00  0.00    -0.463 A  
BRANCH  19  24
HETATM   24  C   UNL     1      -8.601  13.155  67.774  1.00  0.00    -0.188 A  
HETATM   25  C   UNL     1      -8.314  11.779  67.836  1.00  0.00    -0.149 A  
HETATM   26  C   UNL     1      -7.217  11.282  68.552  1.00  0.00    -0.094 A  
HETATM   27  C   UNL     1      -6.392  12.148  69.259  1.00  0.00    -0.103 A  
HETATM   28  C   UNL     1      -6.651  13.513  69.229  1.00  0.00    -0.103 A  
HETATM   29  C   UNL     1      -7.729  14.007  68.485  1.00  0.00    -0.139 A  
ENDBRANCH  19  24
ENDBRANCH  17  18
ENDBRANCH  13  14
ENDBRANCH  10  13
ENDBRANCH   6   7
ENDBRANCH   5   6
ENDBRANCH   2   5
BRANCH   4  30
HETATM   30  C   UNL     1      -8.278   5.700  71.099  1.00  0.00    -0.121 A  
HETATM   31  C   UNL     1      -7.174   5.149  70.429  1.00  0.00    -0.061 A  
HETATM   32  C   UNL     1      -9.555   5.445  70.592  1.00  0.00    -0.228 A  
HETATM   33  C   UNL     1      -9.743   4.530  69.556  1.00  0.00    -0.282 A  
HETATM   34  C   UNL     1      -7.356   4.282  69.344  1.00  0.00    -0.051 A  
HETATM   35  C   UNL     1      -8.645   3.936  68.924  1.00  0.00    -0.115 A  
BRANCH  35  36
HETATM   36  C   UNL     1      -8.868   2.966  67.781  1.00  0.00    -0.135 C  
BRANCH  36  37
HETATM   37  N   UNL     1      -8.192   3.383  66.543  1.00  0.00    -0.095 NA 
HETATM   38  C   UNL     1      -8.805   4.571  65.942  1.00  0.00    -0.121 C  
HETATM   39  C   UNL     1      -8.058   2.300  65.557  1.00  0.00    -0.084 C  
HETATM   40  C   UNL     1      -9.372   1.940  64.858  1.00  0.00    -0.081 C  
HETATM   41  C   UNL     1     -10.149   4.294  65.263  1.00  0.00    -0.231 C  
HETATM   42  C   UNL     1     -10.034   3.170  64.226  1.00  0.00    -0.148 C  
BRANCH  42  43
HETATM   43  C   UNL     1      -9.285   3.623  62.972  1.00  0.00    -0.101 C  
HETATM   44  N   UNL     1      -8.303   2.784  62.538  1.00  0.00    -0.073 N  
HETATM   45  H2  UNL     1      -8.083   1.911  63.018  1.00  0.00     0.000 HD 
HETATM   46  O   UNL     1      -9.489   4.677  62.379  1.00  0.00    -0.135 OA 
HETATM   47  H1  UNL     1      -7.803   3.086  61.702  1.00  0.00     0.000 HD 
ENDBRANCH  42  43
ENDBRANCH  36  37
ENDBRANCH  35  36
ENDBRANCH   4  30
TORSDOF 11
ENDMDL
MODEL      101
REMARK 921   NORMALIZED FREE ENERGY PREDICTED BY IDOCK:   -5.16 KCAL/MOL
REMARK 922        TOTAL FREE ENERGY PREDICTED BY IDOCK:  -10.11 KCAL/MOL
REMARK 923 INTER-LIGAND FREE ENERGY PREDICTED BY IDOCK:   -7.10 KCAL/MOL
REMARK 924 INTRA-LIGAND FREE ENERGY PREDICTED BY IDOCK:   -3.01 KCAL/MOL
REMARK 927      BINDING AFFINITY PREDICTED BY RF-SCORE:    0.00 PKD
ROOT
HETATM    1  C   UNL     1      -7.033  17.970  65.487  1.00  0.00    -0.010 C  
HETATM    2  N   UNL     1      -7.692  17.473  66.685  1.00  0.00    -0.232 N  
HETATM    3  O   UNL     1      -9.725  18.025  65.737  1.00  0.00    -0.521 OA 
HETATM    4  C   UNL     1      -9.105  17.517  66.673  1.00  0.00    -0.269 C  
ENDROOT
BRANCH   2   5
HETATM    5  C   UNL     1      -6.940  16.697  67.673  1.00  0.00    -0.139 C  
BRANCH   5   6
HETATM    6  C   UNL     1      -6.361  15.315  67.331  1.00  0.00    -0.005 C  
BRANCH   6   7
HETATM    7  N   UNL     1      -6.193  14.489  68.552  1.00  0.00    -0.084 NA 
HETATM    8  C   UNL     1      -5.450  13.248  68.286  1.00  0.00    -0.092 C  
HETATM    9  C   UNL     1      -7.451  14.169  69.246  1.00  0.00     0.018 C  
HETATM   10  C   UNL     1      -7.626  11.950  68.089  1.00  0.00    -0.121 C  
HETATM   11  C   UNL     1      -8.356  13.255  68.425  1.00  0.00    -0.131 C  
HETATM   12  C   UNL     1      -6.249  12.225  67.476  1.00  0.00    -0.140 C  
BRANCH  10  13
HETATM   13  O   UNL     1      -7.430  11.186  69.295  1.00  0.00    -0.123 OA 
BRANCH  13  14
HETATM   14  C   UNL     1      -8.264  10.120  69.438  1.00  0.00    -0.166 C  
HETATM   15  H   UNL     1      -7.064   9.206  68.017  1.00  0.00     0.000 HD 
HETATM   16  O   UNL     1      -9.127  10.025  70.296  1.00  0.00    -0.136 OA 
HETATM   17  N   UNL     1      -7.980   9.204  68.465  1.00  0.00    -0.101 N  
BRANCH  17  18
HETATM   18  C   UNL     1      -8.949   8.255  68.080  1.00  0.00    -0.139 A  
HETATM   19  C   UNL     1      -9.981   8.579  67.171  1.00  0.00    -0.304 A  
HETATM   20  C   UNL     1      -9.720   5.965  68.289  1.00  0.00    -0.147 A  
HETATM   21  C   UNL     1     -10.867   7.527  66.847  1.00  0.00    -0.174 A  
HETATM   22  C   UNL     1     -10.734   6.239  67.383  1.00  0.00    -0.409 A  
HETATM   23  C   UNL     1      -8.835   6.973  68.645  1.00  0.00    -0.128 A  
BRANCH  19  24
HETATM   24  C   UNL     1     -10.170   9.919  66.535  1.00  0.00    -0.292 A  
HETATM   25  C   UNL     1     -11.051  10.888  67.050  1.00  0.00    -0.271 A  
HETATM   26  C   UNL     1     -11.230  12.131  66.429  1.00  0.00    -0.380 A  
HETATM   27  C   UNL     1     -10.557  12.429  65.251  1.00  0.00    -0.322 A  
HETATM   28  C   UNL     1      -9.687  11.492  64.707  1.00  0.00    -0.250 A  
HETATM   29  C   UNL     1      -9.487  10.265  65.349  1.00  0.00    -0.287 A  
ENDBRANCH  19  24
ENDBRANCH  17  18
ENDBRANCH  13  14
ENDBRANCH  10  13
ENDBRANCH   6   7
ENDBRANCH   5   6
ENDBRANCH   2   5
BRANCH   4  30
HETATM   30  C   UNL     1      -9.914  16.859  67.753  1.00  0.00    -0.278 A  
HETATM   31  C   UNL     1      -9.738  17.309  69.071  1.00  0.00    -0.201 A  
HETATM   32  C   UNL     1     -10.828  15.828  67.522  1.00  0.00    -0.315 A  
HETATM   33  C   UNL     1     -11.669  15.377  68.541  1.00  0.00    -0.355 A  
HETATM   34  C   UNL     1     -10.533  16.809  70.110  1.00  0.00     0.176 A  
HETATM   35  C   UNL     1     -11.532  15.866  69.844  1.00  0.00    -0.344 A  
BRANCH  35  36
HETATM   36  C   UNL     1     -12.435  15.343  70.943  1.00  0.00    -0.418 C  
BRANCH  36  37
HETATM   37  N   UNL     1     -13.333  14.275  70.479  1.00  0.00    -0.047 NA 
HETATM   38  C   UNL     1     -14.042  13.620  71.582  1.00  0.00    -0.001 C  
HETATM   39  C   UNL     1     -12.667  13.286  69.617  1.00  0.00     0.405 C  
HETATM   40  C   UNL     1     -11.737  12.336  70.376  1.00  0.00    -0.127 C  
HETATM   41  C   UNL     1     -13.159  12.687  72.415  1.00  0.00    -0.241 C  
HETATM   42  C   UNL     1     -12.457  11.643  71.538  1.00  0.00    -0.238 C  
BRANCH  42  43
HETATM   43  C   UNL     1     -13.427  10.575  71.033  1.00  0.00     0.041 C  
HETATM   44  N   UNL     1     -13.971   9.774  71.992  1.00  0.00    -0.217 N  
HETATM   45  H2  UNL     1     -13.746   9.880  72.981  1.00  0.00     0.000 HD 
HETATM   46  O   UNL     1     -13.705  10.385  69.854  1.00  0.00     0.413 OA 
HETATM   47  H1  UNL     1     -14.619   9.061  71.656  1.00  0.00     0.000 HD 
ENDBRANCH  42  43
ENDBRANCH  36  37
ENDBRANCH  35  36
ENDBRANCH   4  30
TORSDOF 11
ENDMDL
MODEL      102
REMARK 921   NORMALIZED FREE ENERGY PREDICTED BY IDOCK:   -5.15 KCAL/MOL
REMARK 922        TOTAL FREE ENERGY PREDICTED BY IDOCK:  -10.10 KCAL/MOL
REMARK 923 INTER-LIGAND FREE ENERGY PREDICTED BY IDOCK:   -8.35 KCAL/MOL
REMARK 924 INTRA-LIGAND FREE ENERGY PREDICTED BY IDOCK:   -1.75 KCAL/MOL
REMARK 927      BINDING AFFINITY PREDICTED BY RF-SCORE:    0.00 PKD
ROOT
HETATM    1  C   UNL     1      -9.771   8.636  72.495  1.00  0.00    -0.188 C  
HETATM    2  N   UNL     1      -9.365   8.408  71.117  1.00  0.00    -0.164 N  
HETATM    3  O   UNL     1      -9.538   6.135  71.491  1.00  0.00    -0.156 OA 
HETATM    4  C   UNL     1      -9.324   7.057  70.702  1.00  0.00    -0.162 C  
ENDROOT
BRANCH   2   5
HETATM    5  C   UNL     1      -9.323   9.522  70.168  1.00  0.00    -0.247 C  
BRANCH   5   6
HETATM    6  C   UNL     1      -8.009  10.254  69.851  1.00  0.00    -0.076 C  
BRANCH   6   7
HETATM    7  N   UNL     1      -7.903  10.561  68.404  1.00  0.00    -0.105 NA 
HETATM    8  C   UNL     1      -6.989  11.681  68.138  1.00  0.00    -0.071 C  
HETATM    9  C   UNL     1      -9.193  10.812  67.740  1.00  0.00    -0.152 C  
HETATM   10  C   UNL     1      -8.949  13.293  68.014  1.00  0.00    -0.191 C  
HETATM   11  C   UNL     1      -9.868  12.088  68.236  1.00  0.00    -0.204 C  
HETATM   12  C   UNL     1      -7.547  13.037  68.575  1.00  0.00    -0.121 C  
BRANCH  10  13
HETATM   13  O   UNL     1      -8.821  13.544  66.600  1.00  0.00    -0.179 OA 
BRANCH  13  14
HETATM   14  C   UNL     1      -9.297  14.750  66.188  1.00  0.00    -0.257 C  
HETATM   15  H   UNL     1      -7.867  15.557  67.451  1.00  0.00     0.000 HD 
HETATM   16  O   UNL     1     -10.099  14.905  65.281  1.00  0.00    -0.355 OA 
HETATM   17  N   UNL     1      -8.743  15.731  66.960  1.00  0.00    -0.206 N  
BRANCH  17  18
HETATM   18  C   UNL     1      -9.380  16.983  67.080  1.00  0.00    -0.236 A  
HETATM   19  C   UNL     1     -10.405  17.204  68.026  1.00  0.00    -0.353 A  
HETATM   20  C   UNL     1      -9.481  19.275  66.291  1.00  0.00    -0.387 A  
HETATM   21  C   UNL     1     -10.936  18.513  68.062  1.00  0.00     0.003 A  
HETATM   22  C   UNL     1     -10.475  19.535  67.221  1.00  0.00    -0.590 A  
HETATM   23  C   UNL     1      -8.940  17.998  66.213  1.00  0.00    -0.194 A  
BRANCH  19  24
HETATM   24  C   UNL     1     -10.928  16.175  68.976  1.00  0.00    -0.312 A  
HETATM   25  C   UNL     1     -11.876  15.205  68.600  1.00  0.00    -0.329 A  
HETATM   26  C   UNL     1     -12.370  14.259  69.509  1.00  0.00    -0.272 A  
HETATM   27  C   UNL     1     -11.954  14.279  70.834  1.00  0.00    -0.389 A  
HETATM   28  C   UNL     1     -11.027  15.230  71.244  1.00  0.00    -0.210 A  
HETATM   29  C   UNL     1     -10.512  16.151  70.325  1.00  0.00    -0.049 A  
ENDBRANCH  19  24
ENDBRANCH  17  18
ENDBRANCH  13  14
ENDBRANCH  10  13
ENDBRANCH   6   7
ENDBRANCH   5   6
ENDBRANCH   2   5
BRANCH   4  30
HETATM   30  C   UNL     1      -9.116   6.691  69.261  1.00  0.00    -0.138 A  
HETATM   31  C   UNL     1     -10.226   6.746  68.404  1.00  0.00    -0.193 A  
HETATM   32  C   UNL     1      -7.885   6.301  68.726  1.00  0.00    -0.101 A  
HETATM   33  C   UNL     1      -7.723   6.139  67.350  1.00  0.00    -0.094 A  
HETATM   34  C   UNL     1     -10.081   6.516  67.031  1.00  0.00    -0.236 A  
HETATM   35  C   UNL     1      -8.820   6.248  66.487  1.00  0.00    -0.140 A  
BRANCH  35  36
HETATM   36  C   UNL     1      -8.630   6.041  64.998  1.00  0.00    -0.038 C  
BRANCH  36  37
HETATM   37  N   UNL     1      -8.460   4.624  64.641  1.00  0.00    -0.128 NA 
HETATM   38  C   UNL     1      -8.250   4.430  63.203  1.00  0.00    -0.093 C  
HETATM   39  C   UNL     1      -9.542   3.762  65.139  1.00  0.00    -0.177 C  
HETATM   40  C   UNL     1     -10.857   3.919  64.371  1.00  0.00    -0.149 C  
HETATM   41  C   UNL     1      -9.518   4.619  62.365  1.00  0.00    -0.072 C  
HETATM   42  C   UNL     1     -10.660   3.725  62.863  1.00  0.00    -0.205 C  
BRANCH  42  43
HETATM   43  C   UNL     1     -10.429   2.254  62.517  1.00  0.00    -0.118 C  
HETATM   44  N   UNL     1     -11.551   1.488  62.423  1.00  0.00    -0.235 N  
HETATM   45  H2  UNL     1     -12.485   1.871  62.574  1.00  0.00     0.000 HD 
HETATM   46  O   UNL     1      -9.327   1.739  62.359  1.00  0.00    -0.079 OA 
HETATM   47  H1  UNL     1     -11.397   0.506  62.192  1.00  0.00     0.000 HD 
ENDBRANCH  42  43
ENDBRANCH  36  37
ENDBRANCH  35  36
ENDBRANCH   4  30
TORSDOF 11
ENDMDL
MODEL      103
REMARK 921   NORMALIZED FREE ENERGY PREDICTED BY IDOCK:   -5.13 KCAL/MOL
REMARK 922        TOTAL FREE ENERGY PREDICTED BY IDOCK:  -10.07 KCAL/MOL
REMARK 923 INTER-LIGAND FREE ENERGY PREDICTED BY IDOCK:   -9.00 KCAL/MOL
REMARK 924 INTRA-LIGAND FREE ENERGY PREDICTED BY IDOCK:   -1.07 KCAL/MOL
REMARK 927      BINDING AFFINITY PREDICTED BY RF-SCORE:    0.00 PKD
ROOT
HETATM    1  C   UNL     1     -13.001  14.201  65.296  1.00  0.00    -0.237 C  
HETATM    2  N   UNL     1     -12.074  13.082  65.378  1.00  0.00    -0.417 N  
HETATM    3  O   UNL     1     -12.057  12.992  63.069  1.00  0.00    -0.448 OA 
HETATM    4  C   UNL     1     -11.621  12.567  64.141  1.00  0.00    -0.389 C  
ENDROOT
BRANCH   2   5
HETATM    5  C   UNL     1     -11.430  12.749  66.649  1.00  0.00    -0.350 C  
BRANCH   5   6
HETATM    6  C   UNL     1     -10.136  13.447  67.097  1.00  0.00    -0.240 C  
BRANCH   6   7
HETATM    7  N   UNL     1      -9.804  13.108  68.502  1.00  0.00    -0.195 NA 
HETATM    8  C   UNL     1      -8.360  12.917  68.702  1.00  0.00     0.032 C  
HETATM    9  C   UNL     1     -10.532  11.945  69.035  1.00  0.00    -0.070 C  
HETATM   10  C   UNL     1      -8.634  10.399  68.491  1.00  0.00    -0.134 C  
HETATM   11  C   UNL     1     -10.139  10.642  68.344  1.00  0.00    -0.181 C  
HETATM   12  C   UNL     1      -7.826  11.630  68.069  1.00  0.00    -0.128 C  
BRANCH  10  13
HETATM   13  O   UNL     1      -8.326  10.119  69.871  1.00  0.00    -0.172 OA 
BRANCH  13  14
HETATM   14  C   UNL     1      -8.506   8.824  70.246  1.00  0.00    -0.149 C  
HETATM   15  H   UNL     1     -10.507   9.331  70.422  1.00  0.00     0.000 HD 
HETATM   16  O   UNL     1      -7.647   7.959  70.186  1.00  0.00    -0.080 OA 
HETATM   17  N   UNL     1      -9.783   8.671  70.705  1.00  0.00    -0.182 N  
BRANCH  17  18
HETATM   18  C   UNL     1     -10.103   7.605  71.570  1.00  0.00    -0.178 A  
HETATM   19  C   UNL     1     -10.389   6.312  71.076  1.00  0.00    -0.258 A  
HETATM   20  C   UNL     1     -10.382   6.891  73.872  1.00  0.00    -0.398 A  
HETATM   21  C   UNL     1     -10.664   5.328  72.052  1.00  0.00    -0.261 A  
HETATM   22  C   UNL     1     -10.648   5.606  73.425  1.00  0.00    -0.288 A  
HETATM   23  C   UNL     1     -10.120   7.893  72.946  1.00  0.00    -0.376 A  
BRANCH  19  24
HETATM   24  C   UNL     1     -10.396   5.932  69.630  1.00  0.00    -0.313 A  
HETATM   25  C   UNL     1      -9.900   4.701  69.165  1.00  0.00    -0.242 A  
HETATM   26  C   UNL     1      -9.896   4.369  67.803  1.00  0.00    -0.152 A  
HETATM   27  C   UNL     1     -10.359   5.279  66.861  1.00  0.00    -0.303 A  
HETATM   28  C   UNL     1     -10.846   6.510  67.282  1.00  0.00    -0.463 A  
HETATM   29  C   UNL     1     -10.878   6.822  68.646  1.00  0.00    -0.277 A  
ENDBRANCH  19  24
ENDBRANCH  17  18
ENDBRANCH  13  14
ENDBRANCH  10  13
ENDBRANCH   6   7
ENDBRANCH   5   6
ENDBRANCH   2   5
BRANCH   4  30
HETATM   30  C   UNL     1     -10.518  11.551  64.079  1.00  0.00    -0.424 A  
HETATM   31  C   UNL     1     -10.525  10.517  65.028  1.00  0.00    -0.221 A  
HETATM   32  C   UNL     1      -9.490  11.576  63.133  1.00  0.00    -0.332 A  
HETATM   33  C   UNL     1      -8.594  10.512  63.023  1.00  0.00    -0.191 A  
HETATM   34  C   UNL     1      -9.585   9.481  64.963  1.00  0.00    -0.218 A  
HETATM   35  C   UNL     1      -8.635   9.451  63.935  1.00  0.00    -0.225 A  
BRANCH  35  36
HETATM   36  C   UNL     1      -7.636   8.318  63.817  1.00  0.00    -0.134 C  
BRANCH  36  37
HETATM   37  N   UNL     1      -7.816   7.294  64.858  1.00  0.00    -0.120 NA 
HETATM   38  C   UNL     1      -6.668   7.211  65.767  1.00  0.00    -0.052 C  
HETATM   39  C   UNL     1      -8.162   5.969  64.321  1.00  0.00    -0.069 C  
HETATM   40  C   UNL     1      -6.987   5.251  63.652  1.00  0.00    -0.047 C  
HETATM   41  C   UNL     1      -5.438   6.543  65.147  1.00  0.00    -0.022 C  
HETATM   42  C   UNL     1      -5.773   5.157  64.583  1.00  0.00    -0.017 C  
BRANCH  42  43
HETATM   43  C   UNL     1      -6.001   4.129  65.692  1.00  0.00    -0.023 C  
HETATM   44  N   UNL     1      -6.638   2.986  65.312  1.00  0.00    -0.035 N  
HETATM   45  H2  UNL     1      -6.944   2.827  64.352  1.00  0.00     0.000 HD 
HETATM   46  O   UNL     1      -5.683   4.286  66.866  1.00  0.00    -0.020 OA 
HETATM   47  H1  UNL     1      -6.790   2.300  66.052  1.00  0.00     0.000 HD 
ENDBRANCH  42  43
ENDBRANCH  36  37
ENDBRANCH  35  36
ENDBRANCH   4  30
TORSDOF 11
ENDMDL
MODEL      104
REMARK 921   NORMALIZED FREE ENERGY PREDICTED BY IDOCK:   -5.12 KCAL/MOL
REMARK 922        TOTAL FREE ENERGY PREDICTED BY IDOCK:  -10.04 KCAL/MOL
REMARK 923 INTER-LIGAND FREE ENERGY PREDICTED BY IDOCK:   -9.26 KCAL/MOL
REMARK 924 INTRA-LIGAND FREE ENERGY PREDICTED BY IDOCK:   -0.78 KCAL/MOL
REMARK 927      BINDING AFFINITY PREDICTED BY RF-SCORE:    0.00 PKD
ROOT
HETATM    1  C   UNL     1     -13.905  15.458  71.199  1.00  0.00    -0.365 C  
HETATM    2  N   UNL     1     -13.123  14.286  70.834  1.00  0.00    -0.336 N  
HETATM    3  O   UNL     1     -14.020  13.182  72.655  1.00  0.00    -0.708 OA 
HETATM    4  C   UNL     1     -13.305  13.147  71.651  1.00  0.00    -0.308 C  
ENDROOT
BRANCH   2   5
HETATM    5  C   UNL     1     -12.457  14.220  69.532  1.00  0.00    -0.128 C  
BRANCH   5   6
HETATM    6  C   UNL     1     -11.679  15.420  68.970  1.00  0.00    -0.361 C  
BRANCH   6   7
HETATM    7  N   UNL     1     -10.864  15.027  67.795  1.00  0.00    -0.276 NA 
HETATM    8  C   UNL     1     -10.152  13.759  68.012  1.00  0.00    -0.245 C  
HETATM    9  C   UNL     1      -9.911  16.055  67.345  1.00  0.00    -0.241 C  
HETATM   10  C   UNL     1      -8.041  15.019  68.657  1.00  0.00    -0.153 C  
HETATM   11  C   UNL     1      -8.806  16.314  68.364  1.00  0.00    -0.202 C  
HETATM   12  C   UNL     1      -8.997  13.875  69.009  1.00  0.00     0.223 C  
BRANCH  10  13
HETATM   13  O   UNL     1      -7.295  14.628  67.487  1.00  0.00    -0.175 OA 
BRANCH  13  14
HETATM   14  C   UNL     1      -6.557  13.495  67.632  1.00  0.00    -0.168 C  
HETATM   15  H   UNL     1      -7.859  12.673  66.246  1.00  0.00     0.000 HD 
HETATM   16  O   UNL     1      -5.507  13.425  68.252  1.00  0.00    -0.082 OA 
HETATM   17  N   UNL     1      -7.191  12.470  66.990  1.00  0.00    -0.046 N  
BRANCH  17  18
HETATM   18  C   UNL     1      -6.926  11.134  67.351  1.00  0.00    -0.093 A  
HETATM   19  C   UNL     1      -7.320  10.053  66.531  1.00  0.00    -0.101 A  
HETATM   20  C   UNL     1      -5.908   9.651  68.980  1.00  0.00    -0.035 A  
HETATM   21  C   UNL     1      -6.964   8.767  66.996  1.00  0.00    -0.074 A  
HETATM   22  C   UNL     1      -6.260   8.568  68.191  1.00  0.00    -0.051 A  
HETATM   23  C   UNL     1      -6.248  10.933  68.567  1.00  0.00    -0.046 A  
BRANCH  19  24
HETATM   24  C   UNL     1      -8.046  10.188  65.231  1.00  0.00    -0.151 A  
HETATM   25  C   UNL     1      -9.065  11.136  65.024  1.00  0.00    -0.138 A  
HETATM   26  C   UNL     1      -9.749  11.235  63.805  1.00  0.00    -0.330 A  
HETATM   27  C   UNL     1      -9.456  10.361  62.765  1.00  0.00    -0.351 A  
HETATM   28  C   UNL     1      -8.464   9.404  62.938  1.00  0.00    -0.206 A  
HETATM   29  C   UNL     1      -7.761   9.331  64.146  1.00  0.00    -0.120 A  
ENDBRANCH  19  24
ENDBRANCH  17  18
ENDBRANCH  13  14
ENDBRANCH  10  13
ENDBRANCH   6   7
ENDBRANCH   5   6
ENDBRANCH   2   5
BRANCH   4  30
HETATM   30  C   UNL     1     -12.718  11.817  71.275  1.00  0.00    -0.420 A  
HETATM   31  C   UNL     1     -13.293  10.665  71.832  1.00  0.00    -0.454 A  
HETATM   32  C   UNL     1     -11.635  11.663  70.405  1.00  0.00    -0.158 A  
HETATM   33  C   UNL     1     -11.247  10.397  69.966  1.00  0.00    -0.385 A  
HETATM   34  C   UNL     1     -12.860   9.391  71.446  1.00  0.00    -0.423 A  
HETATM   35  C   UNL     1     -11.858   9.247  70.479  1.00  0.00    -0.173 A  
BRANCH  35  36
HETATM   36  C   UNL     1     -11.404   7.880  70.011  1.00  0.00    -0.027 C  
BRANCH  36  37
HETATM   37  N   UNL     1     -10.218   7.943  69.143  1.00  0.00    -0.212 NA 
HETATM   38  C   UNL     1     -10.565   7.940  67.718  1.00  0.00    -0.175 C  
HETATM   39  C   UNL     1      -9.217   6.908  69.445  1.00  0.00    -0.147 C  
HETATM   40  C   UNL     1      -9.625   5.505  68.986  1.00  0.00    -0.180 C  
HETATM   41  C   UNL     1     -11.028   6.576  67.199  1.00  0.00    -0.480 C  
HETATM   42  C   UNL     1      -9.998   5.481  67.499  1.00  0.00    -0.189 C  
BRANCH  42  43
HETATM   43  C   UNL     1      -8.758   5.604  66.613  1.00  0.00    -0.118 C  
HETATM   44  N   UNL     1      -8.938   6.272  65.439  1.00  0.00    -0.364 N  
HETATM   45  H2  UNL     1      -9.840   6.664  65.169  1.00  0.00     0.000 HD 
HETATM   46  O   UNL     1      -7.661   5.121  66.875  1.00  0.00    -0.091 OA 
HETATM   47  H1  UNL     1      -8.110   6.354  64.847  1.00  0.00     0.000 HD 
ENDBRANCH  42  43
ENDBRANCH  36  37
ENDBRANCH  35  36
ENDBRANCH   4  30
TORSDOF 11
ENDMDL
MODEL      105
REMARK 921   NORMALIZED FREE ENERGY PREDICTED BY IDOCK:   -5.12 KCAL/MOL
REMARK 922        TOTAL FREE ENERGY PREDICTED BY IDOCK:  -10.04 KCAL/MOL
REMARK 923 INTER-LIGAND FREE ENERGY PREDICTED BY IDOCK:   -8.14 KCAL/MOL
REMARK 924 INTRA-LIGAND FREE ENERGY PREDICTED BY IDOCK:   -1.90 KCAL/MOL
REMARK 927      BINDING AFFINITY PREDICTED BY RF-SCORE:    0.00 PKD
ROOT
HETATM    1  C   UNL     1      -7.464   7.669  73.686  1.00  0.00    -0.113 C  
HETATM    2  N   UNL     1      -7.502   6.695  72.606  1.00  0.00    -0.092 N  
HETATM    3  O   UNL     1      -9.575   6.010  73.362  1.00  0.00    -0.142 OA 
HETATM    4  C   UNL     1      -8.680   5.918  72.519  1.00  0.00    -0.123 C  
ENDROOT
BRANCH   2   5
HETATM    5  C   UNL     1      -6.524   6.761  71.519  1.00  0.00    -0.042 C  
BRANCH   5   6
HETATM    6  C   UNL     1      -5.974   8.107  71.019  1.00  0.00    -0.033 C  
BRANCH   6   7
HETATM    7  N   UNL     1      -6.342   8.342  69.602  1.00  0.00    -0.036 NA 
HETATM    8  C   UNL     1      -5.948   9.681  69.140  1.00  0.00    -0.034 C  
HETATM    9  C   UNL     1      -7.765   8.116  69.298  1.00  0.00    -0.104 C  
HETATM   10  C   UNL     1      -8.297  10.553  69.566  1.00  0.00    -0.061 C  
HETATM   11  C   UNL     1      -8.677   9.129  69.984  1.00  0.00    -0.186 C  
HETATM   12  C   UNL     1      -6.796  10.804  69.742  1.00  0.00    -0.151 C  
BRANCH  10  13
HETATM   13  O   UNL     1      -8.618  10.745  68.174  1.00  0.00    -0.121 OA 
BRANCH  13  14
HETATM   14  C   UNL     1      -9.319  11.878  67.900  1.00  0.00    -0.187 C  
HETATM   15  H   UNL     1      -8.095  12.031  66.235  1.00  0.00     0.000 HD 
HETATM   16  O   UNL     1     -10.324  12.233  68.496  1.00  0.00    -0.226 OA 
HETATM   17  N   UNL     1      -8.707  12.539  66.873  1.00  0.00    -0.200 N  
BRANCH  17  18
HETATM   18  C   UNL     1      -8.919  13.921  66.694  1.00  0.00    -0.134 A  
HETATM   19  C   UNL     1      -9.914  14.409  65.816  1.00  0.00    -0.354 A  
HETATM   20  C   UNL     1      -8.261  16.162  67.349  1.00  0.00    -0.185 A  
HETATM   21  C   UNL     1     -10.041  15.815  65.754  1.00  0.00    -0.399 A  
HETATM   22  C   UNL     1      -9.241  16.678  66.515  1.00  0.00    -0.297 A  
HETATM   23  C   UNL     1      -8.093  14.786  67.432  1.00  0.00    -0.220 A  
BRANCH  19  24
HETATM   24  C   UNL     1     -10.824  13.553  64.996  1.00  0.00    -0.348 A  
HETATM   25  C   UNL     1     -12.211  13.483  65.222  1.00  0.00    -0.474 A  
HETATM   26  C   UNL     1     -13.047  12.660  64.455  1.00  0.00    -0.068 A  
HETATM   27  C   UNL     1     -12.511  11.854  63.459  1.00  0.00    -0.609 A  
HETATM   28  C   UNL     1     -11.144  11.888  63.215  1.00  0.00    -0.390 A  
HETATM   29  C   UNL     1     -10.319  12.737  63.961  1.00  0.00    -0.392 A  
ENDBRANCH  19  24
ENDBRANCH  17  18
ENDBRANCH  13  14
ENDBRANCH  10  13
ENDBRANCH   6   7
ENDBRANCH   5   6
ENDBRANCH   2   5
BRANCH   4  30
HETATM   30  C   UNL     1      -8.936   5.020  71.344  1.00  0.00    -0.159 A  
HETATM   31  C   UNL     1      -9.828   5.469  70.358  1.00  0.00    -0.259 A  
HETATM   32  C   UNL     1      -8.338   3.768  71.175  1.00  0.00    -0.085 A  
HETATM   33  C   UNL     1      -8.487   3.060  69.982  1.00  0.00    -0.090 A  
HETATM   34  C   UNL     1     -10.033   4.728  69.188  1.00  0.00    -0.233 A  
HETATM   35  C   UNL     1      -9.333   3.535  68.974  1.00  0.00    -0.240 A  
BRANCH  35  36
HETATM   36  C   UNL     1      -9.504   2.738  67.697  1.00  0.00    -0.108 C  
BRANCH  36  37
HETATM   37  N   UNL     1      -8.594   3.179  66.628  1.00  0.00    -0.112 NA 
HETATM   38  C   UNL     1      -9.012   4.447  66.023  1.00  0.00    -0.122 C  
HETATM   39  C   UNL     1      -8.361   2.153  65.601  1.00  0.00    -0.093 C  
HETATM   40  C   UNL     1      -9.551   1.942  64.661  1.00  0.00    -0.032 C  
HETATM   41  C   UNL     1     -10.230   4.319  65.104  1.00  0.00    -0.228 C  
HETATM   42  C   UNL     1     -10.009   3.257  64.020  1.00  0.00    -0.178 C  
BRANCH  42  43
HETATM   43  C   UNL     1      -9.022   3.728  62.951  1.00  0.00    -0.101 C  
HETATM   44  N   UNL     1      -9.252   4.972  62.445  1.00  0.00    -0.309 N  
HETATM   45  H2  UNL     1     -10.031   5.551  62.759  1.00  0.00     0.000 HD 
HETATM   46  O   UNL     1      -8.091   3.058  62.517  1.00  0.00    -0.070 OA 
HETATM   47  H1  UNL     1      -8.593   5.287  61.732  1.00  0.00     0.000 HD 
ENDBRANCH  42  43
ENDBRANCH  36  37
ENDBRANCH  35  36
ENDBRANCH   4  30
TORSDOF 11
ENDMDL
MODEL      106
REMARK 921   NORMALIZED FREE ENERGY PREDICTED BY IDOCK:   -5.05 KCAL/MOL
REMARK 922        TOTAL FREE ENERGY PREDICTED BY IDOCK:   -9.93 KCAL/MOL
REMARK 923 INTER-LIGAND FREE ENERGY PREDICTED BY IDOCK:   -8.91 KCAL/MOL
REMARK 924 INTRA-LIGAND FREE ENERGY PREDICTED BY IDOCK:   -1.02 KCAL/MOL
REMARK 927      BINDING AFFINITY PREDICTED BY RF-SCORE:    0.00 PKD
ROOT
HETATM    1  C   UNL     1     -13.574  14.297  72.579  1.00  0.00    -0.520 C  
HETATM    2  N   UNL     1     -12.639  13.532  71.767  1.00  0.00    -0.227 N  
HETATM    3  O   UNL     1     -13.953  11.662  72.104  1.00  0.00     0.085 OA 
HETATM    4  C   UNL     1     -12.973  12.175  71.558  1.00  0.00    -0.295 C  
ENDROOT
BRANCH   2   5
HETATM    5  C   UNL     1     -11.616  14.219  70.977  1.00  0.00    -0.030 C  
BRANCH   5   6
HETATM    6  C   UNL     1     -11.616  15.749  70.824  1.00  0.00    -0.398 C  
BRANCH   6   7
HETATM    7  N   UNL     1     -11.775  16.144  69.403  1.00  0.00    -0.269 NA 
HETATM    8  C   UNL     1     -11.909  14.982  68.514  1.00  0.00    -0.291 C  
HETATM    9  C   UNL     1     -10.714  17.031  68.897  1.00  0.00    -0.300 C  
HETATM   10  C   UNL     1      -9.436  15.096  67.941  1.00  0.00    -0.194 C  
HETATM   11  C   UNL     1      -9.355  16.339  68.833  1.00  0.00    -0.248 C  
HETATM   12  C   UNL     1     -10.607  14.195  68.344  1.00  0.00    -0.263 C  
BRANCH  10  13
HETATM   13  O   UNL     1      -9.639  15.501  66.572  1.00  0.00    -0.239 OA 
BRANCH  13  14
HETATM   14  C   UNL     1      -9.953  14.490  65.717  1.00  0.00    -0.334 C  
HETATM   15  H   UNL     1      -9.614  13.243  67.336  1.00  0.00     0.000 HD 
HETATM   16  O   UNL     1     -10.404  14.647  64.594  1.00  0.00    -0.340 OA 
HETATM   17  N   UNL     1      -9.668  13.298  66.320  1.00  0.00    -0.280 N  
BRANCH  17  18
HETATM   18  C   UNL     1      -9.449  12.144  65.540  1.00  0.00    -0.065 A  
HETATM   19  C   UNL     1      -8.416  11.230  65.846  1.00  0.00    -0.060 A  
HETATM   20  C   UNL     1     -10.194  10.818  63.650  1.00  0.00    -0.327 A  
HETATM   21  C   UNL     1      -8.326  10.100  65.002  1.00  0.00    -0.158 A  
HETATM   22  C   UNL     1      -9.205   9.889  63.932  1.00  0.00    -0.295 A  
HETATM   23  C   UNL     1     -10.311  11.950  64.446  1.00  0.00    -0.341 A  
BRANCH  19  24
HETATM   24  C   UNL     1      -7.459  11.372  66.986  1.00  0.00    -0.147 A  
HETATM   25  C   UNL     1      -6.067  11.461  66.803  1.00  0.00    -0.145 A  
HETATM   26  C   UNL     1      -5.183  11.574  67.885  1.00  0.00    -0.046 A  
HETATM   27  C   UNL     1      -5.666  11.566  69.187  1.00  0.00    -0.049 A  
HETATM   28  C   UNL     1      -7.035  11.469  69.406  1.00  0.00    -0.071 A  
HETATM   29  C   UNL     1      -7.915  11.390  68.321  1.00  0.00    -0.136 A  
ENDBRANCH  19  24
ENDBRANCH  17  18
ENDBRANCH  13  14
ENDBRANCH  10  13
ENDBRANCH   6   7
ENDBRANCH   5   6
ENDBRANCH   2   5
BRANCH   4  30
HETATM   30  C   UNL     1     -12.209  11.326  70.585  1.00  0.00    -0.489 A  
HETATM   31  C   UNL     1     -11.459  10.255  71.096  1.00  0.00    -0.319 A  
HETATM   32  C   UNL     1     -12.201  11.539  69.204  1.00  0.00    -0.221 A  
HETATM   33  C   UNL     1     -11.610  10.616  68.341  1.00  0.00    -0.269 A  
HETATM   34  C   UNL     1     -10.806   9.364  70.236  1.00  0.00    -0.303 A  
HETATM   35  C   UNL     1     -10.909   9.517  68.849  1.00  0.00    -0.177 A  
BRANCH  35  36
HETATM   36  C   UNL     1     -10.249   8.540  67.897  1.00  0.00    -0.218 C  
BRANCH  36  37
HETATM   37  N   UNL     1      -9.596   7.421  68.596  1.00  0.00    -0.146 NA 
HETATM   38  C   UNL     1      -8.142   7.584  68.679  1.00  0.00    -0.124 C  
HETATM   39  C   UNL     1      -9.951   6.103  68.047  1.00  0.00    -0.141 C  
HETATM   40  C   UNL     1      -9.290   5.801  66.699  1.00  0.00    -0.155 C  
HETATM   41  C   UNL     1      -7.417   7.342  67.352  1.00  0.00    -0.096 C  
HETATM   42  C   UNL     1      -7.768   5.970  66.762  1.00  0.00    -0.100 C  
BRANCH  42  43
HETATM   43  C   UNL     1      -7.113   4.829  67.539  1.00  0.00    -0.065 C  
HETATM   44  N   UNL     1      -7.639   3.591  67.323  1.00  0.00    -0.077 N  
HETATM   45  H2  UNL     1      -8.419   3.436  66.684  1.00  0.00     0.000 HD 
HETATM   46  O   UNL     1      -6.196   4.967  68.343  1.00  0.00    -0.029 OA 
HETATM   47  H1  UNL     1      -7.202   2.829  67.842  1.00  0.00     0.000 HD 
ENDBRANCH  42  43
ENDBRANCH  36  37
ENDBRANCH  35  36
ENDBRANCH   4  30
TORSDOF 11
ENDMDL
MODEL      107
REMARK 921   NORMALIZED FREE ENERGY PREDICTED BY IDOCK:   -5.03 KCAL/MOL
REMARK 922        TOTAL FREE ENERGY PREDICTED BY IDOCK:   -9.90 KCAL/MOL
REMARK 923 INTER-LIGAND FREE ENERGY PREDICTED BY IDOCK:   -9.41 KCAL/MOL
REMARK 924 INTRA-LIGAND FREE ENERGY PREDICTED BY IDOCK:   -0.48 KCAL/MOL
REMARK 927      BINDING AFFINITY PREDICTED BY RF-SCORE:    0.00 PKD
ROOT
HETATM    1  C   UNL     1     -12.613  10.733  70.515  1.00  0.00    -0.336 C  
HETATM    2  N   UNL     1     -12.001  11.534  69.465  1.00  0.00    -0.331 N  
HETATM    3  O   UNL     1     -12.305  13.406  70.785  1.00  0.00    -0.353 OA 
HETATM    4  C   UNL     1     -11.859  12.912  69.747  1.00  0.00    -0.310 C  
ENDROOT
BRANCH   2   5
HETATM    5  C   UNL     1     -11.306  10.885  68.353  1.00  0.00    -0.304 C  
BRANCH   5   6
HETATM    6  C   UNL     1      -9.807  11.117  68.101  1.00  0.00    -0.180 C  
BRANCH   6   7
HETATM    7  N   UNL     1      -8.985  10.543  69.194  1.00  0.00    -0.176 NA 
HETATM    8  C   UNL     1      -7.551  10.546  68.872  1.00  0.00    -0.108 C  
HETATM    9  C   UNL     1      -9.392   9.192  69.614  1.00  0.00    -0.172 C  
HETATM   10  C   UNL     1      -7.682   8.121  68.124  1.00  0.00    -0.110 C  
HETATM   11  C   UNL     1      -9.160   8.147  68.527  1.00  0.00    -0.136 C  
HETATM   12  C   UNL     1      -7.169   9.527  67.797  1.00  0.00    -0.082 C  
BRANCH  10  13
HETATM   13  O   UNL     1      -6.896   7.606  69.217  1.00  0.00    -0.050 OA 
BRANCH  13  14
HETATM   14  C   UNL     1      -6.750   6.254  69.229  1.00  0.00    -0.056 C  
HETATM   15  H   UNL     1      -8.041   6.270  67.608  1.00  0.00     0.000 HD 
HETATM   16  O   UNL     1      -5.945   5.649  69.919  1.00  0.00    -0.022 OA 
HETATM   17  N   UNL     1      -7.652   5.705  68.363  1.00  0.00    -0.081 N  
BRANCH  17  18
HETATM   18  C   UNL     1      -8.047   4.360  68.509  1.00  0.00    -0.081 A  
HETATM   19  C   UNL     1      -9.109   3.989  69.364  1.00  0.00    -0.191 A  
HETATM   20  C   UNL     1      -7.683   2.066  67.809  1.00  0.00    -0.059 A  
HETATM   21  C   UNL     1      -9.422   2.612  69.394  1.00  0.00    -0.131 A  
HETATM   22  C   UNL     1      -8.733   1.667  68.621  1.00  0.00    -0.106 A  
HETATM   23  C   UNL     1      -7.333   3.409  67.759  1.00  0.00    -0.058 A  
BRANCH  19  24
HETATM   24  C   UNL     1      -9.909   4.941  70.195  1.00  0.00    -0.309 A  
HETATM   25  C   UNL     1      -9.645   5.167  71.558  1.00  0.00    -0.208 A  
HETATM   26  C   UNL     1     -10.418   6.048  72.327  1.00  0.00    -0.241 A  
HETATM   27  C   UNL     1     -11.502   6.704  71.759  1.00  0.00    -0.334 A  
HETATM   28  C   UNL     1     -11.800   6.497  70.418  1.00  0.00    -0.378 A  
HETATM   29  C   UNL     1     -11.005   5.641  69.647  1.00  0.00    -0.292 A  
ENDBRANCH  19  24
ENDBRANCH  17  18
ENDBRANCH  13  14
ENDBRANCH  10  13
ENDBRANCH   6   7
ENDBRANCH   5   6
ENDBRANCH   2   5
BRANCH   4  30
HETATM   30  C   UNL     1     -11.070  13.814  68.843  1.00  0.00    -0.300 A  
HETATM   31  C   UNL     1     -11.736  14.391  67.751  1.00  0.00    -0.407 A  
HETATM   32  C   UNL     1      -9.717  14.111  69.026  1.00  0.00     0.001 A  
HETATM   33  C   UNL     1      -9.088  15.086  68.252  1.00  0.00    -0.182 A  
HETATM   34  C   UNL     1     -11.087  15.321  66.928  1.00  0.00    -0.288 A  
HETATM   35  C   UNL     1      -9.768  15.704  67.197  1.00  0.00    -0.226 A  
BRANCH  35  36
HETATM   36  C   UNL     1      -9.060  16.741  66.348  1.00  0.00    -0.289 C  
BRANCH  36  37
HETATM   37  N   UNL     1      -9.089  18.082  66.952  1.00  0.00    -0.262 NA 
HETATM   38  C   UNL     1      -8.475  19.097  66.091  1.00  0.00    -0.232 C  
HETATM   39  C   UNL     1      -8.522  18.125  68.308  1.00  0.00    -0.284 C  
HETATM   40  C   UNL     1      -6.995  18.015  68.340  1.00  0.00    -0.236 C  
HETATM   41  C   UNL     1      -6.947  19.017  66.038  1.00  0.00    -0.287 C  
HETATM   42  C   UNL     1      -6.331  19.065  67.441  1.00  0.00    -0.185 C  
BRANCH  42  43
HETATM   43  C   UNL     1      -6.420  20.461  68.058  1.00  0.00    -0.294 C  
HETATM   44  N   UNL     1      -5.617  20.681  69.137  1.00  0.00    -0.332 N  
HETATM   45  H2  UNL     1      -4.997  19.961  69.508  1.00  0.00     0.000 HD 
HETATM   46  O   UNL     1      -7.173  21.349  67.671  1.00  0.00    -0.415 OA 
HETATM   47  H1  UNL     1      -5.676  21.612  69.548  1.00  0.00     0.000 HD 
ENDBRANCH  42  43
ENDBRANCH  36  37
ENDBRANCH  35  36
ENDBRANCH   4  30
TORSDOF 11
ENDMDL
MODEL      108
REMARK 921   NORMALIZED FREE ENERGY PREDICTED BY IDOCK:   -5.02 KCAL/MOL
REMARK 922        TOTAL FREE ENERGY PREDICTED BY IDOCK:   -9.88 KCAL/MOL
REMARK 923 INTER-LIGAND FREE ENERGY PREDICTED BY IDOCK:   -9.01 KCAL/MOL
REMARK 924 INTRA-LIGAND FREE ENERGY PREDICTED BY IDOCK:   -0.86 KCAL/MOL
REMARK 927      BINDING AFFINITY PREDICTED BY RF-SCORE:    0.00 PKD
ROOT
HETATM    1  C   UNL     1      -9.145   4.250  63.489  1.00  0.00    -0.138 C  
HETATM    2  N   UNL     1      -9.283   4.144  64.933  1.00  0.00    -0.145 N  
HETATM    3  O   UNL     1      -7.923   2.277  64.877  1.00  0.00    -0.076 OA 
HETATM    4  C   UNL     1      -8.559   3.095  65.545  1.00  0.00    -0.112 C  
ENDROOT
BRANCH   2   5
HETATM    5  C   UNL     1      -9.869   5.244  65.701  1.00  0.00     0.028 C  
BRANCH   5   6
HETATM    6  C   UNL     1      -8.996   6.366  66.285  1.00  0.00    -0.156 C  
BRANCH   6   7
HETATM    7  N   UNL     1      -9.818   7.353  67.027  1.00  0.00    -0.191 NA 
HETATM    8  C   UNL     1     -10.042   8.583  66.254  1.00  0.00    -0.104 C  
HETATM    9  C   UNL     1      -9.296   7.698  68.360  1.00  0.00    -0.146 C  
HETATM   10  C   UNL     1      -8.131   9.734  67.470  1.00  0.00    -0.114 C  
HETATM   11  C   UNL     1      -7.970   8.451  68.292  1.00  0.00    -0.119 C  
HETATM   12  C   UNL     1      -8.789   9.450  66.117  1.00  0.00    -0.178 C  
BRANCH  10  13
HETATM   13  O   UNL     1      -8.972  10.659  68.187  1.00  0.00    -0.133 OA 
BRANCH  13  14
HETATM   14  C   UNL     1      -9.268  11.803  67.513  1.00  0.00    -0.175 C  
HETATM   15  H   UNL     1     -11.246  11.306  67.877  1.00  0.00     0.000 HD 
HETATM   16  O   UNL     1      -8.445  12.635  67.164  1.00  0.00    -0.184 OA 
HETATM   17  N   UNL     1     -10.614  11.847  67.288  1.00  0.00    -0.221 N  
BRANCH  17  18
HETATM   18  C   UNL     1     -11.133  12.639  66.243  1.00  0.00    -0.293 A  
HETATM   19  C   UNL     1     -11.590  13.956  66.470  1.00  0.00    -0.385 A  
HETATM   20  C   UNL     1     -11.625  12.774  63.871  1.00  0.00    -0.518 A  
HETATM   21  C   UNL     1     -12.057  14.649  65.330  1.00  0.00    -0.276 A  
HETATM   22  C   UNL     1     -12.063  14.077  64.051  1.00  0.00    -0.413 A  
HETATM   23  C   UNL     1     -11.170  12.051  64.966  1.00  0.00    -0.374 A  
BRANCH  19  24
HETATM   24  C   UNL     1     -11.588  14.645  67.797  1.00  0.00    -0.382 A  
HETATM   25  C   UNL     1     -10.914  15.859  68.022  1.00  0.00    -0.336 A  
HETATM   26  C   UNL     1     -10.906  16.481  69.278  1.00  0.00    -0.326 A  
HETATM   27  C   UNL     1     -11.545  15.885  70.357  1.00  0.00    -0.387 A  
HETATM   28  C   UNL     1     -12.212  14.680  70.175  1.00  0.00    -0.391 A  
HETATM   29  C   UNL     1     -12.245  14.080  68.911  1.00  0.00    -0.261 A  
ENDBRANCH  19  24
ENDBRANCH  17  18
ENDBRANCH  13  14
ENDBRANCH  10  13
ENDBRANCH   6   7
ENDBRANCH   5   6
ENDBRANCH   2   5
BRANCH   4  30
HETATM   30  C   UNL     1      -8.451   2.991  67.039  1.00  0.00    -0.101 A  
HETATM   31  C   UNL     1      -9.534   2.434  67.736  1.00  0.00    -0.148 A  
HETATM   32  C   UNL     1      -7.339   3.414  67.771  1.00  0.00    -0.058 A  
HETATM   33  C   UNL     1      -7.232   3.135  69.133  1.00  0.00    -0.048 A  
HETATM   34  C   UNL     1      -9.458   2.215  69.117  1.00  0.00    -0.143 A  
HETATM   35  C   UNL     1      -8.289   2.529  69.820  1.00  0.00    -0.077 A  
BRANCH  35  36
HETATM   36  C   UNL     1      -8.166   2.259  71.306  1.00  0.00    -0.053 C  
BRANCH  36  37
HETATM   37  N   UNL     1      -8.061   3.494  72.099  1.00  0.00    -0.070 NA 
HETATM   38  C   UNL     1      -8.636   3.349  73.440  1.00  0.00    -0.078 C  
HETATM   39  C   UNL     1      -8.606   4.676  71.415  1.00  0.00    -0.111 C  
HETATM   40  C   UNL     1     -10.136   4.703  71.358  1.00  0.00    -0.248 C  
HETATM   41  C   UNL     1     -10.166   3.321  73.455  1.00  0.00    -0.210 C  
HETATM   42  C   UNL     1     -10.759   4.548  72.751  1.00  0.00    -0.258 C  
BRANCH  42  43
HETATM   43  C   UNL     1     -10.590   5.821  73.580  1.00  0.00    -0.276 C  
HETATM   44  N   UNL     1     -11.445   6.837  73.278  1.00  0.00    -0.444 N  
HETATM   45  H2  UNL     1     -12.151   6.755  72.546  1.00  0.00     0.000 HD 
HETATM   46  O   UNL     1      -9.737   5.982  74.446  1.00  0.00    -0.183 OA 
HETATM   47  H1  UNL     1     -11.333   7.687  73.832  1.00  0.00     0.000 HD 
ENDBRANCH  42  43
ENDBRANCH  36  37
ENDBRANCH  35  36
ENDBRANCH   4  30
TORSDOF 11
ENDMDL
MODEL      109
REMARK 921   NORMALIZED FREE ENERGY PREDICTED BY IDOCK:   -4.99 KCAL/MOL
REMARK 922        TOTAL FREE ENERGY PREDICTED BY IDOCK:   -9.84 KCAL/MOL
REMARK 923 INTER-LIGAND FREE ENERGY PREDICTED BY IDOCK:   -7.23 KCAL/MOL
REMARK 924 INTRA-LIGAND FREE ENERGY PREDICTED BY IDOCK:   -2.61 KCAL/MOL
REMARK 927      BINDING AFFINITY PREDICTED BY RF-SCORE:    0.00 PKD
ROOT
HETATM    1  C   UNL     1      -7.328   8.057  73.674  1.00  0.00    -0.145 C  
HETATM    2  N   UNL     1      -6.885   7.403  72.452  1.00  0.00    -0.059 N  
HETATM    3  O   UNL     1      -8.840   6.171  72.461  1.00  0.00    -0.126 OA 
HETATM    4  C   UNL     1      -7.786   6.467  71.894  1.00  0.00    -0.103 C  
ENDROOT
BRANCH   2   5
HETATM    5  C   UNL     1      -5.739   7.928  71.708  1.00  0.00    -0.035 C  
BRANCH   5   6
HETATM    6  C   UNL     1      -5.929   8.814  70.466  1.00  0.00    -0.032 C  
BRANCH   6   7
HETATM    7  N   UNL     1      -6.780   9.989  70.772  1.00  0.00    -0.309 NA 
HETATM    8  C   UNL     1      -8.162   9.811  70.303  1.00  0.00    -0.148 C  
HETATM    9  C   UNL     1      -6.252  11.269  70.270  1.00  0.00    -0.124 C  
HETATM   10  C   UNL     1      -7.650  11.128  68.192  1.00  0.00    -0.103 C  
HETATM   11  C   UNL     1      -6.237  11.337  68.746  1.00  0.00    -0.045 C  
HETATM   12  C   UNL     1      -8.299   9.872  68.781  1.00  0.00    -0.116 C  
BRANCH  10  13
HETATM   13  O   UNL     1      -8.474  12.258  68.541  1.00  0.00    -0.152 OA 
BRANCH  13  14
HETATM   14  C   UNL     1      -9.059  12.887  67.486  1.00  0.00    -0.191 C  
HETATM   15  H   UNL     1     -10.760  11.831  68.019  1.00  0.00     0.000 HD 
HETATM   16  O   UNL     1      -8.547  13.792  66.847  1.00  0.00    -0.196 OA 
HETATM   17  N   UNL     1     -10.286  12.330  67.266  1.00  0.00    -0.213 N  
BRANCH  17  18
HETATM   18  C   UNL     1     -10.900  12.443  66.002  1.00  0.00    -0.273 A  
HETATM   19  C   UNL     1     -10.636  11.518  64.967  1.00  0.00    -0.354 A  
HETATM   20  C   UNL     1     -12.468  13.681  64.627  1.00  0.00    -0.359 A  
HETATM   21  C   UNL     1     -11.341  11.729  63.760  1.00  0.00    -0.524 A  
HETATM   22  C   UNL     1     -12.251  12.782  63.595  1.00  0.00    -0.597 A  
HETATM   23  C   UNL     1     -11.787  13.519  65.826  1.00  0.00    -0.403 A  
BRANCH  19  24
HETATM   24  C   UNL     1      -9.704  10.354  65.077  1.00  0.00    -0.362 A  
HETATM   25  C   UNL     1     -10.014   9.199  65.817  1.00  0.00    -0.145 A  
HETATM   26  C   UNL     1      -9.120   8.125  65.926  1.00  0.00    -0.183 A  
HETATM   27  C   UNL     1      -7.870   8.193  65.324  1.00  0.00    -0.115 A  
HETATM   28  C   UNL     1      -7.524   9.324  64.594  1.00  0.00    -0.102 A  
HETATM   29  C   UNL     1      -8.434  10.378  64.461  1.00  0.00    -0.172 A  
ENDBRANCH  19  24
ENDBRANCH  17  18
ENDBRANCH  13  14
ENDBRANCH  10  13
ENDBRANCH   6   7
ENDBRANCH   5   6
ENDBRANCH   2   5
BRANCH   4  30
HETATM   30  C   UNL     1      -7.547   5.869  70.538  1.00  0.00    -0.091 A  
HETATM   31  C   UNL     1      -6.710   4.746  70.455  1.00  0.00    -0.036 A  
HETATM   32  C   UNL     1      -8.108   6.365  69.358  1.00  0.00    -0.118 A  
HETATM   33  C   UNL     1      -7.983   5.665  68.157  1.00  0.00    -0.097 A  
HETATM   34  C   UNL     1      -6.527   4.079  69.238  1.00  0.00    -0.033 A  
HETATM   35  C   UNL     1      -7.193   4.512  68.086  1.00  0.00    -0.065 A  
BRANCH  35  36
HETATM   36  C   UNL     1      -7.046   3.781  66.767  1.00  0.00    -0.063 C  
BRANCH  36  37
HETATM   37  N   UNL     1      -8.102   4.130  65.805  1.00  0.00    -0.101 NA 
HETATM   38  C   UNL     1      -9.365   3.439  66.082  1.00  0.00    -0.143 C  
HETATM   39  C   UNL     1      -7.697   3.949  64.402  1.00  0.00    -0.080 C  
HETATM   40  C   UNL     1      -7.624   2.482  63.969  1.00  0.00    -0.067 C  
HETATM   41  C   UNL     1      -9.348   1.953  65.715  1.00  0.00     0.101 C  
HETATM   42  C   UNL     1      -8.933   1.738  64.255  1.00  0.00    -0.108 C  
BRANCH  42  43
HETATM   43  C   UNL     1     -10.034   2.156  63.280  1.00  0.00    -0.115 C  
HETATM   44  N   UNL     1     -11.211   1.479  63.396  1.00  0.00    -0.434 N  
HETATM   45  H2  UNL     1     -11.348   0.743  64.089  1.00  0.00     0.000 HD 
HETATM   46  O   UNL     1      -9.909   3.010  62.409  1.00  0.00    -0.092 OA 
HETATM   47  H1  UNL     1     -11.946   1.758  62.746  1.00  0.00     0.000 HD 
ENDBRANCH  42  43
ENDBRANCH  36  37
ENDBRANCH  35  36
ENDBRANCH   4  30
TORSDOF 11
ENDMDL
MODEL      110
REMARK 921   NORMALIZED FREE ENERGY PREDICTED BY IDOCK:   -4.98 KCAL/MOL
REMARK 922        TOTAL FREE ENERGY PREDICTED BY IDOCK:   -9.82 KCAL/MOL
REMARK 923 INTER-LIGAND FREE ENERGY PREDICTED BY IDOCK:   -9.34 KCAL/MOL
REMARK 924 INTRA-LIGAND FREE ENERGY PREDICTED BY IDOCK:   -0.48 KCAL/MOL
REMARK 927      BINDING AFFINITY PREDICTED BY RF-SCORE:    0.00 PKD
ROOT
HETATM    1  C   UNL     1     -12.434  15.585  64.116  1.00  0.00     0.191 C  
HETATM    2  N   UNL     1     -11.261  15.359  64.947  1.00  0.00    -0.417 N  
HETATM    3  O   UNL     1     -10.924  17.643  65.008  1.00  0.00    -0.780 OA 
HETATM    4  C   UNL     1     -10.584  16.520  65.384  1.00  0.00    -0.276 C  
ENDROOT
BRANCH   2   5
HETATM    5  C   UNL     1     -11.018  14.040  65.535  1.00  0.00    -0.309 C  
BRANCH   5   6
HETATM    6  C   UNL     1     -11.606  13.651  66.901  1.00  0.00    -0.367 C  
BRANCH   6   7
HETATM    7  N   UNL     1     -11.885  12.196  66.968  1.00  0.00    -0.594 NA 
HETATM    8  C   UNL     1     -12.124  11.739  68.345  1.00  0.00    -0.029 C  
HETATM    9  C   UNL     1     -10.855  11.351  66.341  1.00  0.00    -0.271 C  
HETATM   10  C   UNL     1      -9.711  10.965  68.540  1.00  0.00    -0.183 C  
HETATM   11  C   UNL     1      -9.523  11.404  67.084  1.00  0.00    -0.186 C  
HETATM   12  C   UNL     1     -10.860  11.727  69.208  1.00  0.00    -0.185 C  
BRANCH  10  13
HETATM   13  O   UNL     1     -10.029   9.560  68.580  1.00  0.00    -0.158 OA 
BRANCH  13  14
HETATM   14  C   UNL     1      -9.258   8.823  69.425  1.00  0.00    -0.146 C  
HETATM   15  H   UNL     1     -10.386   7.211  68.777  1.00  0.00     0.000 HD 
HETATM   16  O   UNL     1      -8.269   9.243  70.005  1.00  0.00    -0.119 OA 
HETATM   17  N   UNL     1      -9.783   7.566  69.518  1.00  0.00    -0.163 N  
BRANCH  17  18
HETATM   18  C   UNL     1      -9.493   6.757  70.636  1.00  0.00    -0.169 A  
HETATM   19  C   UNL     1     -10.408   6.615  71.704  1.00  0.00    -0.227 A  
HETATM   20  C   UNL     1      -7.901   5.250  71.674  1.00  0.00    -0.110 A  
HETATM   21  C   UNL     1     -10.005   5.751  72.747  1.00  0.00    -0.196 A  
HETATM   22  C   UNL     1      -8.781   5.069  72.728  1.00  0.00    -0.119 A  
HETATM   23  C   UNL     1      -8.250   6.100  70.633  1.00  0.00    -0.121 A  
BRANCH  19  24
HETATM   24  C   UNL     1     -11.742   7.286  71.780  1.00  0.00    -0.321 A  
HETATM   25  C   UNL     1     -11.955   8.476  72.499  1.00  0.00    -0.401 A  
HETATM   26  C   UNL     1     -13.217   9.080  72.576  1.00  0.00    -0.467 A  
HETATM   27  C   UNL     1     -14.314   8.489  71.963  1.00  0.00    -0.537 A  
HETATM   28  C   UNL     1     -14.144   7.306  71.254  1.00  0.00    -0.360 A  
HETATM   29  C   UNL     1     -12.875   6.725  71.152  1.00  0.00    -0.208 A  
ENDBRANCH  19  24
ENDBRANCH  17  18
ENDBRANCH  13  14
ENDBRANCH  10  13
ENDBRANCH   6   7
ENDBRANCH   5   6
ENDBRANCH   2   5
BRANCH   4  30
HETATM   30  C   UNL     1      -9.484  16.442  66.403  1.00  0.00    -0.320 A  
HETATM   31  C   UNL     1      -8.180  16.750  65.984  1.00  0.00    -0.170 A  
HETATM   32  C   UNL     1      -9.683  16.084  67.739  1.00  0.00    -0.221 A  
HETATM   33  C   UNL     1      -8.651  16.195  68.670  1.00  0.00    -0.210 A  
HETATM   34  C   UNL     1      -7.126  16.796  66.905  1.00  0.00    -0.258 A  
HETATM   35  C   UNL     1      -7.362  16.556  68.263  1.00  0.00    -0.169 A  
BRANCH  35  36
HETATM   36  C   UNL     1      -6.246  16.644  69.285  1.00  0.00    -0.194 C  
BRANCH  36  37
HETATM   37  N   UNL     1      -5.301  15.521  69.190  1.00  0.00    -0.096 NA 
HETATM   38  C   UNL     1      -5.585  14.644  68.050  1.00  0.00    -0.128 C  
HETATM   39  C   UNL     1      -5.184  14.749  70.436  1.00  0.00    -0.114 C  
HETATM   40  C   UNL     1      -6.396  13.858  70.723  1.00  0.00     0.061 C  
HETATM   41  C   UNL     1      -6.815  13.755  68.249  1.00  0.00    -0.109 C  
HETATM   42  C   UNL     1      -6.715  12.935  69.541  1.00  0.00     0.031 C  
BRANCH  42  43
HETATM   43  C   UNL     1      -5.690  11.807  69.425  1.00  0.00    -0.067 C  
HETATM   44  N   UNL     1      -5.379  11.171  70.589  1.00  0.00    -0.107 N  
HETATM   45  H2  UNL     1      -5.803  11.431  71.480  1.00  0.00     0.000 HD 
HETATM   46  O   UNL     1      -5.127  11.479  68.385  1.00  0.00    -0.040 OA 
HETATM   47  H1  UNL     1      -4.695  10.418  70.512  1.00  0.00     0.000 HD 
ENDBRANCH  42  43
ENDBRANCH  36  37
ENDBRANCH  35  36
ENDBRANCH   4  30
TORSDOF 11
ENDMDL
MODEL      111
REMARK 921   NORMALIZED FREE ENERGY PREDICTED BY IDOCK:   -4.97 KCAL/MOL
REMARK 922        TOTAL FREE ENERGY PREDICTED BY IDOCK:   -9.81 KCAL/MOL
REMARK 923 INTER-LIGAND FREE ENERGY PREDICTED BY IDOCK:   -7.43 KCAL/MOL
REMARK 924 INTRA-LIGAND FREE ENERGY PREDICTED BY IDOCK:   -2.38 KCAL/MOL
REMARK 927      BINDING AFFINITY PREDICTED BY RF-SCORE:    0.00 PKD
ROOT
HETATM    1  C   UNL     1     -13.913   8.657  73.161  1.00  0.00     0.541 C  
HETATM    2  N   UNL     1     -13.102   8.584  71.955  1.00  0.00    -0.346 N  
HETATM    3  O   UNL     1     -11.624   7.219  73.090  1.00  0.00    -0.134 OA 
HETATM    4  C   UNL     1     -11.953   7.764  72.035  1.00  0.00    -0.308 C  
ENDROOT
BRANCH   2   5
HETATM    5  C   UNL     1     -13.632   9.070  70.680  1.00  0.00     0.549 C  
BRANCH   5   6
HETATM    6  C   UNL     1     -13.492  10.544  70.266  1.00  0.00     0.535 C  
BRANCH   6   7
HETATM    7  N   UNL     1     -12.292  11.162  70.880  1.00  0.00    -0.387 NA 
HETATM    8  C   UNL     1     -12.602  12.430  71.555  1.00  0.00    -0.144 C  
HETATM    9  C   UNL     1     -11.168  11.363  69.949  1.00  0.00    -0.143 C  
HETATM   10  C   UNL     1     -11.843  13.739  69.514  1.00  0.00    -0.339 C  
HETATM   11  C   UNL     1     -11.481  12.397  68.871  1.00  0.00    -0.355 C  
HETATM   12  C   UNL     1     -12.923  13.570  70.587  1.00  0.00    -0.096 C  
BRANCH  10  13
HETATM   13  O   UNL     1     -10.674  14.298  70.146  1.00  0.00     0.099 OA 
BRANCH  13  14
HETATM   14  C   UNL     1     -10.172  15.409  69.541  1.00  0.00    -0.270 C  
HETATM   15  H   UNL     1     -12.154  15.950  69.272  1.00  0.00     0.000 HD 
HETATM   16  O   UNL     1      -8.992  15.720  69.532  1.00  0.00    -0.260 OA 
HETATM   17  N   UNL     1     -11.197  16.089  68.948  1.00  0.00    -0.331 N  
BRANCH  17  18
HETATM   18  C   UNL     1     -10.936  16.982  67.888  1.00  0.00    -0.226 A  
HETATM   19  C   UNL     1     -10.887  16.543  66.546  1.00  0.00    -0.046 A  
HETATM   20  C   UNL     1     -10.508  19.283  67.253  1.00  0.00    -0.566 A  
HETATM   21  C   UNL     1     -10.647  17.547  65.580  1.00  0.00    -0.144 A  
HETATM   22  C   UNL     1     -10.474  18.894  65.923  1.00  0.00    -0.450 A  
HETATM   23  C   UNL     1     -10.729  18.328  68.236  1.00  0.00    -0.146 A  
BRANCH  19  24
HETATM   24  C   UNL     1     -11.091  15.131  66.101  1.00  0.00    -0.311 A  
HETATM   25  C   UNL     1     -12.365  14.588  65.854  1.00  0.00    -0.238 A  
HETATM   26  C   UNL     1     -12.539  13.255  65.455  1.00  0.00    -0.505 A  
HETATM   27  C   UNL     1     -11.441  12.415  65.327  1.00  0.00    -0.389 A  
HETATM   28  C   UNL     1     -10.167  12.913  65.573  1.00  0.00    -0.299 A  
HETATM   29  C   UNL     1      -9.997  14.254  65.938  1.00  0.00    -0.340 A  
ENDBRANCH  19  24
ENDBRANCH  17  18
ENDBRANCH  13  14
ENDBRANCH  10  13
ENDBRANCH   6   7
ENDBRANCH   5   6
ENDBRANCH   2   5
BRANCH   4  30
HETATM   30  C   UNL     1     -11.140   7.442  70.814  1.00  0.00    -0.285 A  
HETATM   31  C   UNL     1     -10.006   8.227  70.556  1.00  0.00    -0.198 A  
HETATM   32  C   UNL     1     -11.447   6.409  69.925  1.00  0.00    -0.483 A  
HETATM   33  C   UNL     1     -10.561   6.055  68.907  1.00  0.00    -0.356 A  
HETATM   34  C   UNL     1      -9.149   7.917  69.493  1.00  0.00    -0.149 A  
HETATM   35  C   UNL     1      -9.400   6.803  68.683  1.00  0.00    -0.131 A  
BRANCH  35  36
HETATM   36  C   UNL     1      -8.463   6.421  67.556  1.00  0.00    -0.116 C  
BRANCH  36  37
HETATM   37  N   UNL     1      -9.011   5.358  66.699  1.00  0.00    -0.114 NA 
HETATM   38  C   UNL     1      -8.474   4.036  67.033  1.00  0.00    -0.100 C  
HETATM   39  C   UNL     1      -8.874   5.638  65.261  1.00  0.00    -0.076 C  
HETATM   40  C   UNL     1      -7.443   5.483  64.739  1.00  0.00    -0.071 C  
HETATM   41  C   UNL     1      -7.026   3.826  66.580  1.00  0.00    -0.059 C  
HETATM   42  C   UNL     1      -6.859   4.108  65.082  1.00  0.00    -0.053 C  
BRANCH  42  43
HETATM   43  C   UNL     1      -7.481   3.009  64.220  1.00  0.00    -0.071 C  
HETATM   44  N   UNL     1      -7.570   3.284  62.889  1.00  0.00    -0.054 N  
HETATM   45  H2  UNL     1      -7.243   4.165  62.493  1.00  0.00     0.000 HD 
HETATM   46  O   UNL     1      -7.919   1.947  64.652  1.00  0.00    -0.068 OA 
HETATM   47  H1  UNL     1      -7.985   2.551  62.314  1.00  0.00     0.000 HD 
ENDBRANCH  42  43
ENDBRANCH  36  37
ENDBRANCH  35  36
ENDBRANCH   4  30
TORSDOF 11
ENDMDL
MODEL      112
REMARK 921   NORMALIZED FREE ENERGY PREDICTED BY IDOCK:   -4.96 KCAL/MOL
REMARK 922        TOTAL FREE ENERGY PREDICTED BY IDOCK:   -9.79 KCAL/MOL
REMARK 923 INTER-LIGAND FREE ENERGY PREDICTED BY IDOCK:   -9.06 KCAL/MOL
REMARK 924 INTRA-LIGAND FREE ENERGY PREDICTED BY IDOCK:   -0.72 KCAL/MOL
REMARK 927      BINDING AFFINITY PREDICTED BY RF-SCORE:    0.00 PKD
ROOT
HETATM    1  C   UNL     1     -11.546  13.196  63.573  1.00  0.00    -0.338 C  
HETATM    2  N   UNL     1     -10.988  12.531  64.742  1.00  0.00    -0.292 N  
HETATM    3  O   UNL     1     -10.544  10.688  63.422  1.00  0.00    -0.067 OA 
HETATM    4  C   UNL     1     -10.457  11.240  64.521  1.00  0.00    -0.334 C  
ENDROOT
BRANCH   2   5
HETATM    5  C   UNL     1     -10.718  13.292  65.963  1.00  0.00    -0.277 C  
BRANCH   5   6
HETATM    6  C   UNL     1     -11.496  13.022  67.262  1.00  0.00    -0.332 C  
BRANCH   6   7
HETATM    7  N   UNL     1     -10.601  13.079  68.443  1.00  0.00    -0.246 NA 
HETATM    8  C   UNL     1     -10.915  14.212  69.325  1.00  0.00    -0.220 C  
HETATM    9  C   UNL     1      -9.165  13.093  68.117  1.00  0.00    -0.215 C  
HETATM   10  C   UNL     1      -9.071  15.596  68.256  1.00  0.00    -0.187 C  
HETATM   11  C   UNL     1      -8.741  14.370  67.398  1.00  0.00    -0.214 C  
HETATM   12  C   UNL     1     -10.527  15.568  68.732  1.00  0.00    -0.234 C  
BRANCH  10  13
HETATM   13  O   UNL     1      -8.224  15.605  69.423  1.00  0.00    -0.240 OA 
BRANCH  13  14
HETATM   14  C   UNL     1      -7.202  16.502  69.381  1.00  0.00    -0.151 C  
HETATM   15  H   UNL     1      -8.554  17.825  70.227  1.00  0.00     0.000 HD 
HETATM   16  O   UNL     1      -6.048  16.226  69.093  1.00  0.00    -0.138 OA 
HETATM   17  N   UNL     1      -7.688  17.739  69.695  1.00  0.00     0.476 N  
BRANCH  17  18
HETATM   18  C   UNL     1      -6.996  18.898  69.287  1.00  0.00    -0.239 A  
HETATM   19  C   UNL     1      -7.435  19.674  68.191  1.00  0.00    -0.339 A  
HETATM   20  C   UNL     1      -5.133  20.390  69.721  1.00  0.00    -0.284 A  
HETATM   21  C   UNL     1      -6.668  20.826  67.908  1.00  0.00    -0.347 A  
HETATM   22  C   UNL     1      -5.546  21.187  68.665  1.00  0.00    -0.327 A  
HETATM   23  C   UNL     1      -5.851  19.241  70.026  1.00  0.00    -0.285 A  
BRANCH  19  24
HETATM   24  C   UNL     1      -8.638  19.370  67.356  1.00  0.00    -0.333 A  
HETATM   25  C   UNL     1      -8.708  18.254  66.502  1.00  0.00    -0.290 A  
HETATM   26  C   UNL     1      -9.836  17.995  65.711  1.00  0.00     0.110 A  
HETATM   27  C   UNL     1     -10.916  18.868  65.726  1.00  0.00    -0.004 A  
HETATM   28  C   UNL     1     -10.877  19.987  66.549  1.00  0.00    -0.214 A  
HETATM   29  C   UNL     1      -9.762  20.223  67.361  1.00  0.00    -0.584 A  
ENDBRANCH  19  24
ENDBRANCH  17  18
ENDBRANCH  13  14
ENDBRANCH  10  13
ENDBRANCH   6   7
ENDBRANCH   5   6
ENDBRANCH   2   5
BRANCH   4  30
HETATM   30  C   UNL     1      -9.677  10.526  65.586  1.00  0.00    -0.289 A  
HETATM   31  C   UNL     1      -8.277  10.599  65.533  1.00  0.00    -0.141 A  
HETATM   32  C   UNL     1     -10.264   9.796  66.623  1.00  0.00    -0.296 A  
HETATM   33  C   UNL     1      -9.491   9.299  67.674  1.00  0.00    -0.156 A  
HETATM   34  C   UNL     1      -7.493  10.042  66.551  1.00  0.00    -0.105 A  
HETATM   35  C   UNL     1      -8.097   9.421  67.650  1.00  0.00    -0.106 A  
BRANCH  35  36
HETATM   36  C   UNL     1      -7.272   8.851  68.786  1.00  0.00    -0.075 C  
BRANCH  36  37
HETATM   37  N   UNL     1      -7.609   9.450  70.087  1.00  0.00    -0.111 NA 
HETATM   38  C   UNL     1      -6.584   9.194  71.104  1.00  0.00    -0.088 C  
HETATM   39  C   UNL     1      -8.944   9.073  70.575  1.00  0.00    -0.213 C  
HETATM   40  C   UNL     1      -9.029   7.632  71.084  1.00  0.00    -0.143 C  
HETATM   41  C   UNL     1      -6.580   7.755  71.626  1.00  0.00    -0.042 C  
HETATM   42  C   UNL     1      -7.962   7.341  72.146  1.00  0.00    -0.098 C  
BRANCH  42  43
HETATM   43  C   UNL     1      -8.300   8.017  73.474  1.00  0.00    -0.233 C  
HETATM   44  N   UNL     1      -9.441   7.586  74.081  1.00  0.00    -0.412 N  
HETATM   45  H2  UNL     1     -10.031   6.859  73.675  1.00  0.00     0.000 HD 
HETATM   46  O   UNL     1      -7.643   8.917  73.987  1.00  0.00    -0.409 OA 
HETATM   47  H1  UNL     1      -9.667   8.037  74.968  1.00  0.00     0.000 HD 
ENDBRANCH  42  43
ENDBRANCH  36  37
ENDBRANCH  35  36
ENDBRANCH   4  30
TORSDOF 11
ENDMDL
MODEL      113
REMARK 921   NORMALIZED FREE ENERGY PREDICTED BY IDOCK:   -4.93 KCAL/MOL
REMARK 922        TOTAL FREE ENERGY PREDICTED BY IDOCK:   -9.73 KCAL/MOL
REMARK 923 INTER-LIGAND FREE ENERGY PREDICTED BY IDOCK:   -9.06 KCAL/MOL
REMARK 924 INTRA-LIGAND FREE ENERGY PREDICTED BY IDOCK:   -0.68 KCAL/MOL
REMARK 927      BINDING AFFINITY PREDICTED BY RF-SCORE:    0.00 PKD
ROOT
HETATM    1  C   UNL     1     -10.032   3.334  63.857  1.00  0.00    -0.176 C  
HETATM    2  N   UNL     1      -9.959   3.509  65.299  1.00  0.00    -0.061 N  
HETATM    3  O   UNL     1      -8.741   1.551  65.428  1.00  0.00    -0.101 OA 
HETATM    4  C   UNL     1      -9.219   2.531  66.002  1.00  0.00    -0.037 C  
ENDROOT
BRANCH   2   5
HETATM    5  C   UNL     1     -10.356   4.780  65.908  1.00  0.00    -0.270 C  
BRANCH   5   6
HETATM    6  C   UNL     1      -9.337   5.907  66.144  1.00  0.00    -0.132 C  
BRANCH   6   7
HETATM    7  N   UNL     1      -9.607   6.614  67.419  1.00  0.00    -0.123 NA 
HETATM    8  C   UNL     1     -10.597   7.689  67.260  1.00  0.00    -0.318 C  
HETATM    9  C   UNL     1      -8.406   7.147  68.084  1.00  0.00    -0.124 C  
HETATM   10  C   UNL     1      -8.740   9.413  67.062  1.00  0.00    -0.127 C  
HETATM   11  C   UNL     1      -7.746   8.270  67.288  1.00  0.00    -0.101 C  
HETATM   12  C   UNL     1     -10.062   8.896  66.486  1.00  0.00    -0.356 C  
BRANCH  10  13
HETATM   13  O   UNL     1      -9.026  10.056  68.320  1.00  0.00    -0.118 OA 
BRANCH  13  14
HETATM   14  C   UNL     1      -9.789  11.179  68.228  1.00  0.00    -0.189 C  
HETATM   15  H   UNL     1      -8.515  11.714  66.685  1.00  0.00     0.000 HD 
HETATM   16  O   UNL     1     -10.836  11.356  68.830  1.00  0.00    -0.196 OA 
HETATM   17  N   UNL     1      -9.183  12.056  67.375  1.00  0.00    -0.175 N  
BRANCH  17  18
HETATM   18  C   UNL     1      -9.477  13.433  67.447  1.00  0.00    -0.222 A  
HETATM   19  C   UNL     1     -10.336  14.055  66.514  1.00  0.00    -0.285 A  
HETATM   20  C   UNL     1      -9.143  15.503  68.665  1.00  0.00    -0.202 A  
HETATM   21  C   UNL     1     -10.570  15.433  66.719  1.00  0.00    -0.309 A  
HETATM   22  C   UNL     1      -9.997  16.144  67.781  1.00  0.00    -0.237 A  
HETATM   23  C   UNL     1      -8.874  14.152  68.494  1.00  0.00    -0.173 A  
BRANCH  19  24
HETATM   24  C   UNL     1     -11.008  13.359  65.373  1.00  0.00    -0.297 A  
HETATM   25  C   UNL     1     -12.404  13.204  65.293  1.00  0.00    -0.532 A  
HETATM   26  C   UNL     1     -13.015  12.531  64.227  1.00  0.00    -0.253 A  
HETATM   27  C   UNL     1     -12.241  11.961  63.224  1.00  0.00    -0.487 A  
HETATM   28  C   UNL     1     -10.858  12.084  63.276  1.00  0.00    -0.400 A  
HETATM   29  C   UNL     1     -10.255  12.786  64.326  1.00  0.00    -0.352 A  
ENDBRANCH  19  24
ENDBRANCH  17  18
ENDBRANCH  13  14
ENDBRANCH  10  13
ENDBRANCH   6   7
ENDBRANCH   5   6
ENDBRANCH   2   5
BRANCH   4  30
HETATM   30  C   UNL     1      -8.898   2.696  67.459  1.00  0.00    -0.165 A  
HETATM   31  C   UNL     1      -9.515   1.824  68.369  1.00  0.00    -0.239 A  
HETATM   32  C   UNL     1      -8.022   3.664  67.959  1.00  0.00    -0.076 A  
HETATM   33  C   UNL     1      -7.637   3.655  69.299  1.00  0.00    -0.052 A  
HETATM   34  C   UNL     1      -9.182   1.857  69.729  1.00  0.00    -0.168 A  
HETATM   35  C   UNL     1      -8.210   2.749  70.198  1.00  0.00    -0.065 A  
BRANCH  35  36
HETATM   36  C   UNL     1      -7.801   2.773  71.657  1.00  0.00    -0.048 C  
BRANCH  36  37
HETATM   37  N   UNL     1      -8.892   3.202  72.545  1.00  0.00    -0.083 NA 
HETATM   38  C   UNL     1     -10.008   3.805  71.811  1.00  0.00    -0.157 C  
HETATM   39  C   UNL     1      -8.444   4.076  73.640  1.00  0.00    -0.092 C  
HETATM   40  C   UNL     1      -8.095   5.497  73.187  1.00  0.00    -0.115 C  
HETATM   41  C   UNL     1      -9.713   5.213  71.287  1.00  0.00    -0.228 C  
HETATM   42  C   UNL     1      -9.248   6.146  72.412  1.00  0.00    -0.139 C  
BRANCH  42  43
HETATM   43  C   UNL     1     -10.396   6.534  73.344  1.00  0.00    -0.260 C  
HETATM   44  N   UNL     1     -11.573   6.843  72.731  1.00  0.00    -0.489 N  
HETATM   45  H2  UNL     1     -11.681   6.817  71.717  1.00  0.00     0.000 HD 
HETATM   46  O   UNL     1     -10.308   6.613  74.565  1.00  0.00    -0.328 OA 
HETATM   47  H1  UNL     1     -12.340   7.102  73.353  1.00  0.00     0.000 HD 
ENDBRANCH  42  43
ENDBRANCH  36  37
ENDBRANCH  35  36
ENDBRANCH   4  30
TORSDOF 11
ENDMDL
MODEL      114
REMARK 921   NORMALIZED FREE ENERGY PREDICTED BY IDOCK:   -4.93 KCAL/MOL
REMARK 922        TOTAL FREE ENERGY PREDICTED BY IDOCK:   -9.73 KCAL/MOL
REMARK 923 INTER-LIGAND FREE ENERGY PREDICTED BY IDOCK:  -10.16 KCAL/MOL
REMARK 924 INTRA-LIGAND FREE ENERGY PREDICTED BY IDOCK:    0.43 KCAL/MOL
REMARK 927      BINDING AFFINITY PREDICTED BY RF-SCORE:    0.00 PKD
ROOT
HETATM    1  C   UNL     1     -12.910  11.930  64.189  1.00  0.00    -0.091 C  
HETATM    2  N   UNL     1     -11.852  12.563  64.962  1.00  0.00    -0.377 N  
HETATM    3  O   UNL     1     -12.713  14.621  64.364  1.00  0.00    -0.636 OA 
HETATM    4  C   UNL     1     -11.885  13.975  65.010  1.00  0.00    -0.378 C  
ENDROOT
BRANCH   2   5
HETATM    5  C   UNL     1     -11.026  11.766  65.871  1.00  0.00    -0.304 C  
BRANCH   5   6
HETATM    6  C   UNL     1      -9.572  11.408  65.525  1.00  0.00    -0.228 C  
BRANCH   6   7
HETATM    7  N   UNL     1      -8.692  11.533  66.713  1.00  0.00    -0.173 NA 
HETATM    8  C   UNL     1      -7.456  10.750  66.574  1.00  0.00    -0.139 C  
HETATM    9  C   UNL     1      -9.346  11.198  67.989  1.00  0.00    -0.166 C  
HETATM   10  C   UNL     1      -8.472   8.848  67.918  1.00  0.00    -0.125 C  
HETATM   11  C   UNL     1      -9.719   9.722  68.086  1.00  0.00    -0.163 C  
HETATM   12  C   UNL     1      -7.681   9.239  66.666  1.00  0.00    -0.093 C  
BRANCH  10  13
HETATM   13  O   UNL     1      -7.609   9.021  69.060  1.00  0.00    -0.076 OA 
BRANCH  13  14
HETATM   14  C   UNL     1      -8.131   8.594  70.241  1.00  0.00    -0.109 C  
HETATM   15  H   UNL     1      -8.335   6.762  69.296  1.00  0.00     0.000 HD 
HETATM   16  O   UNL     1      -8.130   9.244  71.275  1.00  0.00    -0.320 OA 
HETATM   17  N   UNL     1      -8.658   7.347  70.066  1.00  0.00    -0.138 N  
BRANCH  17  18
HETATM   18  C   UNL     1      -9.647   6.864  70.948  1.00  0.00    -0.164 A  
HETATM   19  C   UNL     1      -9.757   5.489  71.255  1.00  0.00    -0.215 A  
HETATM   20  C   UNL     1     -11.490   7.439  72.417  1.00  0.00    -0.343 A  
HETATM   21  C   UNL     1     -10.772   5.146  72.176  1.00  0.00    -0.252 A  
HETATM   22  C   UNL     1     -11.615   6.102  72.758  1.00  0.00    -0.171 A  
HETATM   23  C   UNL     1     -10.514   7.820  71.505  1.00  0.00    -0.239 A  
BRANCH  19  24
HETATM   24  C   UNL     1      -8.878   4.416  70.699  1.00  0.00    -0.139 A  
HETATM   25  C   UNL     1      -9.329   3.479  69.751  1.00  0.00    -0.244 A  
HETATM   26  C   UNL     1      -8.496   2.467  69.255  1.00  0.00    -0.095 A  
HETATM   27  C   UNL     1      -7.193   2.343  69.720  1.00  0.00    -0.043 A  
HETATM   28  C   UNL     1      -6.716   3.244  70.664  1.00  0.00    -0.033 A  
HETATM   29  C   UNL     1      -7.542   4.272  71.132  1.00  0.00    -0.066 A  
ENDBRANCH  19  24
ENDBRANCH  17  18
ENDBRANCH  13  14
ENDBRANCH  10  13
ENDBRANCH   6   7
ENDBRANCH   5   6
ENDBRANCH   2   5
BRANCH   4  30
HETATM   30  C   UNL     1     -10.979  14.745  65.926  1.00  0.00    -0.335 A  
HETATM   31  C   UNL     1     -11.524  15.246  67.118  1.00  0.00    -0.202 A  
HETATM   32  C   UNL     1      -9.629  14.990  65.661  1.00  0.00    -0.279 A  
HETATM   33  C   UNL     1      -8.803  15.563  66.628  1.00  0.00    -0.325 A  
HETATM   34  C   UNL     1     -10.712  15.883  68.064  1.00  0.00    -0.301 A  
HETATM   35  C   UNL     1      -9.336  16.013  67.841  1.00  0.00    -0.208 A  
BRANCH  35  36
HETATM   36  C   UNL     1      -8.429  16.658  68.869  1.00  0.00    -0.233 C  
BRANCH  36  37
HETATM   37  N   UNL     1      -8.420  18.126  68.774  1.00  0.00    -0.258 NA 
HETATM   38  C   UNL     1      -9.060  18.613  67.548  1.00  0.00    -0.280 C  
HETATM   39  C   UNL     1      -7.082  18.714  68.942  1.00  0.00    -0.293 C  
HETATM   40  C   UNL     1      -6.166  18.513  67.732  1.00  0.00    -0.189 C  
HETATM   41  C   UNL     1      -8.217  18.402  66.288  1.00  0.00    -0.245 C  
HETATM   42  C   UNL     1      -6.818  19.011  66.437  1.00  0.00    -0.229 C  
BRANCH  42  43
HETATM   43  C   UNL     1      -6.850  20.539  66.382  1.00  0.00    -0.252 C  
HETATM   44  N   UNL     1      -6.546  21.091  65.174  1.00  0.00    -0.503 N  
HETATM   45  H2  UNL     1      -6.312  20.522  64.360  1.00  0.00     0.000 HD 
HETATM   46  O   UNL     1      -7.093  21.267  67.339  1.00  0.00    -0.512 OA 
HETATM   47  H1  UNL     1      -6.568  22.110  65.137  1.00  0.00     0.000 HD 
ENDBRANCH  42  43
ENDBRANCH  36  37
ENDBRANCH  35  36
ENDBRANCH   4  30
TORSDOF 11
ENDMDL
MODEL      115
REMARK 921   NORMALIZED FREE ENERGY PREDICTED BY IDOCK:   -4.92 KCAL/MOL
REMARK 922        TOTAL FREE ENERGY PREDICTED BY IDOCK:   -9.72 KCAL/MOL
REMARK 923 INTER-LIGAND FREE ENERGY PREDICTED BY IDOCK:   -9.66 KCAL/MOL
REMARK 924 INTRA-LIGAND FREE ENERGY PREDICTED BY IDOCK:   -0.06 KCAL/MOL
REMARK 927      BINDING AFFINITY PREDICTED BY RF-SCORE:    0.00 PKD
ROOT
HETATM    1  C   UNL     1     -12.585  10.551  69.743  1.00  0.00     0.029 C  
HETATM    2  N   UNL     1     -11.797   9.497  70.364  1.00  0.00    -0.183 N  
HETATM    3  O   UNL     1     -13.426   9.304  71.990  1.00  0.00    -0.391 OA 
HETATM    4  C   UNL     1     -12.367   8.896  71.509  1.00  0.00    -0.324 C  
ENDROOT
BRANCH   2   5
HETATM    5  C   UNL     1     -10.662   8.909  69.651  1.00  0.00    -0.217 C  
BRANCH   5   6
HETATM    6  C   UNL     1     -10.625   8.848  68.116  1.00  0.00    -0.157 C  
BRANCH   6   7
HETATM    7  N   UNL     1      -9.497   9.644  67.575  1.00  0.00    -0.133 NA 
HETATM    8  C   UNL     1      -9.268  10.877  68.343  1.00  0.00    -0.168 C  
HETATM    9  C   UNL     1      -9.614   9.971  66.144  1.00  0.00    -0.210 C  
HETATM   10  C   UNL     1     -10.610  12.217  66.650  1.00  0.00    -0.235 C  
HETATM   11  C   UNL     1     -10.774  10.918  65.854  1.00  0.00    -0.193 C  
HETATM   12  C   UNL     1     -10.357  11.932  68.134  1.00  0.00    -0.210 C  
BRANCH  10  13
HETATM   13  O   UNL     1      -9.479  12.951  66.141  1.00  0.00    -0.236 OA 
BRANCH  13  14
HETATM   14  C   UNL     1      -9.108  14.023  66.893  1.00  0.00    -0.248 C  
HETATM   15  H   UNL     1     -11.137  14.418  67.027  1.00  0.00     0.000 HD 
HETATM   16  O   UNL     1      -7.973  14.229  67.292  1.00  0.00    -0.192 OA 
HETATM   17  N   UNL     1     -10.200  14.814  67.104  1.00  0.00    -0.244 N  
BRANCH  17  18
HETATM   18  C   UNL     1     -10.038  16.176  67.428  1.00  0.00    -0.257 A  
HETATM   19  C   UNL     1     -10.474  16.699  68.666  1.00  0.00    -0.323 A  
HETATM   20  C   UNL     1      -9.178  18.329  66.712  1.00  0.00    -0.288 A  
HETATM   21  C   UNL     1     -10.222  18.074  68.875  1.00  0.00    -0.320 A  
HETATM   22  C   UNL     1      -9.574  18.873  67.924  1.00  0.00    -0.361 A  
HETATM   23  C   UNL     1      -9.418  16.984  66.459  1.00  0.00    -0.295 A  
BRANCH  19  24
HETATM   24  C   UNL     1     -11.145  15.905  69.741  1.00  0.00    -0.324 A  
HETATM   25  C   UNL     1     -12.044  14.859  69.464  1.00  0.00    -0.315 A  
HETATM   26  C   UNL     1     -12.679  14.137  70.485  1.00  0.00    -0.374 A  
HETATM   27  C   UNL     1     -12.457  14.467  71.816  1.00  0.00    -0.414 A  
HETATM   28  C   UNL     1     -11.584  15.502  72.127  1.00  0.00    -0.552 A  
HETATM   29  C   UNL     1     -10.928  16.197  71.104  1.00  0.00     0.055 A  
ENDBRANCH  19  24
ENDBRANCH  17  18
ENDBRANCH  13  14
ENDBRANCH  10  13
ENDBRANCH   6   7
ENDBRANCH   5   6
ENDBRANCH   2   5
BRANCH   4  30
HETATM   30  C   UNL     1     -11.760   7.671  72.129  1.00  0.00    -0.355 A  
HETATM   31  C   UNL     1     -10.725   7.851  73.059  1.00  0.00    -0.408 A  
HETATM   32  C   UNL     1     -12.166   6.366  71.834  1.00  0.00    -0.332 A  
HETATM   33  C   UNL     1     -11.680   5.284  72.567  1.00  0.00    -0.112 A  
HETATM   34  C   UNL     1     -10.186   6.758  73.749  1.00  0.00    -0.378 A  
HETATM   35  C   UNL     1     -10.687   5.469  73.535  1.00  0.00    -0.322 A  
BRANCH  35  36
HETATM   36  C   UNL     1     -10.150   4.278  74.302  1.00  0.00    -0.191 C  
BRANCH  36  37
HETATM   37  N   UNL     1      -9.312   3.400  73.471  1.00  0.00    -0.099 NA 
HETATM   38  C   UNL     1      -8.210   2.796  74.228  1.00  0.00    -0.068 C  
HETATM   39  C   UNL     1      -8.820   4.050  72.247  1.00  0.00    -0.106 C  
HETATM   40  C   UNL     1      -7.707   5.071  72.498  1.00  0.00    -0.097 C  
HETATM   41  C   UNL     1      -7.079   3.775  74.556  1.00  0.00    -0.053 C  
HETATM   42  C   UNL     1      -6.546   4.463  73.293  1.00  0.00    -0.052 C  
BRANCH  42  43
HETATM   43  C   UNL     1      -5.719   3.511  72.429  1.00  0.00    -0.008 C  
HETATM   44  N   UNL     1      -5.376   3.981  71.197  1.00  0.00    -0.004 N  
HETATM   45  H2  UNL     1      -5.652   4.908  70.874  1.00  0.00     0.000 HD 
HETATM   46  O   UNL     1      -5.391   2.376  72.759  1.00  0.00     0.000 OA 
HETATM   47  H1  UNL     1      -4.824   3.346  70.621  1.00  0.00     0.000 HD 
ENDBRANCH  42  43
ENDBRANCH  36  37
ENDBRANCH  35  36
ENDBRANCH   4  30
TORSDOF 11
ENDMDL
MODEL      116
REMARK 921   NORMALIZED FREE ENERGY PREDICTED BY IDOCK:   -4.90 KCAL/MOL
REMARK 922        TOTAL FREE ENERGY PREDICTED BY IDOCK:   -9.69 KCAL/MOL
REMARK 923 INTER-LIGAND FREE ENERGY PREDICTED BY IDOCK:   -9.05 KCAL/MOL
REMARK 924 INTRA-LIGAND FREE ENERGY PREDICTED BY IDOCK:   -0.64 KCAL/MOL
REMARK 927      BINDING AFFINITY PREDICTED BY RF-SCORE:    0.00 PKD
ROOT
HETATM    1  C   UNL     1     -10.312   6.131  74.125  1.00  0.00    -0.294 C  
HETATM    2  N   UNL     1      -9.895   5.576  72.846  1.00  0.00    -0.162 N  
HETATM    3  O   UNL     1      -8.516   4.114  73.984  1.00  0.00    -0.094 OA 
HETATM    4  C   UNL     1      -8.985   4.497  72.910  1.00  0.00    -0.118 C  
ENDROOT
BRANCH   2   5
HETATM    5  C   UNL     1     -10.625   5.915  71.623  1.00  0.00    -0.241 C  
BRANCH   5   6
HETATM    6  C   UNL     1      -9.926   6.604  70.439  1.00  0.00    -0.175 C  
BRANCH   6   7
HETATM    7  N   UNL     1     -10.828   7.577  69.778  1.00  0.00    -0.245 NA 
HETATM    8  C   UNL     1     -10.409   7.878  68.401  1.00  0.00    -0.199 C  
HETATM    9  C   UNL     1     -11.014   8.835  70.521  1.00  0.00    -0.239 C  
HETATM   10  C   UNL     1      -9.228   9.986  69.187  1.00  0.00    -0.190 C  
HETATM   11  C   UNL     1      -9.734   9.663  70.597  1.00  0.00    -0.239 C  
HETATM   12  C   UNL     1      -9.136   8.723  68.325  1.00  0.00    -0.141 C  
BRANCH  10  13
HETATM   13  O   UNL     1     -10.144  10.895  68.545  1.00  0.00    -0.169 OA 
BRANCH  13  14
HETATM   14  C   UNL     1      -9.768  12.202  68.575  1.00  0.00    -0.149 C  
HETATM   15  H   UNL     1     -11.744  12.583  69.065  1.00  0.00     0.000 HD 
HETATM   16  O   UNL     1      -8.614  12.593  68.501  1.00  0.00    -0.146 OA 
HETATM   17  N   UNL     1     -10.884  12.980  68.687  1.00  0.00    -0.254 N  
BRANCH  17  18
HETATM   18  C   UNL     1     -10.852  14.329  68.280  1.00  0.00    -0.246 A  
HETATM   19  C   UNL     1     -11.330  15.365  69.114  1.00  0.00    -0.323 A  
HETATM   20  C   UNL     1     -10.209  15.894  66.541  1.00  0.00    -0.297 A  
HETATM   21  C   UNL     1     -11.210  16.675  68.596  1.00  0.00    -0.235 A  
HETATM   22  C   UNL     1     -10.649  16.939  67.340  1.00  0.00    -0.294 A  
HETATM   23  C   UNL     1     -10.319  14.590  67.005  1.00  0.00    -0.263 A  
BRANCH  19  24
HETATM   24  C   UNL     1     -11.913  15.165  70.476  1.00  0.00    -0.371 A  
HETATM   25  C   UNL     1     -11.214  15.476  71.656  1.00  0.00    -0.388 A  
HETATM   26  C   UNL     1     -11.769  15.264  72.925  1.00  0.00    -0.478 A  
HETATM   27  C   UNL     1     -13.032  14.700  73.050  1.00  0.00    -0.610 A  
HETATM   28  C   UNL     1     -13.748  14.369  71.906  1.00  0.00    -0.518 A  
HETATM   29  C   UNL     1     -13.202  14.614  70.641  1.00  0.00    -0.259 A  
ENDBRANCH  19  24
ENDBRANCH  17  18
ENDBRANCH  13  14
ENDBRANCH  10  13
ENDBRANCH   6   7
ENDBRANCH   5   6
ENDBRANCH   2   5
BRANCH   4  30
HETATM   30  C   UNL     1      -8.627   3.706  71.686  1.00  0.00    -0.114 A  
HETATM   31  C   UNL     1      -9.647   2.974  71.057  1.00  0.00    -0.224 A  
HETATM   32  C   UNL     1      -7.343   3.657  71.137  1.00  0.00    -0.033 A  
HETATM   33  C   UNL     1      -7.114   3.042  69.906  1.00  0.00    -0.041 A  
HETATM   34  C   UNL     1      -9.405   2.298  69.855  1.00  0.00    -0.171 A  
HETATM   35  C   UNL     1      -8.144   2.359  69.250  1.00  0.00    -0.060 A  
BRANCH  35  36
HETATM   36  C   UNL     1      -7.870   1.674  67.927  1.00  0.00    -0.058 C  
BRANCH  36  37
HETATM   37  N   UNL     1      -7.274   2.579  66.932  1.00  0.00    -0.056 NA 
HETATM   38  C   UNL     1      -7.549   3.990  67.222  1.00  0.00    -0.073 C  
HETATM   39  C   UNL     1      -7.636   2.243  65.547  1.00  0.00    -0.072 C  
HETATM   40  C   UNL     1      -9.079   2.604  65.184  1.00  0.00    -0.140 C  
HETATM   41  C   UNL     1      -8.991   4.410  66.926  1.00  0.00    -0.122 C  
HETATM   42  C   UNL     1      -9.390   4.075  65.484  1.00  0.00    -0.159 C  
BRANCH  42  43
HETATM   43  C   UNL     1      -8.717   5.003  64.473  1.00  0.00    -0.132 C  
HETATM   44  N   UNL     1      -8.838   4.637  63.166  1.00  0.00    -0.134 N  
HETATM   45  H2  UNL     1      -9.344   3.799  62.881  1.00  0.00     0.000 HD 
HETATM   46  O   UNL     1      -8.069   6.002  64.766  1.00  0.00    -0.125 OA 
HETATM   47  H1  UNL     1      -8.389   5.257  62.491  1.00  0.00     0.000 HD 
ENDBRANCH  42  43
ENDBRANCH  36  37
ENDBRANCH  35  36
ENDBRANCH   4  30
TORSDOF 11
ENDMDL
MODEL      117
REMARK 921   NORMALIZED FREE ENERGY PREDICTED BY IDOCK:   -4.89 KCAL/MOL
REMARK 922        TOTAL FREE ENERGY PREDICTED BY IDOCK:   -9.67 KCAL/MOL
REMARK 923 INTER-LIGAND FREE ENERGY PREDICTED BY IDOCK:   -7.41 KCAL/MOL
REMARK 924 INTRA-LIGAND FREE ENERGY PREDICTED BY IDOCK:   -2.26 KCAL/MOL
REMARK 927      BINDING AFFINITY PREDICTED BY RF-SCORE:    0.00 PKD
ROOT
HETATM    1  C   UNL     1      -6.838  18.339  65.627  1.00  0.00    -0.228 C  
HETATM    2  N   UNL     1      -7.552  17.743  66.746  1.00  0.00    -0.202 N  
HETATM    3  O   UNL     1      -9.517  18.597  65.883  1.00  0.00    -0.477 OA 
HETATM    4  C   UNL     1      -8.955  17.913  66.742  1.00  0.00    -0.261 C  
ENDROOT
BRANCH   2   5
HETATM    5  C   UNL     1      -6.881  16.777  67.617  1.00  0.00    -0.137 C  
BRANCH   5   6
HETATM    6  C   UNL     1      -6.578  15.346  67.142  1.00  0.00     0.125 C  
BRANCH   6   7
HETATM    7  N   UNL     1      -6.770  14.366  68.238  1.00  0.00    -0.101 NA 
HETATM    8  C   UNL     1      -6.042  13.113  67.997  1.00  0.00    -0.118 C  
HETATM    9  C   UNL     1      -8.179  14.065  68.543  1.00  0.00    -0.136 C  
HETATM   10  C   UNL     1      -8.149  12.027  67.082  1.00  0.00    -0.177 C  
HETATM   11  C   UNL     1      -8.881  13.334  67.403  1.00  0.00    -0.204 C  
HETATM   12  C   UNL     1      -6.649  12.263  66.879  1.00  0.00     0.060 C  
BRANCH  10  13
HETATM   13  O   UNL     1      -8.308  11.106  68.180  1.00  0.00    -0.124 OA 
BRANCH  13  14
HETATM   14  C   UNL     1      -9.204  10.106  67.963  1.00  0.00    -0.138 C  
HETATM   15  H   UNL     1      -7.885   8.921  69.034  1.00  0.00     0.000 HD 
HETATM   16  O   UNL     1     -10.314  10.263  67.479  1.00  0.00    -0.200 OA 
HETATM   17  N   UNL     1      -8.650   8.923  68.360  1.00  0.00    -0.133 N  
BRANCH  17  18
HETATM   18  C   UNL     1      -9.132   7.704  67.840  1.00  0.00    -0.134 A  
HETATM   19  C   UNL     1     -10.021   6.887  68.573  1.00  0.00    -0.149 A  
HETATM   20  C   UNL     1      -9.141   6.184  65.950  1.00  0.00    -0.101 A  
HETATM   21  C   UNL     1     -10.450   5.709  67.923  1.00  0.00    -0.274 A  
HETATM   22  C   UNL     1     -10.031   5.367  66.630  1.00  0.00    -0.220 A  
HETATM   23  C   UNL     1      -8.684   7.346  66.556  1.00  0.00    -0.149 A  
BRANCH  19  24
HETATM   24  C   UNL     1     -10.535   7.198  69.942  1.00  0.00    -0.237 A  
HETATM   25  C   UNL     1      -9.779   7.903  70.897  1.00  0.00    -0.177 A  
HETATM   26  C   UNL     1     -10.270   8.169  72.182  1.00  0.00    -0.330 A  
HETATM   27  C   UNL     1     -11.523   7.705  72.562  1.00  0.00    -0.405 A  
HETATM   28  C   UNL     1     -12.294   6.996  71.649  1.00  0.00    -0.407 A  
HETATM   29  C   UNL     1     -11.812   6.762  70.356  1.00  0.00    -0.395 A  
ENDBRANCH  19  24
ENDBRANCH  17  18
ENDBRANCH  13  14
ENDBRANCH  10  13
ENDBRANCH   6   7
ENDBRANCH   5   6
ENDBRANCH   2   5
BRANCH   4  30
HETATM   30  C   UNL     1      -9.830  17.188  67.722  1.00  0.00    -0.274 A  
HETATM   31  C   UNL     1      -9.572  17.368  69.089  1.00  0.00    -0.069 A  
HETATM   32  C   UNL     1     -10.884  16.348  67.352  1.00  0.00    -0.219 A  
HETATM   33  C   UNL     1     -11.762  15.839  68.309  1.00  0.00    -0.229 A  
HETATM   34  C   UNL     1     -10.412  16.802  70.056  1.00  0.00     0.046 A  
HETATM   35  C   UNL     1     -11.538  16.064  69.671  1.00  0.00    -0.299 A  
BRANCH  35  36
HETATM   36  C   UNL     1     -12.487  15.481  70.698  1.00  0.00    -0.435 C  
BRANCH  36  37
HETATM   37  N   UNL     1     -13.213  14.304  70.194  1.00  0.00     0.178 NA 
HETATM   38  C   UNL     1     -13.888  13.562  71.263  1.00  0.00     0.244 C  
HETATM   39  C   UNL     1     -12.380  13.411  69.374  1.00  0.00    -0.077 C  
HETATM   40  C   UNL     1     -11.375  12.590  70.187  1.00  0.00     0.170 C  
HETATM   41  C   UNL     1     -12.936  12.752  72.147  1.00  0.00    -0.344 C  
HETATM   42  C   UNL     1     -12.059  11.809  71.315  1.00  0.00     0.110 C  
BRANCH  42  43
HETATM   43  C   UNL     1     -12.855  10.623  70.767  1.00  0.00    -0.352 C  
HETATM   44  N   UNL     1     -12.470  10.173  69.541  1.00  0.00    -0.325 N  
HETATM   45  H2  UNL     1     -11.701  10.598  69.022  1.00  0.00     0.000 HD 
HETATM   46  O   UNL     1     -13.806  10.099  71.336  1.00  0.00    -0.106 OA 
HETATM   47  H1  UNL     1     -13.000   9.381  69.175  1.00  0.00     0.000 HD 
ENDBRANCH  42  43
ENDBRANCH  36  37
ENDBRANCH  35  36
ENDBRANCH   4  30
TORSDOF 11
ENDMDL
MODEL      118
REMARK 921   NORMALIZED FREE ENERGY PREDICTED BY IDOCK:   -4.89 KCAL/MOL
REMARK 922        TOTAL FREE ENERGY PREDICTED BY IDOCK:   -9.67 KCAL/MOL
REMARK 923 INTER-LIGAND FREE ENERGY PREDICTED BY IDOCK:   -8.16 KCAL/MOL
REMARK 924 INTRA-LIGAND FREE ENERGY PREDICTED BY IDOCK:   -1.50 KCAL/MOL
REMARK 927      BINDING AFFINITY PREDICTED BY RF-SCORE:    0.00 PKD
ROOT
HETATM    1  C   UNL     1     -11.298   4.877  73.026  1.00  0.00    -0.273 C  
HETATM    2  N   UNL     1     -11.013   6.090  72.275  1.00  0.00    -0.250 N  
HETATM    3  O   UNL     1     -13.277   6.310  71.867  1.00  0.00     0.010 OA 
HETATM    4  C   UNL     1     -12.139   6.771  71.756  1.00  0.00    -0.350 C  
ENDROOT
BRANCH   2   5
HETATM    5  C   UNL     1      -9.687   6.706  72.344  1.00  0.00    -0.154 C  
BRANCH   5   6
HETATM    6  C   UNL     1      -8.418   5.914  71.993  1.00  0.00    -0.125 C  
BRANCH   6   7
HETATM    7  N   UNL     1      -8.502   5.346  70.625  1.00  0.00    -0.117 NA 
HETATM    8  C   UNL     1      -7.321   4.541  70.283  1.00  0.00    -0.050 C  
HETATM    9  C   UNL     1      -8.741   6.343  69.568  1.00  0.00    -0.133 C  
HETATM   10  C   UNL     1      -6.291   6.515  69.058  1.00  0.00    -0.035 C  
HETATM   11  C   UNL     1      -7.566   7.299  69.389  1.00  0.00    -0.097 C  
HETATM   12  C   UNL     1      -6.060   5.379  70.059  1.00  0.00    -0.022 C  
BRANCH  10  13
HETATM   13  O   UNL     1      -6.414   5.932  67.746  1.00  0.00    -0.043 OA 
BRANCH  13  14
HETATM   14  C   UNL     1      -6.389   6.824  66.719  1.00  0.00    -0.042 C  
HETATM   15  H   UNL     1      -8.456   6.701  66.786  1.00  0.00     0.000 HD 
HETATM   16  O   UNL     1      -5.388   7.399  66.324  1.00  0.00    -0.023 OA 
HETATM   17  N   UNL     1      -7.651   6.947  66.211  1.00  0.00    -0.087 N  
BRANCH  17  18
HETATM   18  C   UNL     1      -7.843   7.414  64.895  1.00  0.00    -0.125 A  
HETATM   19  C   UNL     1      -7.971   6.524  63.805  1.00  0.00    -0.076 A  
HETATM   20  C   UNL     1      -8.132   9.355  63.468  1.00  0.00    -0.157 A  
HETATM   21  C   UNL     1      -8.190   7.124  62.545  1.00  0.00    -0.042 A  
HETATM   22  C   UNL     1      -8.283   8.512  62.378  1.00  0.00    -0.184 A  
HETATM   23  C   UNL     1      -7.902   8.808  64.724  1.00  0.00    -0.124 A  
BRANCH  19  24
HETATM   24  C   UNL     1      -7.913   5.034  63.908  1.00  0.00    -0.102 A  
HETATM   25  C   UNL     1      -6.701   4.323  63.987  1.00  0.00    -0.044 A  
HETATM   26  C   UNL     1      -6.665   2.924  64.063  1.00  0.00    -0.035 A  
HETATM   27  C   UNL     1      -7.845   2.192  64.027  1.00  0.00    -0.069 A  
HETATM   28  C   UNL     1      -9.060   2.859  63.938  1.00  0.00    -0.103 A  
HETATM   29  C   UNL     1      -9.092   4.257  63.896  1.00  0.00    -0.142 A  
ENDBRANCH  19  24
ENDBRANCH  17  18
ENDBRANCH  13  14
ENDBRANCH  10  13
ENDBRANCH   6   7
ENDBRANCH   5   6
ENDBRANCH   2   5
BRANCH   4  30
HETATM   30  C   UNL     1     -12.008   8.131  71.136  1.00  0.00    -0.296 A  
HETATM   31  C   UNL     1     -12.811   9.164  71.645  1.00  0.00    -0.431 A  
HETATM   32  C   UNL     1     -11.136   8.428  70.085  1.00  0.00    -0.183 A  
HETATM   33  C   UNL     1     -10.940   9.745  69.669  1.00  0.00    -0.269 A  
HETATM   34  C   UNL     1     -12.666  10.477  71.182  1.00  0.00    -0.518 A  
HETATM   35  C   UNL     1     -11.701  10.784  70.216  1.00  0.00    -0.442 A  
BRANCH  35  36
HETATM   36  C   UNL     1     -11.494  12.205  69.732  1.00  0.00    -0.188 C  
BRANCH  36  37
HETATM   37  N   UNL     1     -10.780  12.267  68.447  1.00  0.00    -0.226 NA 
HETATM   38  C   UNL     1      -9.681  13.238  68.463  1.00  0.00    -0.145 C  
HETATM   39  C   UNL     1     -11.668  12.491  67.296  1.00  0.00    -0.362 C  
HETATM   40  C   UNL     1     -12.203  13.923  67.202  1.00  0.00    -0.353 C  
HETATM   41  C   UNL     1     -10.147  14.696  68.418  1.00  0.00    -0.237 C  
HETATM   42  C   UNL     1     -11.071  14.956  67.222  1.00  0.00    -0.336 C  
BRANCH  42  43
HETATM   43  C   UNL     1     -10.305  14.967  65.899  1.00  0.00    -0.313 C  
HETATM   44  N   UNL     1      -8.948  15.034  66.005  1.00  0.00    -0.474 N  
HETATM   45  H2  UNL     1      -8.475  15.074  66.908  1.00  0.00     0.000 HD 
HETATM   46  O   UNL     1     -10.827  14.954  64.789  1.00  0.00    -0.394 OA 
HETATM   47  H1  UNL     1      -8.436  15.041  65.122  1.00  0.00     0.000 HD 
ENDBRANCH  42  43
ENDBRANCH  36  37
ENDBRANCH  35  36
ENDBRANCH   4  30
TORSDOF 11
ENDMDL
MODEL      119
REMARK 921   NORMALIZED FREE ENERGY PREDICTED BY IDOCK:   -4.89 KCAL/MOL
REMARK 922        TOTAL FREE ENERGY PREDICTED BY IDOCK:   -9.66 KCAL/MOL
REMARK 923 INTER-LIGAND FREE ENERGY PREDICTED BY IDOCK:   -6.30 KCAL/MOL
REMARK 924 INTRA-LIGAND FREE ENERGY PREDICTED BY IDOCK:   -3.36 KCAL/MOL
REMARK 927      BINDING AFFINITY PREDICTED BY RF-SCORE:    0.00 PKD
ROOT
HETATM    1  C   UNL     1     -10.928  16.343  68.124  1.00  0.00    -0.339 C  
HETATM    2  N   UNL     1     -10.669  14.928  67.905  1.00  0.00    -0.260 N  
HETATM    3  O   UNL     1     -11.263  14.529  70.102  1.00  0.00    -0.231 OA 
HETATM    4  C   UNL     1     -10.924  14.078  69.006  1.00  0.00    -0.259 C  
ENDROOT
BRANCH   2   5
HETATM    5  C   UNL     1     -10.472  14.416  66.548  1.00  0.00    -0.289 C  
BRANCH   5   6
HETATM    6  C   UNL     1     -11.635  13.810  65.745  1.00  0.00    -0.331 C  
BRANCH   6   7
HETATM    7  N   UNL     1     -11.148  13.167  64.501  1.00  0.00    -0.338 NA 
HETATM    8  C   UNL     1     -11.766  11.853  64.275  1.00  0.00    -0.303 C  
HETATM    9  C   UNL     1      -9.683  13.043  64.415  1.00  0.00     0.231 C  
HETATM   10  C   UNL     1      -9.746  10.693  65.290  1.00  0.00    -0.259 C  
HETATM   11  C   UNL     1      -9.116  12.080  65.454  1.00  0.00     0.201 C  
HETATM   12  C   UNL     1     -11.275  10.777  65.245  1.00  0.00     0.357 C  
BRANCH  10  13
HETATM   13  O   UNL     1      -9.297  10.106  64.052  1.00  0.00    -0.254 OA 
BRANCH  13  14
HETATM   14  C   UNL     1      -8.805   8.843  64.163  1.00  0.00     0.044 C  
HETATM   15  H   UNL     1      -9.840   8.779  65.957  1.00  0.00     0.000 HD 
HETATM   16  O   UNL     1      -8.208   8.251  63.278  1.00  0.00    -0.158 OA 
HETATM   17  N   UNL     1      -9.078   8.371  65.415  1.00  0.00    -0.063 N  
BRANCH  17  18
HETATM   18  C   UNL     1      -8.310   7.323  65.962  1.00  0.00    -0.140 A  
HETATM   19  C   UNL     1      -7.060   7.562  66.573  1.00  0.00    -0.075 A  
HETATM   20  C   UNL     1      -8.185   4.943  66.417  1.00  0.00    -0.108 A  
HETATM   21  C   UNL     1      -6.409   6.427  67.107  1.00  0.00    -0.037 A  
HETATM   22  C   UNL     1      -6.965   5.142  67.043  1.00  0.00    -0.064 A  
HETATM   23  C   UNL     1      -8.854   6.030  65.867  1.00  0.00    -0.155 A  
BRANCH  19  24
HETATM   24  C   UNL     1      -6.416   8.906  66.706  1.00  0.00    -0.064 A  
HETATM   25  C   UNL     1      -6.463   9.657  67.894  1.00  0.00    -0.061 A  
HETATM   26  C   UNL     1      -5.871  10.924  67.994  1.00  0.00    -0.045 A  
HETATM   27  C   UNL     1      -5.244  11.491  66.893  1.00  0.00    -0.114 A  
HETATM   28  C   UNL     1      -5.188  10.783  65.699  1.00  0.00    -0.132 A  
HETATM   29  C   UNL     1      -5.751   9.505  65.614  1.00  0.00    -0.053 A  
ENDBRANCH  19  24
ENDBRANCH  17  18
ENDBRANCH  13  14
ENDBRANCH  10  13
ENDBRANCH   6   7
ENDBRANCH   5   6
ENDBRANCH   2   5
BRANCH   4  30
HETATM   30  C   UNL     1     -10.891  12.585  68.860  1.00  0.00    -0.238 A  
HETATM   31  C   UNL     1      -9.640  11.969  68.708  1.00  0.00     0.004 A  
HETATM   32  C   UNL     1     -12.031  11.776  68.868  1.00  0.00    -0.332 A  
HETATM   33  C   UNL     1     -11.920  10.386  68.899  1.00  0.00     0.076 A  
HETATM   34  C   UNL     1      -9.530  10.573  68.669  1.00  0.00    -0.172 A  
HETATM   35  C   UNL     1     -10.668   9.770  68.803  1.00  0.00    -0.243 A  
BRANCH  35  36
HETATM   36  C   UNL     1     -10.569   8.258  68.810  1.00  0.00    -0.123 C  
BRANCH  36  37
HETATM   37  N   UNL     1     -10.986   7.668  70.091  1.00  0.00    -0.256 NA 
HETATM   38  C   UNL     1      -9.985   7.854  71.146  1.00  0.00    -0.173 C  
HETATM   39  C   UNL     1     -11.384   6.256  69.983  1.00  0.00    -0.416 C  
HETATM   40  C   UNL     1     -10.205   5.298  69.791  1.00  0.00    -0.364 C  
HETATM   41  C   UNL     1      -8.753   6.958  70.992  1.00  0.00    -0.136 C  
HETATM   42  C   UNL     1      -9.143   5.479  70.881  1.00  0.00    -0.164 C  
BRANCH  42  43
HETATM   43  C   UNL     1      -9.616   4.911  72.219  1.00  0.00    -0.152 C  
HETATM   44  N   UNL     1      -9.078   5.491  73.328  1.00  0.00    -0.130 N  
HETATM   45  H2  UNL     1      -8.403   6.254  73.270  1.00  0.00     0.000 HD 
HETATM   46  O   UNL     1     -10.398   3.974  72.342  1.00  0.00    -0.178 OA 
HETATM   47  H1  UNL     1      -9.394   5.112  74.222  1.00  0.00     0.000 HD 
ENDBRANCH  42  43
ENDBRANCH  36  37
ENDBRANCH  35  36
ENDBRANCH   4  30
TORSDOF 11
ENDMDL
MODEL      120
REMARK 921   NORMALIZED FREE ENERGY PREDICTED BY IDOCK:   -4.87 KCAL/MOL
REMARK 922        TOTAL FREE ENERGY PREDICTED BY IDOCK:   -9.63 KCAL/MOL
REMARK 923 INTER-LIGAND FREE ENERGY PREDICTED BY IDOCK:   -8.01 KCAL/MOL
REMARK 924 INTRA-LIGAND FREE ENERGY PREDICTED BY IDOCK:   -1.62 KCAL/MOL
REMARK 927      BINDING AFFINITY PREDICTED BY RF-SCORE:    0.00 PKD
ROOT
HETATM    1  C   UNL     1     -11.335  16.093  71.201  1.00  0.00    -0.316 C  
HETATM    2  N   UNL     1     -11.011  15.137  70.153  1.00  0.00    -0.258 N  
HETATM    3  O   UNL     1     -13.274  14.796  69.833  1.00  0.00     0.133 OA 
HETATM    4  C   UNL     1     -12.115  14.560  69.484  1.00  0.00    -0.306 C  
ENDROOT
BRANCH   2   5
HETATM    5  C   UNL     1      -9.645  15.045  69.636  1.00  0.00    -0.034 C  
BRANCH   5   6
HETATM    6  C   UNL     1      -8.905  16.283  69.104  1.00  0.00    -0.217 C  
BRANCH   6   7
HETATM    7  N   UNL     1      -7.796  15.896  68.200  1.00  0.00    -0.131 NA 
HETATM    8  C   UNL     1      -8.123  14.713  67.392  1.00  0.00    -0.196 C  
HETATM    9  C   UNL     1      -6.505  15.687  68.877  1.00  0.00    -0.113 C  
HETATM   10  C   UNL     1      -6.890  13.213  69.031  1.00  0.00    -0.090 C  
HETATM   11  C   UNL     1      -6.523  14.480  69.810  1.00  0.00    -0.154 C  
HETATM   12  C   UNL     1      -8.163  13.416  68.203  1.00  0.00    -0.160 C  
BRANCH  10  13
HETATM   13  O   UNL     1      -5.819  12.883  68.123  1.00  0.00    -0.069 OA 
BRANCH  13  14
HETATM   14  C   UNL     1      -6.070  11.825  67.305  1.00  0.00    -0.124 C  
HETATM   15  H   UNL     1      -7.041  11.006  68.942  1.00  0.00     0.000 HD 
HETATM   16  O   UNL     1      -5.845  11.808  66.105  1.00  0.00    -0.143 OA 
HETATM   17  N   UNL     1      -6.591  10.805  68.049  1.00  0.00    -0.062 N  
BRANCH  17  18
HETATM   18  C   UNL     1      -6.508   9.476  67.587  1.00  0.00    -0.062 A  
HETATM   19  C   UNL     1      -7.342   8.459  68.104  1.00  0.00    -0.096 A  
HETATM   20  C   UNL     1      -5.436   7.944  66.041  1.00  0.00    -0.029 A  
HETATM   21  C   UNL     1      -7.176   7.178  67.531  1.00  0.00    -0.090 A  
HETATM   22  C   UNL     1      -6.252   6.925  66.509  1.00  0.00    -0.045 A  
HETATM   23  C   UNL     1      -5.556   9.216  66.585  1.00  0.00    -0.043 A  
BRANCH  19  24
HETATM   24  C   UNL     1      -8.370   8.658  69.171  1.00  0.00    -0.119 A  
HETATM   25  C   UNL     1      -8.055   8.646  70.542  1.00  0.00    -0.115 A  
HETATM   26  C   UNL     1      -9.036   8.815  71.529  1.00  0.00    -0.306 A  
HETATM   27  C   UNL     1     -10.370   8.966  71.172  1.00  0.00    -0.338 A  
HETATM   28  C   UNL     1     -10.719   8.971  69.827  1.00  0.00    -0.233 A  
HETATM   29  C   UNL     1      -9.732   8.836  68.845  1.00  0.00    -0.174 A  
ENDBRANCH  19  24
ENDBRANCH  17  18
ENDBRANCH  13  14
ENDBRANCH  10  13
ENDBRANCH   6   7
ENDBRANCH   5   6
ENDBRANCH   2   5
BRANCH   4  30
HETATM   30  C   UNL     1     -11.928  13.715  68.258  1.00  0.00    -0.385 A  
HETATM   31  C   UNL     1     -11.892  14.364  67.014  1.00  0.00    -0.437 A  
HETATM   32  C   UNL     1     -11.787  12.325  68.284  1.00  0.00    -0.367 A  
HETATM   33  C   UNL     1     -11.447  11.619  67.130  1.00  0.00    -0.344 A  
HETATM   34  C   UNL     1     -11.618  13.648  65.842  1.00  0.00    -0.346 A  
HETATM   35  C   UNL     1     -11.356  12.274  65.897  1.00  0.00    -0.406 A  
BRANCH  35  36
HETATM   36  C   UNL     1     -11.013  11.487  64.649  1.00  0.00    -0.288 C  
BRANCH  36  37
HETATM   37  N   UNL     1      -9.589  11.581  64.292  1.00  0.00    -0.193 NA 
HETATM   38  C   UNL     1      -9.353  11.364  62.862  1.00  0.00    -0.323 C  
HETATM   39  C   UNL     1      -8.724  10.714  65.109  1.00  0.00    -0.186 C  
HETATM   40  C   UNL     1      -8.836   9.228  64.756  1.00  0.00    -0.225 C  
HETATM   41  C   UNL     1      -9.494   9.902  62.428  1.00  0.00    -0.174 C  
HETATM   42  C   UNL     1      -8.598   8.979  63.262  1.00  0.00    -0.150 C  
BRANCH  42  43
HETATM   43  C   UNL     1      -7.121   9.136  62.901  1.00  0.00    -0.091 C  
HETATM   44  N   UNL     1      -6.467   7.983  62.582  1.00  0.00    -0.084 N  
HETATM   45  H2  UNL     1      -6.933   7.076  62.584  1.00  0.00     0.000 HD 
HETATM   46  O   UNL     1      -6.507  10.198  62.916  1.00  0.00    -0.124 OA 
HETATM   47  H1  UNL     1      -5.481   8.088  62.340  1.00  0.00     0.000 HD 
ENDBRANCH  42  43
ENDBRANCH  36  37
ENDBRANCH  35  36
ENDBRANCH   4  30
TORSDOF 11
ENDMDL
MODEL      121
REMARK 921   NORMALIZED FREE ENERGY PREDICTED BY IDOCK:   -4.84 KCAL/MOL
REMARK 922        TOTAL FREE ENERGY PREDICTED BY IDOCK:   -9.59 KCAL/MOL
REMARK 923 INTER-LIGAND FREE ENERGY PREDICTED BY IDOCK:   -9.70 KCAL/MOL
REMARK 924 INTRA-LIGAND FREE ENERGY PREDICTED BY IDOCK:    0.11 KCAL/MOL
REMARK 927      BINDING AFFINITY PREDICTED BY RF-SCORE:    0.00 PKD
ROOT
HETATM    1  C   UNL     1      -5.218  11.034  70.651  1.00  0.00    -0.101 C  
HETATM    2  N   UNL     1      -6.217  11.868  69.998  1.00  0.00    -0.149 N  
HETATM    3  O   UNL     1      -5.150  13.730  70.851  1.00  0.00    -0.101 OA 
HETATM    4  C   UNL     1      -6.044  13.263  70.144  1.00  0.00    -0.107 C  
ENDROOT
BRANCH   2   5
HETATM    5  C   UNL     1      -7.127  11.288  69.009  1.00  0.00    -0.116 C  
BRANCH   5   6
HETATM    6  C   UNL     1      -6.617  10.341  67.910  1.00  0.00    -0.062 C  
BRANCH   6   7
HETATM    7  N   UNL     1      -6.618   8.933  68.375  1.00  0.00    -0.059 NA 
HETATM    8  C   UNL     1      -6.749   7.981  67.263  1.00  0.00    -0.065 C  
HETATM    9  C   UNL     1      -7.630   8.633  69.401  1.00  0.00    -0.092 C  
HETATM   10  C   UNL     1      -9.248   7.788  67.680  1.00  0.00    -0.136 C  
HETATM   11  C   UNL     1      -9.055   8.739  68.866  1.00  0.00    -0.141 C  
HETATM   12  C   UNL     1      -8.144   7.970  66.634  1.00  0.00    -0.103 C  
BRANCH  10  13
HETATM   13  O   UNL     1      -9.197   6.425  68.146  1.00  0.00    -0.114 OA 
BRANCH  13  14
HETATM   14  C   UNL     1     -10.122   6.109  69.092  1.00  0.00    -0.170 C  
HETATM   15  H   UNL     1      -8.683   6.710  70.456  1.00  0.00     0.000 HD 
HETATM   16  O   UNL     1     -11.284   5.820  68.857  1.00  0.00    -0.204 OA 
HETATM   17  N   UNL     1      -9.529   6.158  70.322  1.00  0.00    -0.159 N  
BRANCH  17  18
HETATM   18  C   UNL     1     -10.084   5.447  71.405  1.00  0.00    -0.202 A  
HETATM   19  C   UNL     1     -11.184   5.951  72.135  1.00  0.00    -0.342 A  
HETATM   20  C   UNL     1     -10.000   3.425  72.743  1.00  0.00    -0.216 A  
HETATM   21  C   UNL     1     -11.661   5.123  73.177  1.00  0.00    -0.189 A  
HETATM   22  C   UNL     1     -11.091   3.878  73.469  1.00  0.00    -0.342 A  
HETATM   23  C   UNL     1      -9.490   4.212  71.719  1.00  0.00    -0.210 A  
BRANCH  19  24
HETATM   24  C   UNL     1     -11.864   7.255  71.865  1.00  0.00    -0.333 A  
HETATM   25  C   UNL     1     -11.193   8.490  71.927  1.00  0.00    -0.397 A  
HETATM   26  C   UNL     1     -11.850   9.704  71.690  1.00  0.00    -0.457 A  
HETATM   27  C   UNL     1     -13.212   9.720  71.416  1.00  0.00    -0.482 A  
HETATM   28  C   UNL     1     -13.910   8.520  71.357  1.00  0.00    -0.303 A  
HETATM   29  C   UNL     1     -13.241   7.308  71.562  1.00  0.00    -0.434 A  
ENDBRANCH  19  24
ENDBRANCH  17  18
ENDBRANCH  13  14
ENDBRANCH  10  13
ENDBRANCH   6   7
ENDBRANCH   5   6
ENDBRANCH   2   5
BRANCH   4  30
HETATM   30  C   UNL     1      -6.880  14.236  69.364  1.00  0.00    -0.122 A  
HETATM   31  C   UNL     1      -6.564  14.433  68.010  1.00  0.00    -0.157 A  
HETATM   32  C   UNL     1      -7.950  14.953  69.906  1.00  0.00     0.202 A  
HETATM   33  C   UNL     1      -8.789  15.711  69.089  1.00  0.00    -0.251 A  
HETATM   34  C   UNL     1      -7.365  15.248  67.201  1.00  0.00    -0.178 A  
HETATM   35  C   UNL     1      -8.507  15.863  67.726  1.00  0.00    -0.165 A  
BRANCH  35  36
HETATM   36  C   UNL     1      -9.415  16.713  66.860  1.00  0.00    -0.235 C  
BRANCH  36  37
HETATM   37  N   UNL     1     -10.742  16.110  66.667  1.00  0.00    -0.275 NA 
HETATM   38  C   UNL     1     -10.864  14.802  67.320  1.00  0.00    -0.309 C  
HETATM   39  C   UNL     1     -11.152  16.038  65.257  1.00  0.00    -0.213 C  
HETATM   40  C   UNL     1     -10.416  14.959  64.457  1.00  0.00     0.075 C  
HETATM   41  C   UNL     1     -10.112  13.681  66.598  1.00  0.00    -0.277 C  
HETATM   42  C   UNL     1     -10.526  13.583  65.124  1.00  0.00    -0.375 C  
BRANCH  42  43
HETATM   43  C   UNL     1     -11.928  12.997  64.962  1.00  0.00    -0.397 C  
HETATM   44  N   UNL     1     -12.424  12.999  63.693  1.00  0.00    -0.723 N  
HETATM   45  H2  UNL     1     -11.894  13.368  62.904  1.00  0.00     0.000 HD 
HETATM   46  O   UNL     1     -12.618  12.572  65.883  1.00  0.00    -0.514 OA 
HETATM   47  H1  UNL     1     -13.360  12.607  63.585  1.00  0.00     0.000 HD 
ENDBRANCH  42  43
ENDBRANCH  36  37
ENDBRANCH  35  36
ENDBRANCH   4  30
TORSDOF 11
ENDMDL
MODEL      122
REMARK 921   NORMALIZED FREE ENERGY PREDICTED BY IDOCK:   -4.80 KCAL/MOL
REMARK 922        TOTAL FREE ENERGY PREDICTED BY IDOCK:   -9.52 KCAL/MOL
REMARK 923 INTER-LIGAND FREE ENERGY PREDICTED BY IDOCK:   -7.90 KCAL/MOL
REMARK 924 INTRA-LIGAND FREE ENERGY PREDICTED BY IDOCK:   -1.62 KCAL/MOL
REMARK 927      BINDING AFFINITY PREDICTED BY RF-SCORE:    0.00 PKD
ROOT
HETATM    1  C   UNL     1      -6.151   1.975  66.868  1.00  0.00    -0.023 C  
HETATM    2  N   UNL     1      -6.622   3.249  66.347  1.00  0.00    -0.040 N  
HETATM    3  O   UNL     1      -5.134   3.027  64.594  1.00  0.00    -0.007 OA 
HETATM    4  C   UNL     1      -6.041   3.668  65.128  1.00  0.00    -0.023 C  
ENDROOT
BRANCH   2   5
HETATM    5  C   UNL     1      -7.832   3.866  66.892  1.00  0.00    -0.088 C  
BRANCH   5   6
HETATM    6  C   UNL     1      -7.822   4.579  68.255  1.00  0.00    -0.080 C  
BRANCH   6   7
HETATM    7  N   UNL     1      -7.230   5.934  68.145  1.00  0.00    -0.077 NA 
HETATM    8  C   UNL     1      -7.533   6.770  69.316  1.00  0.00    -0.095 C  
HETATM    9  C   UNL     1      -7.595   6.659  66.917  1.00  0.00    -0.095 C  
HETATM   10  C   UNL     1      -9.466   7.859  68.078  1.00  0.00    -0.149 C  
HETATM   11  C   UNL     1      -9.079   7.010  66.863  1.00  0.00    -0.156 C  
HETATM   12  C   UNL     1      -8.996   7.211  69.384  1.00  0.00    -0.136 C  
BRANCH  10  13
HETATM   13  O   UNL     1      -8.841   9.154  67.976  1.00  0.00    -0.129 OA 
BRANCH  13  14
HETATM   14  C   UNL     1      -9.214  10.046  68.934  1.00  0.00    -0.169 C  
HETATM   15  H   UNL     1     -11.153   9.594  68.360  1.00  0.00     0.000 HD 
HETATM   16  O   UNL     1      -8.453  10.552  69.743  1.00  0.00    -0.076 OA 
HETATM   17  N   UNL     1     -10.555  10.278  68.822  1.00  0.00    -0.197 N  
BRANCH  17  18
HETATM   18  C   UNL     1     -11.115  11.463  69.343  1.00  0.00    -0.241 A  
HETATM   19  C   UNL     1     -11.942  11.448  70.489  1.00  0.00    -0.451 A  
HETATM   20  C   UNL     1     -11.280  13.874  69.136  1.00  0.00    -0.311 A  
HETATM   21  C   UNL     1     -12.412  12.708  70.923  1.00  0.00    -0.368 A  
HETATM   22  C   UNL     1     -12.078  13.902  70.269  1.00  0.00    -0.423 A  
HETATM   23  C   UNL     1     -10.807  12.656  68.667  1.00  0.00    -0.281 A  
BRANCH  19  24
HETATM   24  C   UNL     1     -12.318  10.221  71.256  1.00  0.00    -0.506 A  
HETATM   25  C   UNL     1     -13.654   9.869  71.521  1.00  0.00    -0.319 A  
HETATM   26  C   UNL     1     -13.988   8.726  72.258  1.00  0.00    -0.511 A  
HETATM   27  C   UNL     1     -12.988   7.917  72.784  1.00  0.00     0.364 A  
HETATM   28  C   UNL     1     -11.657   8.239  72.553  1.00  0.00    -0.454 A  
HETATM   29  C   UNL     1     -11.330   9.364  71.787  1.00  0.00    -0.387 A  
ENDBRANCH  19  24
ENDBRANCH  17  18
ENDBRANCH  13  14
ENDBRANCH  10  13
ENDBRANCH   6   7
ENDBRANCH   5   6
ENDBRANCH   2   5
BRANCH   4  30
HETATM   30  C   UNL     1      -6.573   4.856  64.380  1.00  0.00    -0.043 A  
HETATM   31  C   UNL     1      -7.893   4.796  63.909  1.00  0.00    -0.086 A  
HETATM   32  C   UNL     1      -5.831   6.013  64.128  1.00  0.00    -0.022 A  
HETATM   33  C   UNL     1      -6.436   7.144  63.578  1.00  0.00    -0.044 A  
HETATM   34  C   UNL     1      -8.484   5.907  63.294  1.00  0.00     0.087 A  
HETATM   35  C   UNL     1      -7.770   7.103  63.158  1.00  0.00    -0.119 A  
BRANCH  35  36
HETATM   36  C   UNL     1      -8.402   8.332  62.537  1.00  0.00    -0.146 C  
BRANCH  36  37
HETATM   37  N   UNL     1      -8.022   9.575  63.228  1.00  0.00    -0.135 NA 
HETATM   38  C   UNL     1      -8.463   9.597  64.626  1.00  0.00    -0.174 C  
HETATM   39  C   UNL     1      -8.450  10.791  62.519  1.00  0.00    -0.242 C  
HETATM   40  C   UNL     1      -9.954  11.059  62.612  1.00  0.00    -0.101 C  
HETATM   41  C   UNL     1      -9.969   9.816  64.793  1.00  0.00     0.014 C  
HETATM   42  C   UNL     1     -10.439  11.082  64.066  1.00  0.00    -0.433 C  
BRANCH  42  43
HETATM   43  C   UNL     1      -9.987  12.354  64.784  1.00  0.00    -0.172 C  
HETATM   44  N   UNL     1      -9.044  12.181  65.751  1.00  0.00    -0.436 N  
HETATM   45  H2  UNL     1      -8.664  11.263  65.981  1.00  0.00     0.000 HD 
HETATM   46  O   UNL     1     -10.437  13.474  64.567  1.00  0.00    -0.418 OA 
HETATM   47  H1  UNL     1      -8.742  13.030  66.230  1.00  0.00     0.000 HD 
ENDBRANCH  42  43
ENDBRANCH  36  37
ENDBRANCH  35  36
ENDBRANCH   4  30
TORSDOF 11
ENDMDL
MODEL      123
REMARK 921   NORMALIZED FREE ENERGY PREDICTED BY IDOCK:   -4.74 KCAL/MOL
REMARK 922        TOTAL FREE ENERGY PREDICTED BY IDOCK:   -9.43 KCAL/MOL
REMARK 923 INTER-LIGAND FREE ENERGY PREDICTED BY IDOCK:   -9.41 KCAL/MOL
REMARK 924 INTRA-LIGAND FREE ENERGY PREDICTED BY IDOCK:   -0.01 KCAL/MOL
REMARK 927      BINDING AFFINITY PREDICTED BY RF-SCORE:    0.00 PKD
ROOT
HETATM    1  C   UNL     1     -13.416  12.891  71.626  1.00  0.00    -0.174 C  
HETATM    2  N   UNL     1     -12.525  13.078  70.491  1.00  0.00    -0.276 N  
HETATM    3  O   UNL     1     -12.894  15.353  70.637  1.00  0.00    -0.432 OA 
HETATM    4  C   UNL     1     -12.300  14.417  70.098  1.00  0.00    -0.348 C  
ENDROOT
BRANCH   2   5
HETATM    5  C   UNL     1     -11.689  11.972  70.021  1.00  0.00    -0.267 C  
BRANCH   5   6
HETATM    6  C   UNL     1     -11.636  11.584  68.534  1.00  0.00    -0.313 C  
BRANCH   6   7
HETATM    7  N   UNL     1     -10.256  11.231  68.122  1.00  0.00    -0.174 NA 
HETATM    8  C   UNL     1     -10.236  10.326  66.963  1.00  0.00    -0.228 C  
HETATM    9  C   UNL     1      -9.426  10.668  69.199  1.00  0.00    -0.170 C  
HETATM   10  C   UNL     1      -9.954   8.319  68.496  1.00  0.00    -0.190 C  
HETATM   11  C   UNL     1      -9.923   9.304  69.669  1.00  0.00    -0.201 C  
HETATM   12  C   UNL     1     -10.701   8.907  67.294  1.00  0.00    -0.219 C  
BRANCH  10  13
HETATM   13  O   UNL     1      -8.605   8.027  68.080  1.00  0.00    -0.128 OA 
BRANCH  13  14
HETATM   14  C   UNL     1      -8.287   6.704  68.058  1.00  0.00    -0.117 C  
HETATM   15  H   UNL     1     -10.335   6.386  68.044  1.00  0.00     0.000 HD 
HETATM   16  O   UNL     1      -7.159   6.265  67.903  1.00  0.00    -0.079 OA 
HETATM   17  N   UNL     1      -9.425   5.974  68.250  1.00  0.00    -0.115 N  
BRANCH  17  18
HETATM   18  C   UNL     1      -9.345   4.652  68.733  1.00  0.00    -0.140 A  
HETATM   19  C   UNL     1      -9.119   3.559  67.866  1.00  0.00    -0.200 A  
HETATM   20  C   UNL     1      -9.394   3.214  70.686  1.00  0.00    -0.225 A  
HETATM   21  C   UNL     1      -9.031   2.292  68.484  1.00  0.00    -0.176 A  
HETATM   22  C   UNL     1      -9.152   2.121  69.869  1.00  0.00    -0.169 A  
HETATM   23  C   UNL     1      -9.501   4.477  70.119  1.00  0.00    -0.237 A  
BRANCH  19  24
HETATM   24  C   UNL     1      -8.950   3.666  66.384  1.00  0.00    -0.148 A  
HETATM   25  C   UNL     1      -7.740   3.362  65.733  1.00  0.00    -0.081 A  
HETATM   26  C   UNL     1      -7.593   3.486  64.345  1.00  0.00    -0.076 A  
HETATM   27  C   UNL     1      -8.647   3.954  63.569  1.00  0.00    -0.096 A  
HETATM   28  C   UNL     1      -9.853   4.275  64.179  1.00  0.00    -0.073 A  
HETATM   29  C   UNL     1     -10.004   4.117  65.562  1.00  0.00    -0.209 A  
ENDBRANCH  19  24
ENDBRANCH  17  18
ENDBRANCH  13  14
ENDBRANCH  10  13
ENDBRANCH   6   7
ENDBRANCH   5   6
ENDBRANCH   2   5
BRANCH   4  30
HETATM   30  C   UNL     1     -11.255  14.764  69.078  1.00  0.00    -0.286 A  
HETATM   31  C   UNL     1     -11.689  15.130  67.794  1.00  0.00    -0.250 A  
HETATM   32  C   UNL     1      -9.881  14.744  69.332  1.00  0.00    -0.072 A  
HETATM   33  C   UNL     1      -8.974  15.239  68.395  1.00  0.00    -0.184 A  
HETATM   34  C   UNL     1     -10.774  15.563  66.826  1.00  0.00    -0.305 A  
HETATM   35  C   UNL     1      -9.412  15.658  67.133  1.00  0.00    -0.226 A  
BRANCH  35  36
HETATM   36  C   UNL     1      -8.409  16.166  66.118  1.00  0.00    -0.187 C  
BRANCH  36  37
HETATM   37  N   UNL     1      -8.508  17.618  65.901  1.00  0.00    -0.537 NA 
HETATM   38  C   UNL     1      -7.221  18.221  65.544  1.00  0.00     0.029 C  
HETATM   39  C   UNL     1      -9.136  18.334  67.022  1.00  0.00    -0.271 C  
HETATM   40  C   UNL     1      -8.233  18.461  68.252  1.00  0.00    -0.317 C  
HETATM   41  C   UNL     1      -6.247  18.337  66.720  1.00  0.00    -0.201 C  
HETATM   42  C   UNL     1      -6.877  19.085  67.901  1.00  0.00    -0.240 C  
BRANCH  42  43
HETATM   43  C   UNL     1      -7.010  20.583  67.623  1.00  0.00    -0.322 C  
HETATM   44  N   UNL     1      -8.279  21.032  67.411  1.00  0.00    -0.402 N  
HETATM   45  H2  UNL     1      -9.087  20.410  67.436  1.00  0.00     0.000 HD 
HETATM   46  O   UNL     1      -6.069  21.366  67.550  1.00  0.00    -0.380 OA 
HETATM   47  H1  UNL     1      -8.368  22.032  67.227  1.00  0.00     0.000 HD 
ENDBRANCH  42  43
ENDBRANCH  36  37
ENDBRANCH  35  36
ENDBRANCH   4  30
TORSDOF 11
ENDMDL
MODEL      124
REMARK 921   NORMALIZED FREE ENERGY PREDICTED BY IDOCK:   -4.73 KCAL/MOL
REMARK 922        TOTAL FREE ENERGY PREDICTED BY IDOCK:   -9.41 KCAL/MOL
REMARK 923 INTER-LIGAND FREE ENERGY PREDICTED BY IDOCK:   -6.95 KCAL/MOL
REMARK 924 INTRA-LIGAND FREE ENERGY PREDICTED BY IDOCK:   -2.45 KCAL/MOL
REMARK 927      BINDING AFFINITY PREDICTED BY RF-SCORE:    0.00 PKD
ROOT
HETATM    1  C   UNL     1     -11.547  15.011  67.891  1.00  0.00    -0.333 C  
HETATM    2  N   UNL     1     -10.881  13.720  67.989  1.00  0.00    -0.245 N  
HETATM    3  O   UNL     1     -12.164  13.255  69.853  1.00  0.00    -0.302 OA 
HETATM    4  C   UNL     1     -11.325  12.877  69.033  1.00  0.00    -0.290 C  
ENDROOT
BRANCH   2   5
HETATM    5  C   UNL     1     -10.051  13.234  66.886  1.00  0.00    -0.250 C  
BRANCH   5   6
HETATM    6  C   UNL     1     -10.612  13.100  65.461  1.00  0.00    -0.288 C  
BRANCH   6   7
HETATM    7  N   UNL     1     -10.934  11.688  65.143  1.00  0.00    -0.287 NA 
HETATM    8  C   UNL     1     -10.039  10.745  65.829  1.00  0.00    -0.261 C  
HETATM    9  C   UNL     1     -10.961  11.381  63.703  1.00  0.00    -0.363 C  
HETATM   10  C   UNL     1      -8.593  10.554  63.748  1.00  0.00    -0.151 C  
HETATM   11  C   UNL     1      -9.584  11.495  63.055  1.00  0.00    -0.371 C  
HETATM   12  C   UNL     1      -8.616  10.742  65.268  1.00  0.00    -0.153 C  
BRANCH  10  13
HETATM   13  O   UNL     1      -8.953   9.187  63.466  1.00  0.00    -0.139 OA 
BRANCH  13  14
HETATM   14  C   UNL     1      -8.078   8.257  63.936  1.00  0.00    -0.124 C  
HETATM   15  H   UNL     1      -9.734   7.405  64.844  1.00  0.00     0.000 HD 
HETATM   16  O   UNL     1      -6.912   8.163  63.586  1.00  0.00    -0.074 OA 
HETATM   17  N   UNL     1      -8.717   7.475  64.856  1.00  0.00     0.146 N  
BRANCH  17  18
HETATM   18  C   UNL     1      -7.974   6.765  65.821  1.00  0.00    -0.112 A  
HETATM   19  C   UNL     1      -7.768   5.371  65.717  1.00  0.00    -0.087 A  
HETATM   20  C   UNL     1      -6.668   6.904  67.860  1.00  0.00    -0.064 A  
HETATM   21  C   UNL     1      -6.980   4.789  66.735  1.00  0.00    -0.067 A  
HETATM   22  C   UNL     1      -6.427   5.541  67.781  1.00  0.00    -0.048 A  
HETATM   23  C   UNL     1      -7.448   7.515  66.887  1.00  0.00    -0.098 A  
BRANCH  19  24
HETATM   24  C   UNL     1      -8.299   4.508  64.618  1.00  0.00    -0.117 A  
HETATM   25  C   UNL     1      -9.494   3.774  64.737  1.00  0.00    -0.166 A  
HETATM   26  C   UNL     1      -9.967   2.955  63.703  1.00  0.00    -0.153 A  
HETATM   27  C   UNL     1      -9.237   2.819  62.529  1.00  0.00    -0.087 A  
HETATM   28  C   UNL     1      -8.046   3.520  62.380  1.00  0.00    -0.071 A  
HETATM   29  C   UNL     1      -7.596   4.362  63.403  1.00  0.00    -0.059 A  
ENDBRANCH  19  24
ENDBRANCH  17  18
ENDBRANCH  13  14
ENDBRANCH  10  13
ENDBRANCH   6   7
ENDBRANCH   5   6
ENDBRANCH   2   5
BRANCH   4  30
HETATM   30  C   UNL     1     -10.868  11.450  69.129  1.00  0.00    -0.260 A  
HETATM   31  C   UNL     1      -9.519  11.213  69.436  1.00  0.00     0.221 A  
HETATM   32  C   UNL     1     -11.705  10.349  68.930  1.00  0.00    -0.138 A  
HETATM   33  C   UNL     1     -11.260   9.055  69.199  1.00  0.00     0.191 A  
HETATM   34  C   UNL     1      -9.051   9.909  69.640  1.00  0.00    -0.245 A  
HETATM   35  C   UNL     1      -9.928   8.822  69.560  1.00  0.00    -0.195 A  
BRANCH  35  36
HETATM   36  C   UNL     1      -9.455   7.406  69.821  1.00  0.00    -0.159 C  
BRANCH  36  37
HETATM   37  N   UNL     1     -10.497   6.563  70.428  1.00  0.00    -0.204 NA 
HETATM   38  C   UNL     1     -10.568   6.722  71.884  1.00  0.00    -0.209 C  
HETATM   39  C   UNL     1     -10.391   5.144  70.055  1.00  0.00    -0.276 C  
HETATM   40  C   UNL     1      -9.234   4.413  70.741  1.00  0.00    -0.203 C  
HETATM   41  C   UNL     1      -9.413   6.053  72.634  1.00  0.00    -0.150 C  
HETATM   42  C   UNL     1      -9.285   4.570  72.265  1.00  0.00    -0.157 C  
BRANCH  42  43
HETATM   43  C   UNL     1     -10.410   3.731  72.873  1.00  0.00    -0.165 C  
HETATM   44  N   UNL     1     -11.205   4.375  73.772  1.00  0.00    -0.242 N  
HETATM   45  H2  UNL     1     -11.060   5.353  74.023  1.00  0.00     0.000 HD 
HETATM   46  O   UNL     1     -10.605   2.545  72.629  1.00  0.00    -0.150 OA 
HETATM   47  H1  UNL     1     -11.956   3.815  74.177  1.00  0.00     0.000 HD 
ENDBRANCH  42  43
ENDBRANCH  36  37
ENDBRANCH  35  36
ENDBRANCH   4  30
TORSDOF 11
ENDMDL
MODEL      125
REMARK 921   NORMALIZED FREE ENERGY PREDICTED BY IDOCK:   -4.69 KCAL/MOL
REMARK 922        TOTAL FREE ENERGY PREDICTED BY IDOCK:   -9.34 KCAL/MOL
REMARK 923 INTER-LIGAND FREE ENERGY PREDICTED BY IDOCK:   -9.65 KCAL/MOL
REMARK 924 INTRA-LIGAND FREE ENERGY PREDICTED BY IDOCK:    0.31 KCAL/MOL
REMARK 927      BINDING AFFINITY PREDICTED BY RF-SCORE:    0.00 PKD
ROOT
HETATM    1  C   UNL     1     -10.204   4.126  64.456  1.00  0.00    -0.157 C  
HETATM    2  N   UNL     1      -9.934   4.324  65.872  1.00  0.00    -0.222 N  
HETATM    3  O   UNL     1      -8.825   2.297  65.894  1.00  0.00    -0.120 OA 
HETATM    4  C   UNL     1      -9.166   3.316  66.499  1.00  0.00    -0.154 C  
ENDROOT
BRANCH   2   5
HETATM    5  C   UNL     1     -10.173   5.627  66.493  1.00  0.00    -0.211 C  
BRANCH   5   6
HETATM    6  C   UNL     1      -9.232   6.818  66.243  1.00  0.00    -0.127 C  
BRANCH   6   7
HETATM    7  N   UNL     1      -8.846   7.471  67.517  1.00  0.00    -0.127 NA 
HETATM    8  C   UNL     1      -9.998   8.069  68.207  1.00  0.00    -0.185 C  
HETATM    9  C   UNL     1      -7.777   8.475  67.385  1.00  0.00    -0.098 C  
HETATM   10  C   UNL     1      -9.438  10.349  67.233  1.00  0.00    -0.154 C  
HETATM   11  C   UNL     1      -8.217   9.695  66.580  1.00  0.00    -0.119 C  
HETATM   12  C   UNL     1     -10.539   9.321  67.512  1.00  0.00    -0.329 C  
BRANCH  10  13
HETATM   13  O   UNL     1      -9.051  10.935  68.492  1.00  0.00    -0.159 OA 
BRANCH  13  14
HETATM   14  C   UNL     1      -8.835  12.278  68.455  1.00  0.00    -0.137 C  
HETATM   15  H   UNL     1     -10.882  12.444  68.730  1.00  0.00     0.000 HD 
HETATM   16  O   UNL     1      -7.733  12.803  68.456  1.00  0.00    -0.132 OA 
HETATM   17  N   UNL     1     -10.040  12.918  68.402  1.00  0.00    -0.236 N  
BRANCH  17  18
HETATM   18  C   UNL     1     -10.125  14.231  67.896  1.00  0.00    -0.233 A  
HETATM   19  C   UNL     1     -10.784  15.258  68.608  1.00  0.00    -0.245 A  
HETATM   20  C   UNL     1      -9.515  15.739  66.096  1.00  0.00    -0.375 A  
HETATM   21  C   UNL     1     -10.768  16.534  68.001  1.00  0.00    -0.343 A  
HETATM   22  C   UNL     1     -10.135  16.776  66.775  1.00  0.00    -0.295 A  
HETATM   23  C   UNL     1      -9.518  14.465  66.649  1.00  0.00    -0.300 A  
BRANCH  19  24
HETATM   24  C   UNL     1     -11.456  15.083  69.932  1.00  0.00    -0.320 A  
HETATM   25  C   UNL     1     -12.292  13.990  70.223  1.00  0.00    -0.425 A  
HETATM   26  C   UNL     1     -12.930  13.853  71.463  1.00  0.00    -0.436 A  
HETATM   27  C   UNL     1     -12.775  14.828  72.440  1.00  0.00    -0.432 A  
HETATM   28  C   UNL     1     -11.965  15.927  72.185  1.00  0.00    -0.612 A  
HETATM   29  C   UNL     1     -11.305  16.042  70.957  1.00  0.00    -0.423 A  
ENDBRANCH  19  24
ENDBRANCH  17  18
ENDBRANCH  13  14
ENDBRANCH  10  13
ENDBRANCH   6   7
ENDBRANCH   5   6
ENDBRANCH   2   5
BRANCH   4  30
HETATM   30  C   UNL     1      -8.648   3.488  67.897  1.00  0.00    -0.117 A  
HETATM   31  C   UNL     1      -9.404   2.945  68.948  1.00  0.00    -0.226 A  
HETATM   32  C   UNL     1      -7.460   4.154  68.211  1.00  0.00    -0.063 A  
HETATM   33  C   UNL     1      -6.951   4.133  69.510  1.00  0.00    -0.046 A  
HETATM   34  C   UNL     1      -8.928   2.981  70.264  1.00  0.00    -0.165 A  
HETATM   35  C   UNL     1      -7.678   3.542  70.549  1.00  0.00    -0.043 A  
BRANCH  35  36
HETATM   36  C   UNL     1      -7.121   3.553  71.959  1.00  0.00    -0.041 C  
BRANCH  36  37
HETATM   37  N   UNL     1      -7.350   4.832  72.649  1.00  0.00    -0.082 NA 
HETATM   38  C   UNL     1      -8.325   4.715  73.737  1.00  0.00    -0.105 C  
HETATM   39  C   UNL     1      -7.702   5.932  71.738  1.00  0.00    -0.101 C  
HETATM   40  C   UNL     1      -9.127   5.840  71.186  1.00  0.00    -0.157 C  
HETATM   41  C   UNL     1      -9.772   4.573  73.256  1.00  0.00    -0.152 C  
HETATM   42  C   UNL     1     -10.164   5.712  72.308  1.00  0.00    -0.241 C  
BRANCH  42  43
HETATM   43  C   UNL     1     -10.347   7.036  73.050  1.00  0.00    -0.260 C  
HETATM   44  N   UNL     1     -10.290   6.962  74.409  1.00  0.00    -0.451 N  
HETATM   45  H2  UNL     1     -10.135   6.081  74.899  1.00  0.00     0.000 HD 
HETATM   46  O   UNL     1     -10.569   8.115  72.509  1.00  0.00    -0.293 OA 
HETATM   47  H1  UNL     1     -10.412   7.846  74.904  1.00  0.00     0.000 HD 
ENDBRANCH  42  43
ENDBRANCH  36  37
ENDBRANCH  35  36
ENDBRANCH   4  30
TORSDOF 11
ENDMDL
MODEL      126
REMARK 921   NORMALIZED FREE ENERGY PREDICTED BY IDOCK:   -4.68 KCAL/MOL
REMARK 922        TOTAL FREE ENERGY PREDICTED BY IDOCK:   -9.33 KCAL/MOL
REMARK 923 INTER-LIGAND FREE ENERGY PREDICTED BY IDOCK:   -9.16 KCAL/MOL
REMARK 924 INTRA-LIGAND FREE ENERGY PREDICTED BY IDOCK:   -0.17 KCAL/MOL
REMARK 927      BINDING AFFINITY PREDICTED BY RF-SCORE:    0.00 PKD
ROOT
HETATM    1  C   UNL     1      -6.611  17.487  69.210  1.00  0.00    -0.235 C  
HETATM    2  N   UNL     1      -7.500  16.503  68.612  1.00  0.00    -0.190 N  
HETATM    3  O   UNL     1      -9.201  18.064  68.684  1.00  0.00    -0.292 OA 
HETATM    4  C   UNL     1      -8.817  16.942  68.347  1.00  0.00    -0.244 C  
ENDROOT
BRANCH   2   5
HETATM    5  C   UNL     1      -6.956  15.269  68.043  1.00  0.00    -0.133 C  
BRANCH   5   6
HETATM    6  C   UNL     1      -7.276  13.896  68.656  1.00  0.00    -0.108 C  
BRANCH   6   7
HETATM    7  N   UNL     1      -6.098  12.996  68.597  1.00  0.00    -0.068 NA 
HETATM    8  C   UNL     1      -6.038  12.241  67.337  1.00  0.00    -0.153 C  
HETATM    9  C   UNL     1      -5.987  12.066  69.733  1.00  0.00    -0.136 C  
HETATM   10  C   UNL     1      -7.122  10.231  68.453  1.00  0.00    -0.078 C  
HETATM   11  C   UNL     1      -7.112  11.035  69.757  1.00  0.00    -0.052 C  
HETATM   12  C   UNL     1      -7.109  11.153  67.230  1.00  0.00    -0.109 C  
BRANCH  10  13
HETATM   13  O   UNL     1      -5.946   9.400  68.393  1.00  0.00    -0.044 OA 
BRANCH  13  14
HETATM   14  C   UNL     1      -6.106   8.146  68.896  1.00  0.00    -0.040 C  
HETATM   15  H   UNL     1      -7.288   9.056  70.334  1.00  0.00     0.000 HD 
HETATM   16  O   UNL     1      -5.732   7.124  68.342  1.00  0.00    -0.020 OA 
HETATM   17  N   UNL     1      -6.731   8.232  70.107  1.00  0.00    -0.036 N  
BRANCH  17  18
HETATM   18  C   UNL     1      -6.610   7.186  71.044  1.00  0.00    -0.044 A  
HETATM   19  C   UNL     1      -7.640   6.238  71.232  1.00  0.00    -0.094 A  
HETATM   20  C   UNL     1      -5.190   6.112  72.692  1.00  0.00    -0.030 A  
HETATM   21  C   UNL     1      -7.376   5.224  72.180  1.00  0.00    -0.092 A  
HETATM   22  C   UNL     1      -6.169   5.152  72.888  1.00  0.00    -0.035 A  
HETATM   23  C   UNL     1      -5.412   7.134  71.778  1.00  0.00    -0.036 A  
BRANCH  19  24
HETATM   24  C   UNL     1      -8.940   6.231  70.494  1.00  0.00    -0.151 A  
HETATM   25  C   UNL     1      -9.186   5.391  69.393  1.00  0.00    -0.150 A  
HETATM   26  C   UNL     1     -10.404   5.412  68.700  1.00  0.00    -0.229 A  
HETATM   27  C   UNL     1     -11.403   6.303  69.070  1.00  0.00    -0.319 A  
HETATM   28  C   UNL     1     -11.192   7.157  70.146  1.00  0.00    -0.295 A  
HETATM   29  C   UNL     1      -9.986   7.108  70.854  1.00  0.00    -0.193 A  
ENDBRANCH  19  24
ENDBRANCH  17  18
ENDBRANCH  13  14
ENDBRANCH  10  13
ENDBRANCH   6   7
ENDBRANCH   5   6
ENDBRANCH   2   5
BRANCH   4  30
HETATM   30  C   UNL     1      -9.775  16.100  67.555  1.00  0.00    -0.233 A  
HETATM   31  C   UNL     1     -10.703  15.322  68.264  1.00  0.00    -0.254 A  
HETATM   32  C   UNL     1      -9.795  16.048  66.159  1.00  0.00    -0.351 A  
HETATM   33  C   UNL     1     -10.817  15.379  65.484  1.00  0.00    -0.384 A  
HETATM   34  C   UNL     1     -11.689  14.593  67.587  1.00  0.00    -0.389 A  
HETATM   35  C   UNL     1     -11.777  14.648  66.191  1.00  0.00    -0.316 A  
BRANCH  35  36
HETATM   36  C   UNL     1     -12.862  13.905  65.440  1.00  0.00    -0.427 C  
BRANCH  36  37
HETATM   37  N   UNL     1     -12.648  12.449  65.427  1.00  0.00    -0.557 NA 
HETATM   38  C   UNL     1     -11.517  12.042  66.266  1.00  0.00    -0.345 C  
HETATM   39  C   UNL     1     -12.532  11.888  64.073  1.00  0.00    -0.313 C  
HETATM   40  C   UNL     1     -11.201  12.208  63.387  1.00  0.00    -0.494 C  
HETATM   41  C   UNL     1     -10.150  12.374  65.662  1.00  0.00    -0.277 C  
HETATM   42  C   UNL     1     -10.003  11.794  64.249  1.00  0.00    -0.287 C  
BRANCH  42  43
HETATM   43  C   UNL     1      -9.830  10.275  64.270  1.00  0.00    -0.288 C  
HETATM   44  N   UNL     1      -9.321   9.726  63.132  1.00  0.00    -0.476 N  
HETATM   45  H2  UNL     1      -9.071  10.291  62.320  1.00  0.00     0.000 HD 
HETATM   46  O   UNL     1     -10.146   9.549  65.207  1.00  0.00    -0.165 OA 
HETATM   47  H1  UNL     1      -9.205   8.712  63.145  1.00  0.00     0.000 HD 
ENDBRANCH  42  43
ENDBRANCH  36  37
ENDBRANCH  35  36
ENDBRANCH   4  30
TORSDOF 11
ENDMDL
MODEL      127
REMARK 921   NORMALIZED FREE ENERGY PREDICTED BY IDOCK:   -4.66 KCAL/MOL
REMARK 922        TOTAL FREE ENERGY PREDICTED BY IDOCK:   -9.28 KCAL/MOL
REMARK 923 INTER-LIGAND FREE ENERGY PREDICTED BY IDOCK:   -7.65 KCAL/MOL
REMARK 924 INTRA-LIGAND FREE ENERGY PREDICTED BY IDOCK:   -1.63 KCAL/MOL
REMARK 927      BINDING AFFINITY PREDICTED BY RF-SCORE:    0.00 PKD
ROOT
HETATM    1  C   UNL     1      -8.804   8.813  72.330  1.00  0.00     0.021 C  
HETATM    2  N   UNL     1      -8.417   8.380  70.996  1.00  0.00    -0.130 N  
HETATM    3  O   UNL     1      -9.674   6.466  71.305  1.00  0.00    -0.173 OA 
HETATM    4  C   UNL     1      -8.974   7.156  70.560  1.00  0.00    -0.155 C  
ENDROOT
BRANCH   2   5
HETATM    5  C   UNL     1      -7.763   9.315  70.079  1.00  0.00    -0.104 C  
BRANCH   5   6
HETATM    6  C   UNL     1      -6.724  10.332  70.579  1.00  0.00    -0.068 C  
BRANCH   6   7
HETATM    7  N   UNL     1      -6.032  10.991  69.446  1.00  0.00    -0.046 NA 
HETATM    8  C   UNL     1      -5.417  12.268  69.836  1.00  0.00    -0.101 C  
HETATM    9  C   UNL     1      -6.874  11.195  68.255  1.00  0.00    -0.068 C  
HETATM   10  C   UNL     1      -7.424  13.544  68.940  1.00  0.00    -0.017 C  
HETATM   11  C   UNL     1      -8.000  12.195  68.499  1.00  0.00    -0.119 C  
HETATM   12  C   UNL     1      -6.438  13.377  70.100  1.00  0.00     0.098 C  
BRANCH  10  13
HETATM   13  O   UNL     1      -6.714  14.145  67.839  1.00  0.00    -0.134 OA 
BRANCH  13  14
HETATM   14  C   UNL     1      -7.089  15.419  67.544  1.00  0.00    -0.192 C  
HETATM   15  H   UNL     1      -8.253  15.292  69.253  1.00  0.00     0.000 HD 
HETATM   16  O   UNL     1      -6.582  16.106  66.671  1.00  0.00    -0.250 OA 
HETATM   17  N   UNL     1      -8.118  15.778  68.367  1.00  0.00    -0.138 N  
BRANCH  17  18
HETATM   18  C   UNL     1      -8.994  16.818  67.995  1.00  0.00    -0.217 A  
HETATM   19  C   UNL     1     -10.119  16.580  67.174  1.00  0.00    -0.274 A  
HETATM   20  C   UNL     1      -9.523  19.176  68.202  1.00  0.00    -0.400 A  
HETATM   21  C   UNL     1     -10.930  17.705  66.903  1.00  0.00     0.116 A  
HETATM   22  C   UNL     1     -10.648  18.978  67.417  1.00  0.00    -0.559 A  
HETATM   23  C   UNL     1      -8.691  18.101  68.484  1.00  0.00    -0.309 A  
BRANCH  19  24
HETATM   24  C   UNL     1     -10.501  15.248  66.613  1.00  0.00    -0.290 A  
HETATM   25  C   UNL     1     -11.467  14.420  67.213  1.00  0.00    -0.377 A  
HETATM   26  C   UNL     1     -11.799  13.165  66.685  1.00  0.00    -0.449 A  
HETATM   27  C   UNL     1     -11.146  12.687  65.556  1.00  0.00    -0.329 A  
HETATM   28  C   UNL     1     -10.178  13.473  64.943  1.00  0.00    -0.351 A  
HETATM   29  C   UNL     1      -9.874  14.739  65.456  1.00  0.00    -0.336 A  
ENDBRANCH  19  24
ENDBRANCH  17  18
ENDBRANCH  13  14
ENDBRANCH  10  13
ENDBRANCH   6   7
ENDBRANCH   5   6
ENDBRANCH   2   5
BRANCH   4  30
HETATM   30  C   UNL     1      -8.820   6.692  69.141  1.00  0.00    -0.129 A  
HETATM   31  C   UNL     1      -9.807   7.069  68.217  1.00  0.00    -0.150 A  
HETATM   32  C   UNL     1      -7.753   5.911  68.688  1.00  0.00    -0.094 A  
HETATM   33  C   UNL     1      -7.581   5.657  67.327  1.00  0.00    -0.089 A  
HETATM   34  C   UNL     1      -9.672   6.757  66.859  1.00  0.00    -0.215 A  
HETATM   35  C   UNL     1      -8.537   6.080  66.398  1.00  0.00    -0.129 A  
BRANCH  35  36
HETATM   36  C   UNL     1      -8.347   5.771  64.927  1.00  0.00    -0.127 C  
BRANCH  36  37
HETATM   37  N   UNL     1      -8.388   4.328  64.641  1.00  0.00    -0.103 NA 
HETATM   38  C   UNL     1      -8.209   4.034  63.216  1.00  0.00    -0.087 C  
HETATM   39  C   UNL     1      -9.587   3.662  65.173  1.00  0.00    -0.167 C  
HETATM   40  C   UNL     1     -10.863   3.974  64.387  1.00  0.00    -0.152 C  
HETATM   41  C   UNL     1      -9.434   4.365  62.360  1.00  0.00    -0.124 C  
HETATM   42  C   UNL     1     -10.697   3.677  62.892  1.00  0.00    -0.184 C  
BRANCH  42  43
HETATM   43  C   UNL     1     -10.686   2.173  62.621  1.00  0.00    -0.157 C  
HETATM   44  N   UNL     1     -11.910   1.588  62.495  1.00  0.00    -0.309 N  
HETATM   45  H2  UNL     1     -12.777   2.120  62.576  1.00  0.00     0.000 HD 
HETATM   46  O   UNL     1      -9.673   1.484  62.549  1.00  0.00    -0.087 OA 
HETATM   47  H1  UNL     1     -11.903   0.584  62.314  1.00  0.00     0.000 HD 
ENDBRANCH  42  43
ENDBRANCH  36  37
ENDBRANCH  35  36
ENDBRANCH   4  30
TORSDOF 11
ENDMDL
MODEL      128
REMARK 921   NORMALIZED FREE ENERGY PREDICTED BY IDOCK:   -4.61 KCAL/MOL
REMARK 922        TOTAL FREE ENERGY PREDICTED BY IDOCK:   -9.20 KCAL/MOL
REMARK 923 INTER-LIGAND FREE ENERGY PREDICTED BY IDOCK:   -9.30 KCAL/MOL
REMARK 924 INTRA-LIGAND FREE ENERGY PREDICTED BY IDOCK:    0.10 KCAL/MOL
REMARK 927      BINDING AFFINITY PREDICTED BY RF-SCORE:    0.00 PKD
ROOT
HETATM    1  C   UNL     1     -10.712   8.971  71.619  1.00  0.00    -0.371 C  
HETATM    2  N   UNL     1     -10.270   8.066  70.568  1.00  0.00    -0.197 N  
HETATM    3  O   UNL     1      -9.092   6.873  72.156  1.00  0.00    -0.133 OA 
HETATM    4  C   UNL     1      -9.462   6.984  70.986  1.00  0.00    -0.159 C  
ENDROOT
BRANCH   2   5
HETATM    5  C   UNL     1     -10.895   8.114  69.245  1.00  0.00    -0.050 C  
BRANCH   5   6
HETATM    6  C   UNL     1     -10.098   8.532  67.998  1.00  0.00    -0.200 C  
BRANCH   6   7
HETATM    7  N   UNL     1     -10.862   9.499  67.173  1.00  0.00    -0.173 NA 
HETATM    8  C   UNL     1     -10.106   9.944  65.994  1.00  0.00    -0.244 C  
HETATM    9  C   UNL     1     -11.355  10.672  67.914  1.00  0.00    -0.268 C  
HETATM   10  C   UNL     1      -9.377  12.049  67.218  1.00  0.00    -0.180 C  
HETATM   11  C   UNL     1     -10.225  11.573  68.402  1.00  0.00    -0.211 C  
HETATM   12  C   UNL     1      -8.940  10.874  66.337  1.00  0.00    -0.186 C  
BRANCH  10  13
HETATM   13  O   UNL     1     -10.155  12.948  66.403  1.00  0.00    -0.257 OA 
BRANCH  13  14
HETATM   14  C   UNL     1     -10.961  13.797  67.097  1.00  0.00    -0.290 C  
HETATM   15  H   UNL     1      -9.222  14.399  68.049  1.00  0.00     0.000 HD 
HETATM   16  O   UNL     1     -12.138  13.996  66.845  1.00  0.00    -0.424 OA 
HETATM   17  N   UNL     1     -10.239  14.362  68.109  1.00  0.00    -0.228 N  
BRANCH  17  18
HETATM   18  C   UNL     1     -10.896  14.893  69.238  1.00  0.00    -0.266 A  
HETATM   19  C   UNL     1     -10.791  16.260  69.579  1.00  0.00    -0.342 A  
HETATM   20  C   UNL     1     -12.377  14.442  71.105  1.00  0.00    -0.428 A  
HETATM   21  C   UNL     1     -11.525  16.668  70.716  1.00  0.00     0.155 A  
HETATM   22  C   UNL     1     -12.314  15.780  71.459  1.00  0.00    -0.514 A  
HETATM   23  C   UNL     1     -11.661  13.995  70.002  1.00  0.00    -0.349 A  
BRANCH  19  24
HETATM   24  C   UNL     1      -9.994  17.272  68.820  1.00  0.00    -0.325 A  
HETATM   25  C   UNL     1     -10.581  18.191  67.931  1.00  0.00    -0.389 A  
HETATM   26  C   UNL     1      -9.816  19.120  67.212  1.00  0.00    -0.408 A  
HETATM   27  C   UNL     1      -8.432  19.132  67.337  1.00  0.00    -0.308 A  
HETATM   28  C   UNL     1      -7.816  18.231  68.197  1.00  0.00    -0.299 A  
HETATM   29  C   UNL     1      -8.588  17.328  68.937  1.00  0.00    -0.170 A  
ENDBRANCH  19  24
ENDBRANCH  17  18
ENDBRANCH  13  14
ENDBRANCH  10  13
ENDBRANCH   6   7
ENDBRANCH   5   6
ENDBRANCH   2   5
BRANCH   4  30
HETATM   30  C   UNL     1      -9.103   5.872  70.044  1.00  0.00    -0.154 A  
HETATM   31  C   UNL     1      -7.793   5.835  69.542  1.00  0.00    -0.093 A  
HETATM   32  C   UNL     1      -9.995   4.874  69.641  1.00  0.00    -0.302 A  
HETATM   33  C   UNL     1      -9.554   3.777  68.901  1.00  0.00    -0.183 A  
HETATM   34  C   UNL     1      -7.364   4.769  68.742  1.00  0.00    -0.061 A  
HETATM   35  C   UNL     1      -8.232   3.711  68.447  1.00  0.00    -0.087 A  
BRANCH  35  36
HETATM   36  C   UNL     1      -7.778   2.526  67.621  1.00  0.00    -0.060 C  
BRANCH  36  37
HETATM   37  N   UNL     1      -7.376   2.905  66.257  1.00  0.00    -0.066 NA 
HETATM   38  C   UNL     1      -7.970   4.176  65.831  1.00  0.00    -0.094 C  
HETATM   39  C   UNL     1      -7.616   1.849  65.262  1.00  0.00    -0.070 C  
HETATM   40  C   UNL     1      -9.093   1.668  64.903  1.00  0.00    -0.123 C  
HETATM   41  C   UNL     1      -9.461   4.079  65.499  1.00  0.00    -0.176 C  
HETATM   42  C   UNL     1      -9.737   2.986  64.459  1.00  0.00    -0.129 C  
BRANCH  42  43
HETATM   43  C   UNL     1      -9.264   3.394  63.063  1.00  0.00    -0.094 C  
HETATM   44  N   UNL     1      -9.947   4.423  62.488  1.00  0.00    -0.324 N  
HETATM   45  H2  UNL     1     -10.722   4.891  62.958  1.00  0.00     0.000 HD 
HETATM   46  O   UNL     1      -8.361   2.842  62.443  1.00  0.00    -0.072 OA 
HETATM   47  H1  UNL     1      -9.631   4.695  61.556  1.00  0.00     0.000 HD 
ENDBRANCH  42  43
ENDBRANCH  36  37
ENDBRANCH  35  36
ENDBRANCH   4  30
TORSDOF 11
ENDMDL
MODEL      129
REMARK 921   NORMALIZED FREE ENERGY PREDICTED BY IDOCK:   -4.54 KCAL/MOL
REMARK 922        TOTAL FREE ENERGY PREDICTED BY IDOCK:   -9.09 KCAL/MOL
REMARK 923 INTER-LIGAND FREE ENERGY PREDICTED BY IDOCK:   -8.92 KCAL/MOL
REMARK 924 INTRA-LIGAND FREE ENERGY PREDICTED BY IDOCK:   -0.17 KCAL/MOL
REMARK 927      BINDING AFFINITY PREDICTED BY RF-SCORE:    0.00 PKD
ROOT
HETATM    1  C   UNL     1     -10.428   8.215  66.903  1.00  0.00    -0.309 C  
HETATM    2  N   UNL     1     -10.044   9.570  67.270  1.00  0.00    -0.200 N  
HETATM    3  O   UNL     1     -10.623  10.258  65.142  1.00  0.00    -0.136 OA 
HETATM    4  C   UNL     1     -10.235  10.554  66.273  1.00  0.00    -0.235 C  
ENDROOT
BRANCH   2   5
HETATM    5  C   UNL     1      -9.789   9.910  68.670  1.00  0.00    -0.158 C  
BRANCH   5   6
HETATM    6  C   UNL     1     -10.865   9.711  69.751  1.00  0.00    -0.250 C  
BRANCH   6   7
HETATM    7  N   UNL     1     -11.090   8.270  70.023  1.00  0.00    -0.200 NA 
HETATM    8  C   UNL     1     -12.202   8.048  70.957  1.00  0.00    -0.185 C  
HETATM    9  C   UNL     1      -9.897   7.549  70.498  1.00  0.00    -0.183 C  
HETATM   10  C   UNL     1     -10.573   7.836  72.896  1.00  0.00    -0.366 C  
HETATM   11  C   UNL     1      -9.443   8.015  71.878  1.00  0.00    -0.240 C  
HETATM   12  C   UNL     1     -11.879   8.461  72.395  1.00  0.00    -0.452 C  
BRANCH  10  13
HETATM   13  O   UNL     1     -10.808   6.430  73.109  1.00  0.00    -0.253 OA 
BRANCH  13  14
HETATM   14  C   UNL     1      -9.711   5.717  73.482  1.00  0.00    -0.154 C  
HETATM   15  H   UNL     1      -9.753   4.966  71.551  1.00  0.00     0.000 HD 
HETATM   16  O   UNL     1      -9.108   5.870  74.532  1.00  0.00    -0.126 OA 
HETATM   17  N   UNL     1      -9.421   4.810  72.502  1.00  0.00    -0.134 N  
BRANCH  17  18
HETATM   18  C   UNL     1      -8.663   3.660  72.803  1.00  0.00    -0.094 A  
HETATM   19  C   UNL     1      -8.143   2.830  71.785  1.00  0.00    -0.057 A  
HETATM   20  C   UNL     1      -7.679   2.296  74.551  1.00  0.00    -0.046 A  
HETATM   21  C   UNL     1      -7.376   1.727  72.223  1.00  0.00    -0.038 A  
HETATM   22  C   UNL     1      -7.135   1.470  73.579  1.00  0.00    -0.023 A  
HETATM   23  C   UNL     1      -8.450   3.384  74.165  1.00  0.00    -0.084 A  
BRANCH  19  24
HETATM   24  C   UNL     1      -8.332   3.055  70.319  1.00  0.00    -0.080 A  
HETATM   25  C   UNL     1      -9.448   2.571  69.612  1.00  0.00    -0.124 A  
HETATM   26  C   UNL     1      -9.600   2.774  68.234  1.00  0.00    -0.108 A  
HETATM   27  C   UNL     1      -8.617   3.442  67.514  1.00  0.00    -0.117 A  
HETATM   28  C   UNL     1      -7.495   3.925  68.176  1.00  0.00    -0.062 A  
HETATM   29  C   UNL     1      -7.365   3.747  69.558  1.00  0.00    -0.052 A  
ENDBRANCH  19  24
ENDBRANCH  17  18
ENDBRANCH  13  14
ENDBRANCH  10  13
ENDBRANCH   6   7
ENDBRANCH   5   6
ENDBRANCH   2   5
BRANCH   4  30
HETATM   30  C   UNL     1     -10.070  12.014  66.580  1.00  0.00    -0.220 A  
HETATM   31  C   UNL     1     -11.217  12.822  66.561  1.00  0.00    -0.349 A  
HETATM   32  C   UNL     1      -8.843  12.613  66.882  1.00  0.00    -0.201 A  
HETATM   33  C   UNL     1      -8.783  13.935  67.322  1.00  0.00    -0.225 A  
HETATM   34  C   UNL     1     -11.149  14.170  66.937  1.00  0.00    -0.312 A  
HETATM   35  C   UNL     1      -9.936  14.726  67.358  1.00  0.00    -0.223 A  
BRANCH  35  36
HETATM   36  C   UNL     1      -9.846  16.169  67.812  1.00  0.00    -0.232 C  
BRANCH  36  37
HETATM   37  N   UNL     1      -9.081  17.010  66.879  1.00  0.00    -0.228 NA 
HETATM   38  C   UNL     1      -7.703  17.233  67.326  1.00  0.00    -0.188 C  
HETATM   39  C   UNL     1      -9.747  18.283  66.560  1.00  0.00    -0.343 C  
HETATM   40  C   UNL     1      -9.701  19.303  67.701  1.00  0.00    -0.412 C  
HETATM   41  C   UNL     1      -7.586  18.210  68.499  1.00  0.00    -0.298 C  
HETATM   42  C   UNL     1      -8.268  19.547  68.188  1.00  0.00    -0.352 C  
BRANCH  42  43
HETATM   43  C   UNL     1      -7.472  20.376  67.180  1.00  0.00    -0.314 C  
HETATM   44  N   UNL     1      -6.440  21.100  67.697  1.00  0.00    -0.356 N  
HETATM   45  H2  UNL     1      -6.214  21.090  68.692  1.00  0.00     0.000 HD 
HETATM   46  O   UNL     1      -7.723  20.447  65.982  1.00  0.00    -0.200 OA 
HETATM   47  H1  UNL     1      -5.908  21.653  67.024  1.00  0.00     0.000 HD 
ENDBRANCH  42  43
ENDBRANCH  36  37
ENDBRANCH  35  36
ENDBRANCH   4  30
TORSDOF 11
ENDMDL
MODEL      130
REMARK 921   NORMALIZED FREE ENERGY PREDICTED BY IDOCK:   -4.51 KCAL/MOL
REMARK 922        TOTAL FREE ENERGY PREDICTED BY IDOCK:   -9.04 KCAL/MOL
REMARK 923 INTER-LIGAND FREE ENERGY PREDICTED BY IDOCK:   -8.95 KCAL/MOL
REMARK 924 INTRA-LIGAND FREE ENERGY PREDICTED BY IDOCK:   -0.09 KCAL/MOL
REMARK 927      BINDING AFFINITY PREDICTED BY RF-SCORE:    0.00 PKD
ROOT
HETATM    1  C   UNL     1     -10.421   9.379  66.758  1.00  0.00    -0.195 C  
HETATM    2  N   UNL     1     -10.126  10.792  66.571  1.00  0.00    -0.220 N  
HETATM    3  O   UNL     1     -12.125  11.298  67.612  1.00  0.00    -0.600 OA 
HETATM    4  C   UNL     1     -11.076  11.695  67.101  1.00  0.00    -0.299 C  
ENDROOT
BRANCH   2   5
HETATM    5  C   UNL     1      -8.789  11.216  66.152  1.00  0.00    -0.190 C  
BRANCH   5   6
HETATM    6  C   UNL     1      -7.544  10.374  66.474  1.00  0.00    -0.118 C  
BRANCH   6   7
HETATM    7  N   UNL     1      -6.937  10.787  67.763  1.00  0.00    -0.076 NA 
HETATM    8  C   UNL     1      -5.751   9.988  68.101  1.00  0.00    -0.038 C  
HETATM    9  C   UNL     1      -7.871  10.786  68.902  1.00  0.00    -0.136 C  
HETATM   10  C   UNL     1      -7.149   8.488  69.602  1.00  0.00    -0.052 C  
HETATM   11  C   UNL     1      -8.347   9.383  69.267  1.00  0.00    -0.131 C  
HETATM   12  C   UNL     1      -6.083   8.550  68.504  1.00  0.00    -0.046 C  
BRANCH  10  13
HETATM   13  O   UNL     1      -6.545   8.936  70.831  1.00  0.00    -0.047 OA 
BRANCH  13  14
HETATM   14  C   UNL     1      -7.029   8.342  71.956  1.00  0.00    -0.091 C  
HETATM   15  H   UNL     1      -7.314   6.681  70.751  1.00  0.00     0.000 HD 
HETATM   16  O   UNL     1      -6.969   8.825  73.076  1.00  0.00    -0.318 OA 
HETATM   17  N   UNL     1      -7.592   7.146  71.615  1.00  0.00    -0.087 N  
BRANCH  17  18
HETATM   18  C   UNL     1      -8.555   6.551  72.456  1.00  0.00    -0.121 A  
HETATM   19  C   UNL     1      -8.788   5.157  72.443  1.00  0.00    -0.131 A  
HETATM   20  C   UNL     1     -10.205   6.908  74.198  1.00  0.00    -0.331 A  
HETATM   21  C   UNL     1      -9.759   4.688  73.356  1.00  0.00    -0.152 A  
HETATM   22  C   UNL     1     -10.446   5.543  74.228  1.00  0.00    -0.275 A  
HETATM   23  C   UNL     1      -9.268   7.413  73.306  1.00  0.00    -0.233 A  
BRANCH  19  24
HETATM   24  C   UNL     1      -8.075   4.179  71.564  1.00  0.00    -0.082 A  
HETATM   25  C   UNL     1      -7.141   4.574  70.589  1.00  0.00    -0.041 A  
HETATM   26  C   UNL     1      -6.497   3.645  69.760  1.00  0.00    -0.033 A  
HETATM   27  C   UNL     1      -6.795   2.293  69.862  1.00  0.00    -0.033 A  
HETATM   28  C   UNL     1      -7.721   1.867  70.807  1.00  0.00    -0.035 A  
HETATM   29  C   UNL     1      -8.337   2.795  71.654  1.00  0.00    -0.079 A  
ENDBRANCH  19  24
ENDBRANCH  17  18
ENDBRANCH  13  14
ENDBRANCH  10  13
ENDBRANCH   6   7
ENDBRANCH   5   6
ENDBRANCH   2   5
BRANCH   4  30
HETATM   30  C   UNL     1     -10.803  13.170  67.155  1.00  0.00    -0.271 A  
HETATM   31  C   UNL     1     -11.074  13.928  66.005  1.00  0.00    -0.289 A  
HETATM   32  C   UNL     1     -10.298  13.828  68.279  1.00  0.00    -0.247 A  
HETATM   33  C   UNL     1     -10.227  15.221  68.320  1.00  0.00    -0.226 A  
HETATM   34  C   UNL     1     -10.938  15.322  66.020  1.00  0.00    -0.317 A  
HETATM   35  C   UNL     1     -10.550  15.983  67.192  1.00  0.00    -0.305 A  
BRANCH  35  36
HETATM   36  C   UNL     1     -10.440  17.493  67.246  1.00  0.00    -0.327 C  
BRANCH  36  37
HETATM   37  N   UNL     1      -9.514  18.030  66.236  1.00  0.00    -0.449 NA 
HETATM   38  C   UNL     1      -8.144  17.540  66.415  1.00  0.00    -0.274 C  
HETATM   39  C   UNL     1      -9.543  19.497  66.140  1.00  0.00    -0.362 C  
HETATM   40  C   UNL     1      -8.859  20.204  67.314  1.00  0.00    -0.445 C  
HETATM   41  C   UNL     1      -7.413  18.172  67.602  1.00  0.00    -0.218 C  
HETATM   42  C   UNL     1      -7.426  19.703  67.522  1.00  0.00    -0.292 C  
BRANCH  42  43
HETATM   43  C   UNL     1      -6.490  20.226  66.432  1.00  0.00    -0.212 C  
HETATM   44  N   UNL     1      -7.034  21.136  65.576  1.00  0.00    -0.368 N  
HETATM   45  H2  UNL     1      -8.001  21.448  65.658  1.00  0.00     0.000 HD 
HETATM   46  O   UNL     1      -5.331  19.858  66.271  1.00  0.00    -0.161 OA 
HETATM   47  H1  UNL     1      -6.409  21.485  64.849  1.00  0.00     0.000 HD 
ENDBRANCH  42  43
ENDBRANCH  36  37
ENDBRANCH  35  36
ENDBRANCH   4  30
TORSDOF 11
ENDMDL
MODEL      131
REMARK 921   NORMALIZED FREE ENERGY PREDICTED BY IDOCK:   -4.50 KCAL/MOL
REMARK 922        TOTAL FREE ENERGY PREDICTED BY IDOCK:   -9.02 KCAL/MOL
REMARK 923 INTER-LIGAND FREE ENERGY PREDICTED BY IDOCK:   -7.51 KCAL/MOL
REMARK 924 INTRA-LIGAND FREE ENERGY PREDICTED BY IDOCK:   -1.51 KCAL/MOL
REMARK 927      BINDING AFFINITY PREDICTED BY RF-SCORE:    0.00 PKD
ROOT
HETATM    1  C   UNL     1     -12.964   7.048  71.834  1.00  0.00    -0.240 C  
HETATM    2  N   UNL     1     -11.713   6.671  71.194  1.00  0.00    -0.331 N  
HETATM    3  O   UNL     1     -11.082   5.625  73.154  1.00  0.00    -0.272 OA 
HETATM    4  C   UNL     1     -10.832   5.891  71.977  1.00  0.00    -0.252 C  
ENDROOT
BRANCH   2   5
HETATM    5  C   UNL     1     -11.549   6.827  69.748  1.00  0.00    -0.227 C  
BRANCH   5   6
HETATM    6  C   UNL     1     -10.669   7.940  69.157  1.00  0.00    -0.117 C  
BRANCH   6   7
HETATM    7  N   UNL     1     -11.496   9.015  68.557  1.00  0.00     0.605 NA 
HETATM    8  C   UNL     1     -10.783   9.739  67.496  1.00  0.00    -0.264 C  
HETATM    9  C   UNL     1     -12.040   9.977  69.530  1.00  0.00     0.248 C  
HETATM   10  C   UNL     1     -10.149  11.576  69.133  1.00  0.00     0.031 C  
HETATM   11  C   UNL     1     -10.952  10.816  70.193  1.00  0.00    -0.230 C  
HETATM   12  C   UNL     1      -9.663  10.639  68.023  1.00  0.00    -0.170 C  
BRANCH  10  13
HETATM   13  O   UNL     1     -10.985  12.583  68.529  1.00  0.00    -0.227 OA 
BRANCH  13  14
HETATM   14  C   UNL     1     -10.391  13.795  68.361  1.00  0.00    -0.247 C  
HETATM   15  H   UNL     1     -12.323  14.534  68.234  1.00  0.00     0.000 HD 
HETATM   16  O   UNL     1      -9.197  14.007  68.497  1.00  0.00    -0.198 OA 
HETATM   17  N   UNL     1     -11.343  14.708  68.008  1.00  0.00    -0.296 N  
BRANCH  17  18
HETATM   18  C   UNL     1     -10.977  15.890  67.332  1.00  0.00    -0.257 A  
HETATM   19  C   UNL     1     -10.896  15.941  65.922  1.00  0.00    -0.237 A  
HETATM   20  C   UNL     1     -10.372  18.229  67.548  1.00  0.00    -0.415 A  
HETATM   21  C   UNL     1     -10.548  17.195  65.373  1.00  0.00    -0.116 A  
HETATM   22  C   UNL     1     -10.303  18.323  66.167  1.00  0.00    -0.414 A  
HETATM   23  C   UNL     1     -10.699  17.012  68.132  1.00  0.00    -0.374 A  
BRANCH  19  24
HETATM   24  C   UNL     1     -11.171  14.791  65.008  1.00  0.00    -0.399 A  
HETATM   25  C   UNL     1     -12.396  14.631  64.335  1.00  0.00    -0.420 A  
HETATM   26  C   UNL     1     -12.644  13.535  63.496  1.00  0.00    -0.063 A  
HETATM   27  C   UNL     1     -11.681  12.546  63.335  1.00  0.00    -0.567 A  
HETATM   28  C   UNL     1     -10.464  12.665  63.994  1.00  0.00    -0.443 A  
HETATM   29  C   UNL     1     -10.210  13.778  64.804  1.00  0.00    -0.362 A  
ENDBRANCH  19  24
ENDBRANCH  17  18
ENDBRANCH  13  14
ENDBRANCH  10  13
ENDBRANCH   6   7
ENDBRANCH   5   6
ENDBRANCH   2   5
BRANCH   4  30
HETATM   30  C   UNL     1      -9.603   5.269  71.380  1.00  0.00    -0.209 A  
HETATM   31  C   UNL     1      -9.631   3.892  71.108  1.00  0.00    -0.244 A  
HETATM   32  C   UNL     1      -8.437   5.979  71.080  1.00  0.00    -0.124 A  
HETATM   33  C   UNL     1      -7.396   5.378  70.373  1.00  0.00    -0.070 A  
HETATM   34  C   UNL     1      -8.558   3.270  70.458  1.00  0.00    -0.113 A  
HETATM   35  C   UNL     1      -7.447   4.018  70.051  1.00  0.00    -0.045 A  
BRANCH  35  36
HETATM   36  C   UNL     1      -6.294   3.375  69.307  1.00  0.00    -0.029 C  
BRANCH  36  37
HETATM   37  N   UNL     1      -6.197   3.831  67.911  1.00  0.00    -0.032 NA 
HETATM   38  C   UNL     1      -7.511   4.008  67.286  1.00  0.00    -0.072 C  
HETATM   39  C   UNL     1      -5.324   2.986  67.081  1.00  0.00    -0.016 C  
HETATM   40  C   UNL     1      -5.943   1.633  66.719  1.00  0.00    -0.019 C  
HETATM   41  C   UNL     1      -8.210   2.691  66.938  1.00  0.00    -0.083 C  
HETATM   42  C   UNL     1      -7.321   1.794  66.068  1.00  0.00    -0.060 C  
BRANCH  42  43
HETATM   43  C   UNL     1      -7.202   2.322  64.638  1.00  0.00    -0.054 C  
HETATM   44  N   UNL     1      -6.478   1.547  63.783  1.00  0.00    -0.014 N  
HETATM   45  H2  UNL     1      -6.044   0.672  64.077  1.00  0.00     0.000 HD 
HETATM   46  O   UNL     1      -7.676   3.382  64.243  1.00  0.00    -0.075 OA 
HETATM   47  H1  UNL     1      -6.399   1.899  62.828  1.00  0.00     0.000 HD 
ENDBRANCH  42  43
ENDBRANCH  36  37
ENDBRANCH  35  36
ENDBRANCH   4  30
TORSDOF 11
ENDMDL
MODEL      132
REMARK 921   NORMALIZED FREE ENERGY PREDICTED BY IDOCK:   -4.48 KCAL/MOL
REMARK 922        TOTAL FREE ENERGY PREDICTED BY IDOCK:   -8.99 KCAL/MOL
REMARK 923 INTER-LIGAND FREE ENERGY PREDICTED BY IDOCK:   -6.47 KCAL/MOL
REMARK 924 INTRA-LIGAND FREE ENERGY PREDICTED BY IDOCK:   -2.52 KCAL/MOL
REMARK 927      BINDING AFFINITY PREDICTED BY RF-SCORE:    0.00 PKD
ROOT
HETATM    1  C   UNL     1     -10.516  17.582  68.752  1.00  0.00    -0.318 C  
HETATM    2  N   UNL     1     -10.514  16.219  69.264  1.00  0.00    -0.264 N  
HETATM    3  O   UNL     1     -12.823  16.290  69.322  1.00  0.00     0.506 OA 
HETATM    4  C   UNL     1     -11.786  15.641  69.480  1.00  0.00    -0.372 C  
ENDROOT
BRANCH   2   5
HETATM    5  C   UNL     1      -9.286  15.424  69.238  1.00  0.00    -0.259 C  
BRANCH   5   6
HETATM    6  C   UNL     1      -8.069  15.858  68.404  1.00  0.00    -0.149 C  
BRANCH   6   7
HETATM    7  N   UNL     1      -6.848  15.124  68.816  1.00  0.00    -0.104 NA 
HETATM    8  C   UNL     1      -6.105  14.590  67.666  1.00  0.00    -0.052 C  
HETATM    9  C   UNL     1      -7.088  14.046  69.790  1.00  0.00     0.169 C  
HETATM   10  C   UNL     1      -7.195  12.315  67.978  1.00  0.00    -0.102 C  
HETATM   11  C   UNL     1      -7.905  12.899  69.204  1.00  0.00     0.388 C  
HETATM   12  C   UNL     1      -6.807  13.414  66.983  1.00  0.00     0.561 C  
BRANCH  10  13
HETATM   13  O   UNL     1      -5.987  11.649  68.395  1.00  0.00    -0.049 OA 
BRANCH  13  14
HETATM   14  C   UNL     1      -6.056  10.290  68.400  1.00  0.00    -0.044 C  
HETATM   15  H   UNL     1      -6.374  10.468  66.360  1.00  0.00     0.000 HD 
HETATM   16  O   UNL     1      -5.784   9.586  69.359  1.00  0.00    -0.035 OA 
HETATM   17  N   UNL     1      -6.487   9.866  67.175  1.00  0.00    -0.068 N  
BRANCH  17  18
HETATM   18  C   UNL     1      -7.086   8.598  67.035  1.00  0.00    -0.075 A  
HETATM   19  C   UNL     1      -8.389   8.450  66.508  1.00  0.00    -0.111 A  
HETATM   20  C   UNL     1      -6.817   6.202  67.301  1.00  0.00    -0.063 A  
HETATM   21  C   UNL     1      -8.857   7.122  66.393  1.00  0.00    -0.161 A  
HETATM   22  C   UNL     1      -8.084   6.016  66.769  1.00  0.00    -0.105 A  
HETATM   23  C   UNL     1      -6.322   7.491  67.444  1.00  0.00    -0.053 A  
BRANCH  19  24
HETATM   24  C   UNL     1      -9.262   9.577  66.059  1.00  0.00    -0.248 A  
HETATM   25  C   UNL     1     -10.596   9.721  66.482  1.00  0.00    -0.150 A  
HETATM   26  C   UNL     1     -11.407  10.773  66.035  1.00  0.00     0.434 A  
HETATM   27  C   UNL     1     -10.914  11.696  65.121  1.00  0.00    -0.326 A  
HETATM   28  C   UNL     1      -9.604  11.579  64.672  1.00  0.00    -0.186 A  
HETATM   29  C   UNL     1      -8.789  10.545  65.147  1.00  0.00    -0.206 A  
ENDBRANCH  19  24
ENDBRANCH  17  18
ENDBRANCH  13  14
ENDBRANCH  10  13
ENDBRANCH   6   7
ENDBRANCH   5   6
ENDBRANCH   2   5
BRANCH   4  30
HETATM   30  C   UNL     1     -11.933  14.185  69.814  1.00  0.00    -0.396 A  
HETATM   31  C   UNL     1     -12.362  13.850  71.107  1.00  0.00    -0.440 A  
HETATM   32  C   UNL     1     -11.669  13.149  68.914  1.00  0.00    -0.368 A  
HETATM   33  C   UNL     1     -11.986  11.828  69.232  1.00  0.00    -0.354 A  
HETATM   34  C   UNL     1     -12.617  12.517  71.453  1.00  0.00    -0.297 A  
HETATM   35  C   UNL     1     -12.467  11.499  70.504  1.00  0.00    -0.367 A  
BRANCH  35  36
HETATM   36  C   UNL     1     -12.780  10.055  70.840  1.00  0.00    -0.325 C  
BRANCH  36  37
HETATM   37  N   UNL     1     -11.769   9.446  71.717  1.00  0.00    -0.385 NA 
HETATM   38  C   UNL     1     -10.492   9.224  71.032  1.00  0.00    -0.314 C  
HETATM   39  C   UNL     1     -12.234   8.217  72.379  1.00  0.00    -0.352 C  
HETATM   40  C   UNL     1     -12.321   7.009  71.443  1.00  0.00    -0.419 C  
HETATM   41  C   UNL     1     -10.519   8.056  70.042  1.00  0.00    -0.228 C  
HETATM   42  C   UNL     1     -10.996   6.762  70.711  1.00  0.00    -0.306 C  
BRANCH  42  43
HETATM   43  C   UNL     1      -9.941   6.181  71.652  1.00  0.00    -0.177 C  
HETATM   44  N   UNL     1      -8.658   6.224  71.195  1.00  0.00    -0.125 N  
HETATM   45  H2  UNL     1      -8.417   6.619  70.286  1.00  0.00     0.000 HD 
HETATM   46  O   UNL     1     -10.182   5.666  72.738  1.00  0.00    -0.176 OA 
HETATM   47  H1  UNL     1      -7.953   5.837  71.823  1.00  0.00     0.000 HD 
ENDBRANCH  42  43
ENDBRANCH  36  37
ENDBRANCH  35  36
ENDBRANCH   4  30
TORSDOF 11
ENDMDL
MODEL      133
REMARK 921   NORMALIZED FREE ENERGY PREDICTED BY IDOCK:   -4.48 KCAL/MOL
REMARK 922        TOTAL FREE ENERGY PREDICTED BY IDOCK:   -8.99 KCAL/MOL
REMARK 923 INTER-LIGAND FREE ENERGY PREDICTED BY IDOCK:   -8.75 KCAL/MOL
REMARK 924 INTRA-LIGAND FREE ENERGY PREDICTED BY IDOCK:   -0.24 KCAL/MOL
REMARK 927      BINDING AFFINITY PREDICTED BY RF-SCORE:    0.00 PKD
ROOT
HETATM    1  C   UNL     1     -11.252   9.614  68.341  1.00  0.00     0.055 C  
HETATM    2  N   UNL     1     -10.442  10.626  67.679  1.00  0.00    -0.212 N  
HETATM    3  O   UNL     1     -11.849  12.244  68.538  1.00  0.00    -0.316 OA 
HETATM    4  C   UNL     1     -10.834  11.967  67.896  1.00  0.00    -0.213 C  
ENDROOT
BRANCH   2   5
HETATM    5  C   UNL     1      -9.142  10.271  67.108  1.00  0.00    -0.142 C  
BRANCH   5   6
HETATM    6  C   UNL     1      -7.858  10.318  67.951  1.00  0.00    -0.101 C  
BRANCH   6   7
HETATM    7  N   UNL     1      -8.071   9.707  69.285  1.00  0.00    -0.098 NA 
HETATM    8  C   UNL     1      -7.037  10.106  70.252  1.00  0.00    -0.138 C  
HETATM    9  C   UNL     1      -8.189   8.239  69.270  1.00  0.00    -0.118 C  
HETATM   10  C   UNL     1      -5.758   7.953  69.820  1.00  0.00    -0.023 C  
HETATM   11  C   UNL     1      -6.887   7.552  68.865  1.00  0.00    -0.068 C  
HETATM   12  C   UNL     1      -5.672   9.474  69.974  1.00  0.00    -0.036 C  
BRANCH  10  13
HETATM   13  O   UNL     1      -6.010   7.389  71.123  1.00  0.00    -0.035 OA 
BRANCH  13  14
HETATM   14  C   UNL     1      -6.667   6.198  71.113  1.00  0.00    -0.058 C  
HETATM   15  H   UNL     1      -8.295   7.284  71.794  1.00  0.00     0.000 HD 
HETATM   16  O   UNL     1      -6.222   5.165  70.639  1.00  0.00    -0.021 OA 
HETATM   17  N   UNL     1      -7.876   6.356  71.728  1.00  0.00    -0.100 N  
BRANCH  17  18
HETATM   18  C   UNL     1      -8.547   5.242  72.271  1.00  0.00    -0.126 A  
HETATM   19  C   UNL     1      -9.493   4.509  71.519  1.00  0.00    -0.214 A  
HETATM   20  C   UNL     1      -8.805   3.787  74.195  1.00  0.00    -0.088 A  
HETATM   21  C   UNL     1     -10.068   3.396  72.174  1.00  0.00    -0.200 A  
HETATM   22  C   UNL     1      -9.723   3.032  73.482  1.00  0.00    -0.144 A  
HETATM   23  C   UNL     1      -8.224   4.897  73.595  1.00  0.00    -0.106 A  
BRANCH  19  24
HETATM   24  C   UNL     1      -9.890   4.818  70.112  1.00  0.00    -0.308 A  
HETATM   25  C   UNL     1      -9.296   4.193  68.999  1.00  0.00    -0.232 A  
HETATM   26  C   UNL     1      -9.668   4.510  67.686  1.00  0.00    -0.206 A  
HETATM   27  C   UNL     1     -10.623   5.490  67.445  1.00  0.00    -0.274 A  
HETATM   28  C   UNL     1     -11.222   6.136  68.519  1.00  0.00    -0.241 A  
HETATM   29  C   UNL     1     -10.872   5.792  69.830  1.00  0.00    -0.419 A  
ENDBRANCH  19  24
ENDBRANCH  17  18
ENDBRANCH  13  14
ENDBRANCH  10  13
ENDBRANCH   6   7
ENDBRANCH   5   6
ENDBRANCH   2   5
BRANCH   4  30
HETATM   30  C   UNL     1      -9.977  13.111  67.440  1.00  0.00    -0.229 A  
HETATM   31  C   UNL     1     -10.255  13.680  66.187  1.00  0.00    -0.306 A  
HETATM   32  C   UNL     1      -8.923  13.642  68.189  1.00  0.00    -0.191 A  
HETATM   33  C   UNL     1      -8.277  14.810  67.785  1.00  0.00    -0.167 A  
HETATM   34  C   UNL     1      -9.561  14.813  65.746  1.00  0.00    -0.289 A  
HETATM   35  C   UNL     1      -8.592  15.411  66.561  1.00  0.00    -0.294 A  
BRANCH  35  36
HETATM   36  C   UNL     1      -7.860  16.664  66.126  1.00  0.00    -0.162 C  
BRANCH  36  37
HETATM   37  N   UNL     1      -8.738  17.843  66.071  1.00  0.00    -0.508 NA 
HETATM   38  C   UNL     1      -8.056  19.070  66.494  1.00  0.00    -0.289 C  
HETATM   39  C   UNL     1     -10.003  17.663  66.799  1.00  0.00    -0.320 C  
HETATM   40  C   UNL     1      -9.847  17.703  68.322  1.00  0.00    -0.324 C  
HETATM   41  C   UNL     1      -7.824  19.157  68.005  1.00  0.00    -0.325 C  
HETATM   42  C   UNL     1      -9.131  18.976  68.787  1.00  0.00    -0.374 C  
BRANCH  42  43
HETATM   43  C   UNL     1     -10.040  20.200  68.670  1.00  0.00    -0.247 C  
HETATM   44  N   UNL     1     -10.645  20.596  69.825  1.00  0.00    -0.292 N  
HETATM   45  H2  UNL     1     -10.501  20.108  70.709  1.00  0.00     0.000 HD 
HETATM   46  O   UNL     1     -10.273  20.800  67.626  1.00  0.00    -0.255 OA 
HETATM   47  H1  UNL     1     -11.252  21.413  69.747  1.00  0.00     0.000 HD 
ENDBRANCH  42  43
ENDBRANCH  36  37
ENDBRANCH  35  36
ENDBRANCH   4  30
TORSDOF 11
ENDMDL
MODEL      134
REMARK 921   NORMALIZED FREE ENERGY PREDICTED BY IDOCK:   -4.41 KCAL/MOL
REMARK 922        TOTAL FREE ENERGY PREDICTED BY IDOCK:   -8.87 KCAL/MOL
REMARK 923 INTER-LIGAND FREE ENERGY PREDICTED BY IDOCK:   -8.32 KCAL/MOL
REMARK 924 INTRA-LIGAND FREE ENERGY PREDICTED BY IDOCK:   -0.56 KCAL/MOL
REMARK 927      BINDING AFFINITY PREDICTED BY RF-SCORE:    0.00 PKD
ROOT
HETATM    1  C   UNL     1      -5.162  16.135  71.087  1.00  0.00    -0.075 C  
HETATM    2  N   UNL     1      -6.250  16.006  70.129  1.00  0.00    -0.123 N  
HETATM    3  O   UNL     1      -6.155  18.288  69.786  1.00  0.00    -0.244 OA 
HETATM    4  C   UNL     1      -6.648  17.200  69.485  1.00  0.00    -0.181 C  
ENDROOT
BRANCH   2   5
HETATM    5  C   UNL     1      -6.659  14.683  69.653  1.00  0.00    -0.155 C  
BRANCH   5   6
HETATM    6  C   UNL     1      -6.111  13.398  70.293  1.00  0.00    -0.099 C  
BRANCH   6   7
HETATM    7  N   UNL     1      -5.746  12.399  69.260  1.00  0.00    -0.074 NA 
HETATM    8  C   UNL     1      -6.556  12.537  68.041  1.00  0.00    -0.086 C  
HETATM    9  C   UNL     1      -5.789  11.002  69.724  1.00  0.00    -0.071 C  
HETATM   10  C   UNL     1      -8.111  10.688  68.827  1.00  0.00    -0.139 C  
HETATM   11  C   UNL     1      -7.206  10.540  70.054  1.00  0.00    -0.105 C  
HETATM   12  C   UNL     1      -8.008  12.092  68.225  1.00  0.00    -0.163 C  
BRANCH  10  13
HETATM   13  O   UNL     1      -7.708   9.741  67.817  1.00  0.00    -0.090 OA 
BRANCH  13  14
HETATM   14  C   UNL     1      -8.525   8.662  67.686  1.00  0.00    -0.125 C  
HETATM   15  H   UNL     1      -7.040   7.627  68.695  1.00  0.00     0.000 HD 
HETATM   16  O   UNL     1      -9.674   8.708  67.274  1.00  0.00    -0.162 OA 
HETATM   17  N   UNL     1      -7.845   7.543  68.074  1.00  0.00    -0.119 N  
BRANCH  17  18
HETATM   18  C   UNL     1      -8.251   6.273  67.618  1.00  0.00    -0.117 A  
HETATM   19  C   UNL     1      -9.249   5.530  68.288  1.00  0.00    -0.118 A  
HETATM   20  C   UNL     1      -7.982   4.561  65.920  1.00  0.00    -0.099 A  
HETATM   21  C   UNL     1      -9.583   4.286  67.707  1.00  0.00    -0.210 A  
HETATM   22  C   UNL     1      -8.972   3.813  66.538  1.00  0.00    -0.143 A  
HETATM   23  C   UNL     1      -7.614   5.785  66.464  1.00  0.00    -0.091 A  
BRANCH  19  24
HETATM   24  C   UNL     1      -9.966   5.980  69.520  1.00  0.00    -0.225 A  
HETATM   25  C   UNL     1     -11.352   6.217  69.550  1.00  0.00    -0.475 A  
HETATM   26  C   UNL     1     -12.005   6.658  70.710  1.00  0.00    -0.412 A  
HETATM   27  C   UNL     1     -11.279   6.908  71.868  1.00  0.00    -0.287 A  
HETATM   28  C   UNL     1      -9.906   6.696  71.872  1.00  0.00    -0.174 A  
HETATM   29  C   UNL     1      -9.265   6.224  70.721  1.00  0.00    -0.160 A  
ENDBRANCH  19  24
ENDBRANCH  17  18
ENDBRANCH  13  14
ENDBRANCH  10  13
ENDBRANCH   6   7
ENDBRANCH   5   6
ENDBRANCH   2   5
BRANCH   4  30
HETATM   30  C   UNL     1      -7.616  17.179  68.337  1.00  0.00    -0.231 A  
HETATM   31  C   UNL     1      -7.225  16.518  67.162  1.00  0.00    -0.223 A  
HETATM   32  C   UNL     1      -8.878  17.779  68.372  1.00  0.00    -0.285 A  
HETATM   33  C   UNL     1      -9.792  17.579  67.337  1.00  0.00    -0.297 A  
HETATM   34  C   UNL     1      -8.117  16.374  66.093  1.00  0.00    -0.193 A  
HETATM   35  C   UNL     1      -9.422  16.872  66.188  1.00  0.00    -0.274 A  
BRANCH  35  36
HETATM   36  C   UNL     1     -10.420  16.689  65.062  1.00  0.00     0.029 C  
BRANCH  36  37
HETATM   37  N   UNL     1     -11.472  15.715  65.390  1.00  0.00    -0.063 NA 
HETATM   38  C   UNL     1     -11.244  15.056  66.680  1.00  0.00    -0.311 C  
HETATM   39  C   UNL     1     -11.706  14.728  64.325  1.00  0.00    -0.258 C  
HETATM   40  C   UNL     1     -10.602  13.673  64.211  1.00  0.00    -0.245 C  
HETATM   41  C   UNL     1     -10.119  14.018  66.651  1.00  0.00    -0.276 C  
HETATM   42  C   UNL     1     -10.343  12.974  65.551  1.00  0.00    -0.304 C  
BRANCH  42  43
HETATM   43  C   UNL     1     -11.475  12.008  65.902  1.00  0.00    -0.333 C  
HETATM   44  N   UNL     1     -11.139  10.989  66.743  1.00  0.00    -0.229 N  
HETATM   45  H2  UNL     1     -10.196  10.879  67.114  1.00  0.00     0.000 HD 
HETATM   46  O   UNL     1     -12.616  12.077  65.457  1.00  0.00    -0.300 OA 
HETATM   47  H1  UNL     1     -11.895  10.345  66.977  1.00  0.00     0.000 HD 
ENDBRANCH  42  43
ENDBRANCH  36  37
ENDBRANCH  35  36
ENDBRANCH   4  30
TORSDOF 11
ENDMDL
MODEL      135
REMARK 921   NORMALIZED FREE ENERGY PREDICTED BY IDOCK:   -4.40 KCAL/MOL
REMARK 922        TOTAL FREE ENERGY PREDICTED BY IDOCK:   -8.86 KCAL/MOL
REMARK 923 INTER-LIGAND FREE ENERGY PREDICTED BY IDOCK:   -7.54 KCAL/MOL
REMARK 924 INTRA-LIGAND FREE ENERGY PREDICTED BY IDOCK:   -1.33 KCAL/MOL
REMARK 927      BINDING AFFINITY PREDICTED BY RF-SCORE:    0.00 PKD
ROOT
HETATM    1  C   UNL     1     -12.912  14.332  65.217  1.00  0.00    -0.173 C  
HETATM    2  N   UNL     1     -11.933  13.257  65.282  1.00  0.00    -0.364 N  
HETATM    3  O   UNL     1     -12.360  12.799  63.058  1.00  0.00    -0.462 OA 
HETATM    4  C   UNL     1     -11.704  12.559  64.074  1.00  0.00    -0.423 C  
ENDROOT
BRANCH   2   5
HETATM    5  C   UNL     1     -11.039  13.143  66.435  1.00  0.00    -0.289 C  
BRANCH   5   6
HETATM    6  C   UNL     1      -9.593  13.662  66.381  1.00  0.00    -0.268 C  
BRANCH   6   7
HETATM    7  N   UNL     1      -8.937  13.557  67.707  1.00  0.00    -0.190 NA 
HETATM    8  C   UNL     1      -7.612  12.926  67.623  1.00  0.00    -0.156 C  
HETATM    9  C   UNL     1      -9.744  12.874  68.731  1.00  0.00     0.069 C  
HETATM   10  C   UNL     1      -8.604  10.683  68.290  1.00  0.00    -0.128 C  
HETATM   11  C   UNL     1      -9.955  11.395  68.419  1.00  0.00    -0.206 C  
HETATM   12  C   UNL     1      -7.673  11.426  67.327  1.00  0.00    -0.145 C  
BRANCH  10  13
HETATM   13  O   UNL     1      -7.962  10.636  69.579  1.00  0.00    -0.145 OA 
BRANCH  13  14
HETATM   14  C   UNL     1      -7.461   9.419  69.924  1.00  0.00    -0.100 C  
HETATM   15  H   UNL     1      -8.182   8.790  68.086  1.00  0.00     0.000 HD 
HETATM   16  O   UNL     1      -6.756   9.210  70.899  1.00  0.00    -0.070 OA 
HETATM   17  N   UNL     1      -7.888   8.493  69.016  1.00  0.00    -0.102 N  
BRANCH  17  18
HETATM   18  C   UNL     1      -7.925   7.126  69.361  1.00  0.00    -0.125 A  
HETATM   19  C   UNL     1      -8.938   6.600  70.193  1.00  0.00    -0.152 A  
HETATM   20  C   UNL     1      -6.887   4.950  69.086  1.00  0.00    -0.050 A  
HETATM   21  C   UNL     1      -8.874   5.209  70.434  1.00  0.00    -0.148 A  
HETATM   22  C   UNL     1      -7.877   4.395  69.881  1.00  0.00    -0.053 A  
HETATM   23  C   UNL     1      -6.904   6.316  68.833  1.00  0.00    -0.066 A  
BRANCH  19  24
HETATM   24  C   UNL     1     -10.050   7.398  70.794  1.00  0.00    -0.190 A  
HETATM   25  C   UNL     1     -10.819   8.312  70.050  1.00  0.00    -0.232 A  
HETATM   26  C   UNL     1     -11.845   9.066  70.634  1.00  0.00    -0.193 A  
HETATM   27  C   UNL     1     -12.109   8.953  71.994  1.00  0.00    -0.442 A  
HETATM   28  C   UNL     1     -11.363   8.069  72.763  1.00  0.00    -0.439 A  
HETATM   29  C   UNL     1     -10.361   7.294  72.167  1.00  0.00    -0.220 A  
ENDBRANCH  19  24
ENDBRANCH  17  18
ENDBRANCH  13  14
ENDBRANCH  10  13
ENDBRANCH   6   7
ENDBRANCH   5   6
ENDBRANCH   2   5
BRANCH   4  30
HETATM   30  C   UNL     1     -10.586  11.565  63.949  1.00  0.00    -0.448 A  
HETATM   31  C   UNL     1     -10.484  10.567  64.930  1.00  0.00    -0.214 A  
HETATM   32  C   UNL     1      -9.646  11.577  62.915  1.00  0.00    -0.314 A  
HETATM   33  C   UNL     1      -8.737  10.530  62.764  1.00  0.00    -0.231 A  
HETATM   34  C   UNL     1      -9.528   9.550  64.818  1.00  0.00    -0.178 A  
HETATM   35  C   UNL     1      -8.671   9.503  63.712  1.00  0.00    -0.237 A  
BRANCH  35  36
HETATM   36  C   UNL     1      -7.659   8.388  63.545  1.00  0.00    -0.133 C  
BRANCH  36  37
HETATM   37  N   UNL     1      -7.834   7.312  64.534  1.00  0.00    -0.119 NA 
HETATM   38  C   UNL     1      -6.627   7.086  65.336  1.00  0.00    -0.047 C  
HETATM   39  C   UNL     1      -8.323   6.054  63.948  1.00  0.00     0.037 C  
HETATM   40  C   UNL     1      -7.263   5.300  63.140  1.00  0.00    -0.044 C  
HETATM   41  C   UNL     1      -5.505   6.375  64.574  1.00  0.00    -0.022 C  
HETATM   42  C   UNL     1      -5.990   5.058  63.958  1.00  0.00    -0.021 C  
BRANCH  42  43
HETATM   43  C   UNL     1      -6.207   3.976  65.017  1.00  0.00    -0.027 C  
HETATM   44  N   UNL     1      -5.167   3.115  65.200  1.00  0.00    -0.008 N  
HETATM   45  H2  UNL     1      -4.301   3.187  64.666  1.00  0.00     0.000 HD 
HETATM   46  O   UNL     1      -7.240   3.827  65.661  1.00  0.00    -0.068 OA 
HETATM   47  H1  UNL     1      -5.311   2.394  65.907  1.00  0.00     0.000 HD 
ENDBRANCH  42  43
ENDBRANCH  36  37
ENDBRANCH  35  36
ENDBRANCH   4  30
TORSDOF 11
ENDMDL
MODEL      136
REMARK 921   NORMALIZED FREE ENERGY PREDICTED BY IDOCK:   -4.36 KCAL/MOL
REMARK 922        TOTAL FREE ENERGY PREDICTED BY IDOCK:   -8.80 KCAL/MOL
REMARK 923 INTER-LIGAND FREE ENERGY PREDICTED BY IDOCK:   -8.06 KCAL/MOL
REMARK 924 INTRA-LIGAND FREE ENERGY PREDICTED BY IDOCK:   -0.75 KCAL/MOL
REMARK 927      BINDING AFFINITY PREDICTED BY RF-SCORE:    0.00 PKD
ROOT
HETATM    1  C   UNL     1      -7.410  13.134  69.059  1.00  0.00     0.050 C  
HETATM    2  N   UNL     1      -7.800  12.015  68.215  1.00  0.00    -0.138 N  
HETATM    3  O   UNL     1      -6.438  10.646  69.483  1.00  0.00    -0.057 OA 
HETATM    4  C   UNL     1      -7.256  10.759  68.568  1.00  0.00    -0.088 C  
ENDROOT
BRANCH   2   5
HETATM    5  C   UNL     1      -8.920  12.152  67.282  1.00  0.00    -0.184 C  
BRANCH   5   6
HETATM    6  C   UNL     1     -10.298  12.645  67.753  1.00  0.00    -0.220 C  
BRANCH   6   7
HETATM    7  N   UNL     1     -10.793  13.748  66.895  1.00  0.00    -0.283 NA 
HETATM    8  C   UNL     1      -9.802  14.160  65.891  1.00  0.00    -0.289 C  
HETATM    9  C   UNL     1     -11.261  14.931  67.637  1.00  0.00    -0.323 C  
HETATM   10  C   UNL     1      -9.045  16.077  67.377  1.00  0.00    -0.199 C  
HETATM   11  C   UNL     1     -10.130  15.647  68.369  1.00  0.00    -0.214 C  
HETATM   12  C   UNL     1      -8.609  14.909  66.487  1.00  0.00    -0.131 C  
BRANCH  10  13
HETATM   13  O   UNL     1      -9.563  17.116  66.521  1.00  0.00    -0.257 OA 
BRANCH  13  14
HETATM   14  C   UNL     1      -8.973  18.332  66.677  1.00  0.00    -0.288 C  
HETATM   15  H   UNL     1      -7.186  17.296  66.522  1.00  0.00     0.000 HD 
HETATM   16  O   UNL     1      -9.569  19.397  66.671  1.00  0.00    -0.316 OA 
HETATM   17  N   UNL     1      -7.631  18.152  66.851  1.00  0.00    -0.210 N  
BRANCH  17  18
HETATM   18  C   UNL     1      -6.859  19.147  67.486  1.00  0.00    -0.207 A  
HETATM   19  C   UNL     1      -6.038  20.029  66.748  1.00  0.00    -0.193 A  
HETATM   20  C   UNL     1      -6.256  20.193  69.590  1.00  0.00    -0.377 A  
HETATM   21  C   UNL     1      -5.341  20.998  67.505  1.00  0.00    -0.303 A  
HETATM   22  C   UNL     1      -5.457  21.089  68.898  1.00  0.00    -0.377 A  
HETATM   23  C   UNL     1      -6.949  19.216  68.887  1.00  0.00    -0.371 A  
BRANCH  19  24
HETATM   24  C   UNL     1      -5.887  20.012  65.260  1.00  0.00    -0.225 A  
HETATM   25  C   UNL     1      -6.403  21.026  64.432  1.00  0.00    -0.268 A  
HETATM   26  C   UNL     1      -6.269  20.984  63.038  1.00  0.00    -0.248 A  
HETATM   27  C   UNL     1      -5.642  19.905  62.427  1.00  0.00    -0.328 A  
HETATM   28  C   UNL     1      -5.129  18.880  63.213  1.00  0.00    -0.245 A  
HETATM   29  C   UNL     1      -5.237  18.944  64.607  1.00  0.00    -0.236 A  
ENDBRANCH  19  24
ENDBRANCH  17  18
ENDBRANCH  13  14
ENDBRANCH  10  13
ENDBRANCH   6   7
ENDBRANCH   5   6
ENDBRANCH   2   5
BRANCH   4  30
HETATM   30  C   UNL     1      -7.727   9.495  67.910  1.00  0.00    -0.087 A  
HETATM   31  C   UNL     1      -8.311   8.511  68.723  1.00  0.00    -0.122 A  
HETATM   32  C   UNL     1      -7.618   9.243  66.539  1.00  0.00    -0.093 A  
HETATM   33  C   UNL     1      -8.226   8.124  65.968  1.00  0.00    -0.121 A  
HETATM   34  C   UNL     1      -8.863   7.353  68.160  1.00  0.00    -0.127 A  
HETATM   35  C   UNL     1      -8.858   7.170  66.772  1.00  0.00    -0.137 A  
BRANCH  35  36
HETATM   36  C   UNL     1      -9.488   5.948  66.136  1.00  0.00    -0.106 C  
BRANCH  36  37
HETATM   37  N   UNL     1      -8.670   5.389  65.048  1.00  0.00    -0.143 NA 
HETATM   38  C   UNL     1      -9.410   4.425  64.229  1.00  0.00    -0.126 C  
HETATM   39  C   UNL     1      -7.394   4.822  65.509  1.00  0.00    -0.073 C  
HETATM   40  C   UNL     1      -7.543   3.486  66.242  1.00  0.00    -0.081 C  
HETATM   41  C   UNL     1      -9.638   3.077  64.918  1.00  0.00    -0.099 C  
HETATM   42  C   UNL     1      -8.319   2.463  65.404  1.00  0.00    -0.090 C  
BRANCH  42  43
HETATM   43  C   UNL     1      -7.473   1.936  64.245  1.00  0.00    -0.059 C  
HETATM   44  N   UNL     1      -6.179   1.635  64.551  1.00  0.00    -0.017 N  
HETATM   45  H2  UNL     1      -5.801   1.754  65.490  1.00  0.00     0.000 HD 
HETATM   46  O   UNL     1      -7.870   1.807  63.092  1.00  0.00    -0.054 OA 
HETATM   47  H1  UNL     1      -5.614   1.283  63.777  1.00  0.00     0.000 HD 
ENDBRANCH  42  43
ENDBRANCH  36  37
ENDBRANCH  35  36
ENDBRANCH   4  30
TORSDOF 11
ENDMDL
MODEL      137
REMARK 921   NORMALIZED FREE ENERGY PREDICTED BY IDOCK:   -4.28 KCAL/MOL
REMARK 922        TOTAL FREE ENERGY PREDICTED BY IDOCK:   -8.67 KCAL/MOL
REMARK 923 INTER-LIGAND FREE ENERGY PREDICTED BY IDOCK:   -8.78 KCAL/MOL
REMARK 924 INTRA-LIGAND FREE ENERGY PREDICTED BY IDOCK:    0.11 KCAL/MOL
REMARK 927      BINDING AFFINITY PREDICTED BY RF-SCORE:    0.00 PKD
ROOT
HETATM    1  C   UNL     1     -12.348  15.265  64.217  1.00  0.00    -0.121 C  
HETATM    2  N   UNL     1     -11.131  15.223  65.012  1.00  0.00    -0.408 N  
HETATM    3  O   UNL     1     -11.091  17.532  64.988  1.00  0.00    -0.698 OA 
HETATM    4  C   UNL     1     -10.596  16.476  65.387  1.00  0.00    -0.276 C  
ENDROOT
BRANCH   2   5
HETATM    5  C   UNL     1     -10.699  13.969  65.632  1.00  0.00    -0.303 C  
BRANCH   5   6
HETATM    6  C   UNL     1     -11.287  13.494  66.971  1.00  0.00    -0.324 C  
BRANCH   6   7
HETATM    7  N   UNL     1     -11.687  12.068  66.905  1.00  0.00    -0.576 NA 
HETATM    8  C   UNL     1     -11.993  11.513  68.231  1.00  0.00    -0.169 C  
HETATM    9  C   UNL     1     -10.717  11.197  66.220  1.00  0.00    -0.240 C  
HETATM   10  C   UNL     1      -9.657  10.525  68.392  1.00  0.00    -0.160 C  
HETATM   11  C   UNL     1      -9.402  11.072  66.984  1.00  0.00    -0.186 C  
HETATM   12  C   UNL     1     -10.754  11.319  69.108  1.00  0.00    -0.247 C  
BRANCH  10  13
HETATM   13  O   UNL     1     -10.091   9.153  68.302  1.00  0.00    -0.176 OA 
BRANCH  13  14
HETATM   14  C   UNL     1      -9.762   8.378  69.371  1.00  0.00    -0.177 C  
HETATM   15  H   UNL     1     -10.962   6.941  68.483  1.00  0.00     0.000 HD 
HETATM   16  O   UNL     1      -8.916   8.667  70.203  1.00  0.00    -0.143 OA 
HETATM   17  N   UNL     1     -10.537   7.254  69.356  1.00  0.00    -0.227 N  
BRANCH  17  18
HETATM   18  C   UNL     1     -10.751   6.524  70.543  1.00  0.00    -0.254 A  
HETATM   19  C   UNL     1     -10.239   5.218  70.712  1.00  0.00    -0.317 A  
HETATM   20  C   UNL     1     -11.720   6.535  72.767  1.00  0.00    -0.035 A  
HETATM   21  C   UNL     1     -10.500   4.613  71.961  1.00  0.00    -0.198 A  
HETATM   22  C   UNL     1     -11.215   5.261  72.977  1.00  0.00    -0.387 A  
HETATM   23  C   UNL     1     -11.498   7.163  71.549  1.00  0.00    -0.298 A  
BRANCH  19  24
HETATM   24  C   UNL     1      -9.443   4.474  69.688  1.00  0.00    -0.244 A  
HETATM   25  C   UNL     1      -8.173   3.933  69.958  1.00  0.00    -0.071 A  
HETATM   26  C   UNL     1      -7.432   3.255  68.981  1.00  0.00    -0.049 A  
HETATM   27  C   UNL     1      -7.929   3.129  67.689  1.00  0.00    -0.076 A  
HETATM   28  C   UNL     1      -9.176   3.660  67.383  1.00  0.00    -0.220 A  
HETATM   29  C   UNL     1      -9.925   4.308  68.372  1.00  0.00    -0.028 A  
ENDBRANCH  19  24
ENDBRANCH  17  18
ENDBRANCH  13  14
ENDBRANCH  10  13
ENDBRANCH   6   7
ENDBRANCH   5   6
ENDBRANCH   2   5
BRANCH   4  30
HETATM   30  C   UNL     1      -9.464  16.578  66.367  1.00  0.00    -0.314 A  
HETATM   31  C   UNL     1      -8.164  16.716  65.855  1.00  0.00     0.076 A  
HETATM   32  C   UNL     1      -9.629  16.546  67.754  1.00  0.00    -0.232 A  
HETATM   33  C   UNL     1      -8.559  16.814  68.608  1.00  0.00    -0.263 A  
HETATM   34  C   UNL     1      -7.076  16.918  66.713  1.00  0.00    -0.273 A  
HETATM   35  C   UNL     1      -7.272  17.007  68.096  1.00  0.00    -0.186 A  
BRANCH  35  36
HETATM   36  C   UNL     1      -6.117  17.270  69.041  1.00  0.00    -0.199 C  
BRANCH  36  37
HETATM   37  N   UNL     1      -5.187  16.134  69.129  1.00  0.00    -0.109 NA 
HETATM   38  C   UNL     1      -5.434  15.126  68.094  1.00  0.00    -0.125 C  
HETATM   39  C   UNL     1      -5.139  15.521  70.465  1.00  0.00    -0.140 C  
HETATM   40  C   UNL     1      -6.377  14.685  70.802  1.00  0.00     0.002 C  
HETATM   41  C   UNL     1      -6.686  14.281  68.343  1.00  0.00    -0.104 C  
HETATM   42  C   UNL     1      -6.657  13.626  69.729  1.00  0.00    -0.009 C  
BRANCH  42  43
HETATM   43  C   UNL     1      -5.647  12.481  69.800  1.00  0.00    -0.102 C  
HETATM   44  N   UNL     1      -5.278  12.099  71.055  1.00  0.00    -0.144 N  
HETATM   45  H2  UNL     1      -5.651  12.548  71.892  1.00  0.00     0.000 HD 
HETATM   46  O   UNL     1      -5.144  11.933  68.825  1.00  0.00    -0.050 OA 
HETATM   47  H1  UNL     1      -4.603  11.335  71.103  1.00  0.00     0.000 HD 
ENDBRANCH  42  43
ENDBRANCH  36  37
ENDBRANCH  35  36
ENDBRANCH   4  30
TORSDOF 11
ENDMDL
MODEL      138
REMARK 921   NORMALIZED FREE ENERGY PREDICTED BY IDOCK:   -4.27 KCAL/MOL
REMARK 922        TOTAL FREE ENERGY PREDICTED BY IDOCK:   -8.65 KCAL/MOL
REMARK 923 INTER-LIGAND FREE ENERGY PREDICTED BY IDOCK:   -7.56 KCAL/MOL
REMARK 924 INTRA-LIGAND FREE ENERGY PREDICTED BY IDOCK:   -1.09 KCAL/MOL
REMARK 927      BINDING AFFINITY PREDICTED BY RF-SCORE:    0.00 PKD
ROOT
HETATM    1  C   UNL     1      -7.492   8.102  73.631  1.00  0.00    -0.154 C  
HETATM    2  N   UNL     1      -6.875   7.368  72.536  1.00  0.00    -0.066 N  
HETATM    3  O   UNL     1      -8.844   6.187  72.284  1.00  0.00    -0.137 OA 
HETATM    4  C   UNL     1      -7.702   6.425  71.885  1.00  0.00    -0.096 C  
ENDROOT
BRANCH   2   5
HETATM    5  C   UNL     1      -5.605   7.822  71.968  1.00  0.00    -0.036 C  
BRANCH   5   6
HETATM    6  C   UNL     1      -5.560   8.692  70.701  1.00  0.00    -0.027 C  
BRANCH   6   7
HETATM    7  N   UNL     1      -6.519   9.819  70.791  1.00  0.00    -0.158 NA 
HETATM    8  C   UNL     1      -7.729   9.585  69.990  1.00  0.00    -0.142 C  
HETATM    9  C   UNL     1      -5.947  11.132  70.446  1.00  0.00    -0.144 C  
HETATM   10  C   UNL     1      -6.772  10.965  68.083  1.00  0.00    -0.063 C  
HETATM   11  C   UNL     1      -5.554  11.230  68.975  1.00  0.00    -0.040 C  
HETATM   12  C   UNL     1      -7.484   9.669  68.482  1.00  0.00    -0.079 C  
BRANCH  10  13
HETATM   13  O   UNL     1      -7.712  12.049  68.222  1.00  0.00    -0.113 OA 
BRANCH  13  14
HETATM   14  C   UNL     1      -8.463  12.300  67.115  1.00  0.00    -0.184 C  
HETATM   15  H   UNL     1      -8.744  14.179  67.941  1.00  0.00     0.000 HD 
HETATM   16  O   UNL     1      -8.541  11.560  66.148  1.00  0.00    -0.170 OA 
HETATM   17  N   UNL     1      -9.108  13.492  67.281  1.00  0.00    -0.216 N  
BRANCH  17  18
HETATM   18  C   UNL     1     -10.275  13.775  66.543  1.00  0.00    -0.284 A  
HETATM   19  C   UNL     1     -11.556  13.410  67.015  1.00  0.00    -0.396 A  
HETATM   20  C   UNL     1     -11.198  14.797  64.546  1.00  0.00    -0.283 A  
HETATM   21  C   UNL     1     -12.643  13.781  66.192  1.00  0.00    -0.423 A  
HETATM   22  C   UNL     1     -12.471  14.473  64.987  1.00  0.00    -0.307 A  
HETATM   23  C   UNL     1     -10.099  14.441  65.318  1.00  0.00    -0.387 A  
BRANCH  19  24
HETATM   24  C   UNL     1     -11.821  12.697  68.303  1.00  0.00    -0.354 A  
HETATM   25  C   UNL     1     -12.005  13.374  69.523  1.00  0.00    -0.377 A  
HETATM   26  C   UNL     1     -12.233  12.689  70.724  1.00  0.00    -0.331 A  
HETATM   27  C   UNL     1     -12.248  11.300  70.745  1.00  0.00    -0.479 A  
HETATM   28  C   UNL     1     -12.058  10.598  69.561  1.00  0.00    -0.285 A  
HETATM   29  C   UNL     1     -11.864  11.288  68.359  1.00  0.00    -0.331 A  
ENDBRANCH  19  24
ENDBRANCH  17  18
ENDBRANCH  13  14
ENDBRANCH  10  13
ENDBRANCH   6   7
ENDBRANCH   5   6
ENDBRANCH   2   5
BRANCH   4  30
HETATM   30  C   UNL     1      -7.262   5.745  70.622  1.00  0.00    -0.082 A  
HETATM   31  C   UNL     1      -6.577   4.525  70.738  1.00  0.00    -0.034 A  
HETATM   32  C   UNL     1      -7.493   6.254  69.341  1.00  0.00    -0.093 A  
HETATM   33  C   UNL     1      -7.209   5.494  68.207  1.00  0.00    -0.071 A  
HETATM   34  C   UNL     1      -6.229   3.789  69.599  1.00  0.00    -0.028 A  
HETATM   35  C   UNL     1      -6.577   4.251  68.324  1.00  0.00    -0.046 A  
BRANCH  35  36
HETATM   36  C   UNL     1      -6.251   3.451  67.079  1.00  0.00    -0.032 C  
BRANCH  36  37
HETATM   37  N   UNL     1      -7.043   3.871  65.913  1.00  0.00    -0.065 NA 
HETATM   38  C   UNL     1      -8.485   3.852  66.177  1.00  0.00    -0.110 C  
HETATM   39  C   UNL     1      -6.719   3.123  64.688  1.00  0.00    -0.040 C  
HETATM   40  C   UNL     1      -7.255   1.689  64.683  1.00  0.00    -0.052 C  
HETATM   41  C   UNL     1      -9.082   2.443  66.232  1.00  0.00    -0.079 C  
HETATM   42  C   UNL     1      -8.762   1.645  64.963  1.00  0.00    -0.111 C  
BRANCH  42  43
HETATM   43  C   UNL     1      -9.566   2.138  63.760  1.00  0.00    -0.125 C  
HETATM   44  N   UNL     1     -10.919   2.137  63.916  1.00  0.00    -0.443 N  
HETATM   45  H2  UNL     1     -11.367   1.829  64.779  1.00  0.00     0.000 HD 
HETATM   46  O   UNL     1      -9.078   2.487  62.690  1.00  0.00    -0.087 OA 
HETATM   47  H1  UNL     1     -11.456   2.467  63.113  1.00  0.00     0.000 HD 
ENDBRANCH  42  43
ENDBRANCH  36  37
ENDBRANCH  35  36
ENDBRANCH   4  30
TORSDOF 11
ENDMDL
MODEL      139
REMARK 921   NORMALIZED FREE ENERGY PREDICTED BY IDOCK:   -4.27 KCAL/MOL
REMARK 922        TOTAL FREE ENERGY PREDICTED BY IDOCK:   -8.65 KCAL/MOL
REMARK 923 INTER-LIGAND FREE ENERGY PREDICTED BY IDOCK:   -8.73 KCAL/MOL
REMARK 924 INTRA-LIGAND FREE ENERGY PREDICTED BY IDOCK:    0.08 KCAL/MOL
REMARK 927      BINDING AFFINITY PREDICTED BY RF-SCORE:    0.00 PKD
ROOT
HETATM    1  C   UNL     1      -9.372  11.825  68.584  1.00  0.00    -0.090 C  
HETATM    2  N   UNL     1      -9.372  10.540  67.901  1.00  0.00    -0.142 N  
HETATM    3  O   UNL     1      -8.601   9.561  69.846  1.00  0.00    -0.165 OA 
HETATM    4  C   UNL     1      -8.989   9.427  68.684  1.00  0.00    -0.132 C  
ENDROOT
BRANCH   2   5
HETATM    5  C   UNL     1     -10.030  10.396  66.602  1.00  0.00    -0.210 C  
BRANCH   5   6
HETATM    6  C   UNL     1     -11.432  10.974  66.346  1.00  0.00     0.361 C  
BRANCH   6   7
HETATM    7  N   UNL     1     -11.436  11.862  65.159  1.00  0.00    -0.284 NA 
HETATM    8  C   UNL     1     -10.119  12.464  64.909  1.00  0.00    -0.236 C  
HETATM    9  C   UNL     1     -12.461  12.919  65.195  1.00  0.00    -0.501 C  
HETATM   10  C   UNL     1     -10.828  14.589  66.109  1.00  0.00    -0.317 C  
HETATM   11  C   UNL     1     -12.205  13.944  66.296  1.00  0.00    -0.498 C  
HETATM   12  C   UNL     1      -9.735  13.530  65.938  1.00  0.00    -0.199 C  
BRANCH  10  13
HETATM   13  O   UNL     1     -10.840  15.409  64.924  1.00  0.00    -0.421 OA 
BRANCH  13  14
HETATM   14  C   UNL     1     -10.572  16.726  65.136  1.00  0.00    -0.114 C  
HETATM   15  H   UNL     1      -8.747  16.064  65.860  1.00  0.00     0.000 HD 
HETATM   16  O   UNL     1     -11.270  17.647  64.745  1.00  0.00    -0.834 OA 
HETATM   17  N   UNL     1      -9.419  16.830  65.861  1.00  0.00    -0.209 N  
BRANCH  17  18
HETATM   18  C   UNL     1      -9.156  17.995  66.610  1.00  0.00    -0.280 A  
HETATM   19  C   UNL     1      -8.293  17.976  67.729  1.00  0.00    -0.249 A  
HETATM   20  C   UNL     1      -9.557  20.376  66.840  1.00  0.00    -0.546 A  
HETATM   21  C   UNL     1      -8.092  19.218  68.371  1.00  0.00    -0.378 A  
HETATM   22  C   UNL     1      -8.701  20.401  67.929  1.00  0.00    -0.160 A  
HETATM   23  C   UNL     1      -9.794  19.174  66.187  1.00  0.00    -0.397 A  
BRANCH  19  24
HETATM   24  C   UNL     1      -7.585  16.762  68.242  1.00  0.00    -0.188 A  
HETATM   25  C   UNL     1      -6.251  16.464  67.910  1.00  0.00    -0.143 A  
HETATM   26  C   UNL     1      -5.609  15.311  68.384  1.00  0.00    -0.108 A  
HETATM   27  C   UNL     1      -6.299  14.404  69.178  1.00  0.00    -0.102 A  
HETATM   28  C   UNL     1      -7.622  14.660  69.516  1.00  0.00    -0.042 A  
HETATM   29  C   UNL     1      -8.247  15.829  69.067  1.00  0.00    -0.234 A  
ENDBRANCH  19  24
ENDBRANCH  17  18
ENDBRANCH  13  14
ENDBRANCH  10  13
ENDBRANCH   6   7
ENDBRANCH   5   6
ENDBRANCH   2   5
BRANCH   4  30
HETATM   30  C   UNL     1      -9.134   8.025  68.167  1.00  0.00    -0.134 A  
HETATM   31  C   UNL     1      -8.006   7.191  68.211  1.00  0.00    -0.123 A  
HETATM   32  C   UNL     1     -10.322   7.505  67.648  1.00  0.00    -0.295 A  
HETATM   33  C   UNL     1     -10.435   6.148  67.343  1.00  0.00    -0.309 A  
HETATM   34  C   UNL     1      -8.098   5.844  67.840  1.00  0.00    -0.105 A  
HETATM   35  C   UNL     1      -9.325   5.303  67.439  1.00  0.00    -0.122 A  
BRANCH  35  36
HETATM   36  C   UNL     1      -9.460   3.838  67.077  1.00  0.00    -0.200 C  
BRANCH  36  37
HETATM   37  N   UNL     1      -9.464   3.612  65.623  1.00  0.00    -0.162 NA 
HETATM   38  C   UNL     1      -9.240   2.206  65.273  1.00  0.00    -0.073 C  
HETATM   39  C   UNL     1      -8.539   4.492  64.893  1.00  0.00    -0.135 C  
HETATM   40  C   UNL     1      -7.065   4.114  65.066  1.00  0.00    -0.062 C  
HETATM   41  C   UNL     1      -7.793   1.745  65.467  1.00  0.00    -0.072 C  
HETATM   42  C   UNL     1      -6.809   2.645  64.711  1.00  0.00    -0.044 C  
BRANCH  42  43
HETATM   43  C   UNL     1      -6.873   2.419  63.200  1.00  0.00    -0.027 C  
HETATM   44  N   UNL     1      -6.268   3.372  62.437  1.00  0.00    -0.013 N  
HETATM   45  H2  UNL     1      -5.804   4.183  62.846  1.00  0.00     0.000 HD 
HETATM   46  O   UNL     1      -7.446   1.480  62.658  1.00  0.00    -0.031 OA 
HETATM   47  H1  UNL     1      -6.310   3.221  61.428  1.00  0.00     0.000 HD 
ENDBRANCH  42  43
ENDBRANCH  36  37
ENDBRANCH  35  36
ENDBRANCH   4  30
TORSDOF 11
ENDMDL
MODEL      140
REMARK 921   NORMALIZED FREE ENERGY PREDICTED BY IDOCK:   -4.25 KCAL/MOL
REMARK 922        TOTAL FREE ENERGY PREDICTED BY IDOCK:   -8.61 KCAL/MOL
REMARK 923 INTER-LIGAND FREE ENERGY PREDICTED BY IDOCK:   -6.98 KCAL/MOL
REMARK 924 INTRA-LIGAND FREE ENERGY PREDICTED BY IDOCK:   -1.63 KCAL/MOL
REMARK 927      BINDING AFFINITY PREDICTED BY RF-SCORE:    0.00 PKD
ROOT
HETATM    1  C   UNL     1      -8.266  13.914  68.008  1.00  0.00    -0.161 C  
HETATM    2  N   UNL     1      -8.419  12.695  67.229  1.00  0.00    -0.186 N  
HETATM    3  O   UNL     1      -6.150  12.325  67.451  1.00  0.00    -0.125 OA 
HETATM    4  C   UNL     1      -7.245  11.930  67.045  1.00  0.00    -0.118 C  
ENDROOT
BRANCH   2   5
HETATM    5  C   UNL     1      -9.754  12.163  66.948  1.00  0.00    -0.206 C  
BRANCH   5   6
HETATM    6  C   UNL     1     -10.896  12.288  67.970  1.00  0.00    -0.220 C  
BRANCH   6   7
HETATM    7  N   UNL     1     -11.599  10.994  68.148  1.00  0.00    -0.496 NA 
HETATM    8  C   UNL     1     -12.615  11.054  69.208  1.00  0.00     0.273 C  
HETATM    9  C   UNL     1     -10.707   9.847  68.387  1.00  0.00    -0.232 C  
HETATM   10  C   UNL     1     -10.986  10.038  70.872  1.00  0.00    -0.267 C  
HETATM   11  C   UNL     1      -9.977   9.942  69.723  1.00  0.00    -0.275 C  
HETATM   12  C   UNL     1     -12.020  11.139  70.615  1.00  0.00    -0.459 C  
BRANCH  10  13
HETATM   13  O   UNL     1     -11.691   8.787  70.997  1.00  0.00    -0.280 OA 
BRANCH  13  14
HETATM   14  C   UNL     1     -11.234   7.969  71.982  1.00  0.00    -0.298 C  
HETATM   15  H   UNL     1     -10.123   7.066  70.484  1.00  0.00     0.000 HD 
HETATM   16  O   UNL     1     -11.447   8.130  73.173  1.00  0.00    -0.258 OA 
HETATM   17  N   UNL     1     -10.522   6.950  71.415  1.00  0.00    -0.209 N  
BRANCH  17  18
HETATM   18  C   UNL     1     -10.338   5.739  72.113  1.00  0.00    -0.205 A  
HETATM   19  C   UNL     1      -9.075   5.110  72.183  1.00  0.00    -0.150 A  
HETATM   20  C   UNL     1     -11.374   4.025  73.481  1.00  0.00    -0.280 A  
HETATM   21  C   UNL     1      -9.023   3.918  72.940  1.00  0.00    -0.112 A  
HETATM   22  C   UNL     1     -10.147   3.390  73.589  1.00  0.00    -0.188 A  
HETATM   23  C   UNL     1     -11.473   5.193  72.736  1.00  0.00    -0.284 A  
BRANCH  19  24
HETATM   24  C   UNL     1      -7.826   5.627  71.542  1.00  0.00    -0.112 A  
HETATM   25  C   UNL     1      -7.553   5.468  70.171  1.00  0.00    -0.074 A  
HETATM   26  C   UNL     1      -6.368   5.942  69.592  1.00  0.00    -0.040 A  
HETATM   27  C   UNL     1      -5.404   6.561  70.378  1.00  0.00    -0.018 A  
HETATM   28  C   UNL     1      -5.634   6.725  71.738  1.00  0.00    -0.036 A  
HETATM   29  C   UNL     1      -6.834   6.279  72.305  1.00  0.00    -0.073 A  
ENDBRANCH  19  24
ENDBRANCH  17  18
ENDBRANCH  13  14
ENDBRANCH  10  13
ENDBRANCH   6   7
ENDBRANCH   5   6
ENDBRANCH   2   5
BRANCH   4  30
HETATM   30  C   UNL     1      -7.296  10.559  66.436  1.00  0.00    -0.129 A  
HETATM   31  C   UNL     1      -8.277  10.310  65.464  1.00  0.00    -0.158 A  
HETATM   32  C   UNL     1      -6.426   9.521  66.780  1.00  0.00    -0.067 A  
HETATM   33  C   UNL     1      -6.418   8.327  66.058  1.00  0.00    -0.049 A  
HETATM   34  C   UNL     1      -8.316   9.087  64.783  1.00  0.00    -0.181 A  
HETATM   35  C   UNL     1      -7.360   8.099  65.050  1.00  0.00    -0.082 A  
BRANCH  35  36
HETATM   36  C   UNL     1      -7.353   6.785  64.295  1.00  0.00    -0.088 C  
BRANCH  36  37
HETATM   37  N   UNL     1      -7.154   5.626  65.178  1.00  0.00    -0.063 NA 
HETATM   38  C   UNL     1      -7.232   4.351  64.457  1.00  0.00    -0.066 C  
HETATM   39  C   UNL     1      -8.043   5.625  66.351  1.00  0.00    -0.106 C  
HETATM   40  C   UNL     1      -9.496   5.273  66.020  1.00  0.00    -0.169 C  
HETATM   41  C   UNL     1      -8.655   3.958  64.053  1.00  0.00    -0.098 C  
HETATM   42  C   UNL     1      -9.600   3.945  65.261  1.00  0.00    -0.185 C  
BRANCH  42  43
HETATM   43  C   UNL     1      -9.335   2.755  66.182  1.00  0.00    -0.010 C  
HETATM   44  N   UNL     1      -9.706   2.923  67.483  1.00  0.00    -0.320 N  
HETATM   45  H2  UNL     1     -10.132   3.787  67.819  1.00  0.00     0.000 HD 
HETATM   46  O   UNL     1      -8.796   1.709  65.835  1.00  0.00    -0.116 OA 
HETATM   47  H1  UNL     1      -9.529   2.129  68.098  1.00  0.00     0.000 HD 
ENDBRANCH  42  43
ENDBRANCH  36  37
ENDBRANCH  35  36
ENDBRANCH   4  30
TORSDOF 11
ENDMDL
MODEL      141
REMARK 921   NORMALIZED FREE ENERGY PREDICTED BY IDOCK:   -4.21 KCAL/MOL
REMARK 922        TOTAL FREE ENERGY PREDICTED BY IDOCK:   -8.54 KCAL/MOL
REMARK 923 INTER-LIGAND FREE ENERGY PREDICTED BY IDOCK:   -8.78 KCAL/MOL
REMARK 924 INTRA-LIGAND FREE ENERGY PREDICTED BY IDOCK:    0.24 KCAL/MOL
REMARK 927      BINDING AFFINITY PREDICTED BY RF-SCORE:    0.00 PKD
ROOT
HETATM    1  C   UNL     1     -13.416  12.891  71.626  1.00  0.00    -0.174 C  
HETATM    2  N   UNL     1     -12.534  13.071  70.483  1.00  0.00    -0.276 N  
HETATM    3  O   UNL     1     -12.902  15.348  70.619  1.00  0.00    -0.432 OA 
HETATM    4  C   UNL     1     -12.313  14.409  70.081  1.00  0.00    -0.348 C  
ENDROOT
BRANCH   2   5
HETATM    5  C   UNL     1     -11.702  11.963  70.013  1.00  0.00    -0.286 C  
BRANCH   5   6
HETATM    6  C   UNL     1     -11.660  11.567  68.528  1.00  0.00    -0.313 C  
BRANCH   6   7
HETATM    7  N   UNL     1     -10.283  11.212  68.107  1.00  0.00    -0.175 NA 
HETATM    8  C   UNL     1     -10.272  10.300  66.953  1.00  0.00    -0.230 C  
HETATM    9  C   UNL     1      -9.444  10.655  69.181  1.00  0.00    -0.170 C  
HETATM   10  C   UNL     1      -9.977   8.302  68.495  1.00  0.00    -0.190 C  
HETATM   11  C   UNL     1      -9.937   9.294  69.662  1.00  0.00    -0.201 C  
HETATM   12  C   UNL     1     -10.734   8.882  67.296  1.00  0.00    -0.219 C  
BRANCH  10  13
HETATM   13  O   UNL     1      -8.632   8.008  68.070  1.00  0.00    -0.128 OA 
BRANCH  13  14
HETATM   14  C   UNL     1      -7.965   7.118  68.855  1.00  0.00    -0.120 C  
HETATM   15  H   UNL     1      -9.843   6.580  69.546  1.00  0.00     0.000 HD 
HETATM   16  O   UNL     1      -6.773   6.872  68.765  1.00  0.00    -0.052 OA 
HETATM   17  N   UNL     1      -8.843   6.574  69.747  1.00  0.00    -0.142 N  
BRANCH  17  18
HETATM   18  C   UNL     1      -8.372   6.002  70.947  1.00  0.00    -0.126 A  
HETATM   19  C   UNL     1      -7.915   4.666  71.000  1.00  0.00    -0.082 A  
HETATM   20  C   UNL     1      -7.892   6.361  73.297  1.00  0.00    -0.097 A  
HETATM   21  C   UNL     1      -7.441   4.229  72.257  1.00  0.00    -0.068 A  
HETATM   22  C   UNL     1      -7.416   5.062  73.383  1.00  0.00    -0.088 A  
HETATM   23  C   UNL     1      -8.379   6.829  72.084  1.00  0.00    -0.107 A  
BRANCH  19  24
HETATM   24  C   UNL     1      -7.882   3.727  69.837  1.00  0.00    -0.051 A  
HETATM   25  C   UNL     1      -6.683   3.239  69.286  1.00  0.00    -0.037 A  
HETATM   26  C   UNL     1      -6.671   2.375  68.183  1.00  0.00    -0.039 A  
HETATM   27  C   UNL     1      -7.862   2.000  67.576  1.00  0.00    -0.060 A  
HETATM   28  C   UNL     1      -9.066   2.471  68.085  1.00  0.00    -0.229 A  
HETATM   29  C   UNL     1      -9.074   3.308  69.207  1.00  0.00    -0.200 A  
ENDBRANCH  19  24
ENDBRANCH  17  18
ENDBRANCH  13  14
ENDBRANCH  10  13
ENDBRANCH   6   7
ENDBRANCH   5   6
ENDBRANCH   2   5
BRANCH   4  30
HETATM   30  C   UNL     1     -11.276  14.750  69.050  1.00  0.00    -0.286 A  
HETATM   31  C   UNL     1     -11.720  15.109  67.768  1.00  0.00    -0.250 A  
HETATM   32  C   UNL     1      -9.900  14.732  69.293  1.00  0.00    -0.123 A  
HETATM   33  C   UNL     1      -9.000  15.222  68.346  1.00  0.00    -0.184 A  
HETATM   34  C   UNL     1     -10.813  15.536  66.790  1.00  0.00    -0.291 A  
HETATM   35  C   UNL     1      -9.448  15.633  67.086  1.00  0.00    -0.226 A  
BRANCH  35  36
HETATM   36  C   UNL     1      -8.453  16.136  66.060  1.00  0.00    -0.120 C  
BRANCH  36  37
HETATM   37  N   UNL     1      -8.555  17.586  65.835  1.00  0.00    -0.533 NA 
HETATM   38  C   UNL     1      -7.271  18.188  65.464  1.00  0.00     0.070 C  
HETATM   39  C   UNL     1      -9.174  18.309  66.957  1.00  0.00    -0.274 C  
HETATM   40  C   UNL     1      -8.261  18.443  68.179  1.00  0.00    -0.303 C  
HETATM   41  C   UNL     1      -6.288  18.311  66.632  1.00  0.00    -0.215 C  
HETATM   42  C   UNL     1      -6.909  19.066  67.814  1.00  0.00    -0.229 C  
BRANCH  42  43
HETATM   43  C   UNL     1      -7.045  20.562  67.529  1.00  0.00    -0.326 C  
HETATM   44  N   UNL     1      -8.315  21.009  67.324  1.00  0.00    -0.477 N  
HETATM   45  H2  UNL     1      -9.123  20.387  67.359  1.00  0.00     0.000 HD 
HETATM   46  O   UNL     1      -6.104  21.344  67.444  1.00  0.00    -0.373 OA 
HETATM   47  H1  UNL     1      -8.406  22.008  67.135  1.00  0.00     0.000 HD 
ENDBRANCH  42  43
ENDBRANCH  36  37
ENDBRANCH  35  36
ENDBRANCH   4  30
TORSDOF 11
ENDMDL
MODEL      142
REMARK 921   NORMALIZED FREE ENERGY PREDICTED BY IDOCK:   -4.16 KCAL/MOL
REMARK 922        TOTAL FREE ENERGY PREDICTED BY IDOCK:   -8.47 KCAL/MOL
REMARK 923 INTER-LIGAND FREE ENERGY PREDICTED BY IDOCK:   -9.77 KCAL/MOL
REMARK 924 INTRA-LIGAND FREE ENERGY PREDICTED BY IDOCK:    1.30 KCAL/MOL
REMARK 927      BINDING AFFINITY PREDICTED BY RF-SCORE:    0.00 PKD
ROOT
HETATM    1  C   UNL     1      -7.055  11.396  67.772  1.00  0.00    -0.081 C  
HETATM    2  N   UNL     1      -7.391  10.023  67.425  1.00  0.00    -0.089 N  
HETATM    3  O   UNL     1      -5.527   9.321  68.593  1.00  0.00    -0.040 OA 
HETATM    4  C   UNL     1      -6.537   9.028  67.952  1.00  0.00    -0.060 C  
ENDROOT
BRANCH   2   5
HETATM    5  C   UNL     1      -8.698   9.710  66.845  1.00  0.00    -0.131 C  
BRANCH   5   6
HETATM    6  C   UNL     1      -9.005   9.989  65.364  1.00  0.00    -0.180 C  
BRANCH   6   7
HETATM    7  N   UNL     1     -10.395  10.474  65.188  1.00  0.00    -0.284 NA 
HETATM    8  C   UNL     1     -10.643  10.969  63.826  1.00  0.00    -0.295 C  
HETATM    9  C   UNL     1     -10.810  11.495  66.165  1.00  0.00    -0.278 C  
HETATM   10  C   UNL     1     -10.239  13.360  64.588  1.00  0.00    -0.315 C  
HETATM   11  C   UNL     1     -10.045  12.805  66.003  1.00  0.00    -0.277 C  
HETATM   12  C   UNL     1      -9.942  12.296  63.526  1.00  0.00    -0.254 C  
BRANCH  10  13
HETATM   13  O   UNL     1     -11.608  13.781  64.422  1.00  0.00    -0.380 OA 
BRANCH  13  14
HETATM   14  C   UNL     1     -12.203  14.250  65.552  1.00  0.00    -0.402 C  
HETATM   15  H   UNL     1     -10.484  15.384  65.784  1.00  0.00     0.000 HD 
HETATM   16  O   UNL     1     -13.361  14.028  65.869  1.00  0.00    -0.400 OA 
HETATM   17  N   UNL     1     -11.293  14.983  66.258  1.00  0.00    -0.316 N  
BRANCH  17  18
HETATM   18  C   UNL     1     -11.468  15.187  67.643  1.00  0.00    -0.309 A  
HETATM   19  C   UNL     1     -10.998  16.356  68.283  1.00  0.00    -0.355 A  
HETATM   20  C   UNL     1     -12.387  14.308  69.708  1.00  0.00    -0.342 A  
HETATM   21  C   UNL     1     -11.267  16.447  69.667  1.00  0.00    -0.257 A  
HETATM   22  C   UNL     1     -11.960  15.450  70.367  1.00  0.00    -0.387 A  
HETATM   23  C   UNL     1     -12.133  14.171  68.350  1.00  0.00    -0.308 A  
BRANCH  19  24
HETATM   24  C   UNL     1     -10.279  17.474  67.600  1.00  0.00    -0.343 A  
HETATM   25  C   UNL     1     -10.862  18.738  67.390  1.00  0.00    -0.414 A  
HETATM   26  C   UNL     1     -10.180  19.769  66.731  1.00  0.00    -0.582 A  
HETATM   27  C   UNL     1      -8.902  19.553  66.229  1.00  0.00    -0.391 A  
HETATM   28  C   UNL     1      -8.299  18.315  66.408  1.00  0.00    -0.267 A  
HETATM   29  C   UNL     1      -8.972  17.299  67.096  1.00  0.00    -0.236 A  
ENDBRANCH  19  24
ENDBRANCH  17  18
ENDBRANCH  13  14
ENDBRANCH  10  13
ENDBRANCH   6   7
ENDBRANCH   5   6
ENDBRANCH   2   5
BRANCH   4  30
HETATM   30  C   UNL     1      -6.878   7.570  67.838  1.00  0.00    -0.071 A  
HETATM   31  C   UNL     1      -6.311   6.845  66.779  1.00  0.00    -0.045 A  
HETATM   32  C   UNL     1      -7.724   6.897  68.724  1.00  0.00    -0.110 A  
HETATM   33  C   UNL     1      -7.865   5.511  68.663  1.00  0.00    -0.091 A  
HETATM   34  C   UNL     1      -6.506   5.462  66.675  1.00  0.00    -0.044 A  
HETATM   35  C   UNL     1      -7.254   4.778  67.640  1.00  0.00    -0.070 A  
BRANCH  35  36
HETATM   36  C   UNL     1      -7.441   3.276  67.573  1.00  0.00    -0.062 C  
BRANCH  36  37
HETATM   37  N   UNL     1      -8.764   2.892  67.057  1.00  0.00    -0.115 NA 
HETATM   38  C   UNL     1      -8.703   1.726  66.170  1.00  0.00    -0.116 C  
HETATM   39  C   UNL     1      -9.488   4.004  66.421  1.00  0.00    -0.191 C  
HETATM   40  C   UNL     1      -8.934   4.392  65.047  1.00  0.00    -0.145 C  
HETATM   41  C   UNL     1      -8.115   2.032  64.790  1.00  0.00    -0.078 C  
HETATM   42  C   UNL     1      -8.857   3.186  64.104  1.00  0.00    -0.097 C  
BRANCH  42  43
HETATM   43  C   UNL     1     -10.246   2.767  63.622  1.00  0.00    -0.173 C  
HETATM   44  N   UNL     1     -10.318   1.544  63.025  1.00  0.00    -0.110 N  
HETATM   45  H2  UNL     1      -9.498   0.948  62.908  1.00  0.00     0.000 HD 
HETATM   46  O   UNL     1     -11.254   3.460  63.710  1.00  0.00    -0.280 OA 
HETATM   47  H1  UNL     1     -11.245   1.264  62.704  1.00  0.00     0.000 HD 
ENDBRANCH  42  43
ENDBRANCH  36  37
ENDBRANCH  35  36
ENDBRANCH   4  30
TORSDOF 11
ENDMDL
MODEL      143
REMARK 921   NORMALIZED FREE ENERGY PREDICTED BY IDOCK:   -4.15 KCAL/MOL
REMARK 922        TOTAL FREE ENERGY PREDICTED BY IDOCK:   -8.45 KCAL/MOL
REMARK 923 INTER-LIGAND FREE ENERGY PREDICTED BY IDOCK:   -6.83 KCAL/MOL
REMARK 924 INTRA-LIGAND FREE ENERGY PREDICTED BY IDOCK:   -1.62 KCAL/MOL
REMARK 927      BINDING AFFINITY PREDICTED BY RF-SCORE:    0.00 PKD
ROOT
HETATM    1  C   UNL     1      -5.871  17.376  66.316  1.00  0.00    -0.189 C  
HETATM    2  N   UNL     1      -6.825  16.827  67.268  1.00  0.00    -0.154 N  
HETATM    3  O   UNL     1      -8.321  18.473  66.644  1.00  0.00    -0.256 OA 
HETATM    4  C   UNL     1      -8.086  17.464  67.312  1.00  0.00    -0.201 C  
ENDROOT
BRANCH   2   5
HETATM    5  C   UNL     1      -6.585  15.520  67.881  1.00  0.00    -0.158 C  
BRANCH   5   6
HETATM    6  C   UNL     1      -6.937  14.215  67.149  1.00  0.00     0.383 C  
BRANCH   6   7
HETATM    7  N   UNL     1      -6.808  13.044  68.050  1.00  0.00    -0.097 NA 
HETATM    8  C   UNL     1      -6.317  11.851  67.345  1.00  0.00    -0.128 C  
HETATM    9  C   UNL     1      -8.037  12.707  68.788  1.00  0.00     0.096 C  
HETATM   10  C   UNL     1      -8.693  10.989  67.082  1.00  0.00    -0.135 C  
HETATM   11  C   UNL     1      -9.154  12.219  67.871  1.00  0.00    -0.190 C  
HETATM   12  C   UNL     1      -7.348  11.241  66.393  1.00  0.00    -0.058 C  
BRANCH  10  13
HETATM   13  O   UNL     1      -8.527   9.876  67.983  1.00  0.00    -0.117 OA 
BRANCH  13  14
HETATM   14  C   UNL     1      -9.655   9.505  68.647  1.00  0.00    -0.146 C  
HETATM   15  H   UNL     1      -8.436   9.413  70.320  1.00  0.00     0.000 HD 
HETATM   16  O   UNL     1     -10.779   9.528  68.172  1.00  0.00    -0.227 OA 
HETATM   17  N   UNL     1      -9.313   9.099  69.905  1.00  0.00    -0.174 N  
BRANCH  17  18
HETATM   18  C   UNL     1     -10.168   8.245  70.632  1.00  0.00    -0.193 A  
HETATM   19  C   UNL     1     -10.522   6.966  70.148  1.00  0.00    -0.233 A  
HETATM   20  C   UNL     1     -11.460   7.941  72.663  1.00  0.00    -0.454 A  
HETATM   21  C   UNL     1     -11.361   6.202  70.990  1.00  0.00    -0.348 A  
HETATM   22  C   UNL     1     -11.812   6.672  72.231  1.00  0.00    -0.289 A  
HETATM   23  C   UNL     1     -10.647   8.732  71.861  1.00  0.00    -0.425 A  
BRANCH  19  24
HETATM   24  C   UNL     1     -10.057   6.384  68.852  1.00  0.00    -0.187 A  
HETATM   25  C   UNL     1     -10.920   6.172  67.761  1.00  0.00    -0.400 A  
HETATM   26  C   UNL     1     -10.472   5.607  66.559  1.00  0.00    -0.309 A  
HETATM   27  C   UNL     1      -9.149   5.204  66.427  1.00  0.00    -0.131 A  
HETATM   28  C   UNL     1      -8.270   5.388  67.487  1.00  0.00    -0.100 A  
HETATM   29  C   UNL     1      -8.716   5.983  68.673  1.00  0.00    -0.110 A  
ENDBRANCH  19  24
ENDBRANCH  17  18
ENDBRANCH  13  14
ENDBRANCH  10  13
ENDBRANCH   6   7
ENDBRANCH   5   6
ENDBRANCH   2   5
BRANCH   4  30
HETATM   30  C   UNL     1      -9.225  16.883  68.098  1.00  0.00    -0.234 A  
HETATM   31  C   UNL     1      -8.930  16.277  69.330  1.00  0.00    -0.170 A  
HETATM   32  C   UNL     1     -10.557  16.911  67.677  1.00  0.00    -0.325 A  
HETATM   33  C   UNL     1     -11.585  16.506  68.528  1.00  0.00    -0.010 A  
HETATM   34  C   UNL     1      -9.955  15.806  70.159  1.00  0.00     0.005 A  
HETATM   35  C   UNL     1     -11.295  15.953  69.780  1.00  0.00    -0.347 A  
BRANCH  35  36
HETATM   36  C   UNL     1     -12.423  15.492  70.681  1.00  0.00    -0.435 C  
BRANCH  36  37
HETATM   37  N   UNL     1     -13.171  14.358  70.117  1.00  0.00     0.140 NA 
HETATM   38  C   UNL     1     -14.082  13.748  71.090  1.00  0.00     0.418 C  
HETATM   39  C   UNL     1     -12.310  13.345  69.489  1.00  0.00    -0.102 C  
HETATM   40  C   UNL     1     -11.537  12.487  70.495  1.00  0.00     0.250 C  
HETATM   41  C   UNL     1     -13.372  12.910  72.157  1.00  0.00    -0.615 C  
HETATM   42  C   UNL     1     -12.470  11.842  71.526  1.00  0.00    -0.208 C  
BRANCH  42  43
HETATM   43  C   UNL     1     -13.280  10.702  70.908  1.00  0.00    -0.141 C  
HETATM   44  N   UNL     1     -13.014  10.433  69.599  1.00  0.00    -0.199 N  
HETATM   45  H2  UNL     1     -12.319  10.958  69.067  1.00  0.00     0.000 HD 
HETATM   46  O   UNL     1     -14.149  10.064  71.494  1.00  0.00     0.077 OA 
HETATM   47  H1  UNL     1     -13.554   9.673  69.186  1.00  0.00     0.000 HD 
ENDBRANCH  42  43
ENDBRANCH  36  37
ENDBRANCH  35  36
ENDBRANCH   4  30
TORSDOF 11
ENDMDL
MODEL      144
REMARK 921   NORMALIZED FREE ENERGY PREDICTED BY IDOCK:   -4.12 KCAL/MOL
REMARK 922        TOTAL FREE ENERGY PREDICTED BY IDOCK:   -8.41 KCAL/MOL
REMARK 923 INTER-LIGAND FREE ENERGY PREDICTED BY IDOCK:   -7.48 KCAL/MOL
REMARK 924 INTRA-LIGAND FREE ENERGY PREDICTED BY IDOCK:   -0.93 KCAL/MOL
REMARK 927      BINDING AFFINITY PREDICTED BY RF-SCORE:    0.00 PKD
ROOT
HETATM    1  C   UNL     1      -7.677  10.740  64.391  1.00  0.00     0.274 C  
HETATM    2  N   UNL     1      -8.464  11.239  65.509  1.00  0.00    -0.007 N  
HETATM    3  O   UNL     1     -10.371  10.503  64.432  1.00  0.00    -0.341 OA 
HETATM    4  C   UNL     1      -9.858  11.015  65.429  1.00  0.00    -0.251 C  
ENDROOT
BRANCH   2   5
HETATM    5  C   UNL     1      -7.805  11.646  66.750  1.00  0.00    -0.130 C  
BRANCH   5   6
HETATM    6  C   UNL     1      -7.625  10.665  67.920  1.00  0.00    -0.091 C  
BRANCH   6   7
HETATM    7  N   UNL     1      -6.451   9.785  67.704  1.00  0.00    -0.067 NA 
HETATM    8  C   UNL     1      -6.726   8.719  66.730  1.00  0.00    -0.069 C  
HETATM    9  C   UNL     1      -5.900   9.195  68.936  1.00  0.00    -0.040 C  
HETATM   10  C   UNL     1      -7.210   7.081  68.612  1.00  0.00    -0.094 C  
HETATM   11  C   UNL     1      -6.859   8.206  69.591  1.00  0.00    -0.041 C  
HETATM   12  C   UNL     1      -7.672   7.640  67.263  1.00  0.00    -0.113 C  
BRANCH  10  13
HETATM   13  O   UNL     1      -6.044   6.267  68.379  1.00  0.00    -0.024 OA 
BRANCH  13  14
HETATM   14  C   UNL     1      -6.304   4.960  68.107  1.00  0.00    -0.036 C  
HETATM   15  H   UNL     1      -6.775   5.626  66.203  1.00  0.00     0.000 HD 
HETATM   16  O   UNL     1      -6.049   4.032  68.858  1.00  0.00    -0.026 OA 
HETATM   17  N   UNL     1      -6.898   4.874  66.881  1.00  0.00    -0.055 N  
BRANCH  17  18
HETATM   18  C   UNL     1      -7.682   3.750  66.549  1.00  0.00    -0.088 A  
HETATM   19  C   UNL     1      -8.925   3.504  67.175  1.00  0.00    -0.168 A  
HETATM   20  C   UNL     1      -7.890   1.782  65.146  1.00  0.00    -0.072 A  
HETATM   21  C   UNL     1      -9.621   2.359  66.728  1.00  0.00     0.256 A  
HETATM   22  C   UNL     1      -9.122   1.519  65.723  1.00  0.00    -0.062 A  
HETATM   23  C   UNL     1      -7.165   2.890  65.565  1.00  0.00    -0.070 A  
BRANCH  19  24
HETATM   24  C   UNL     1      -9.536   4.368  68.231  1.00  0.00    -0.210 A  
HETATM   25  C   UNL     1     -10.185   5.581  67.939  1.00  0.00    -0.231 A  
HETATM   26  C   UNL     1     -10.735   6.389  68.944  1.00  0.00    -0.339 A  
HETATM   27  C   UNL     1     -10.619   6.020  70.279  1.00  0.00    -0.338 A  
HETATM   28  C   UNL     1      -9.975   4.834  70.606  1.00  0.00    -0.300 A  
HETATM   29  C   UNL     1      -9.457   4.015  69.596  1.00  0.00    -0.262 A  
ENDBRANCH  19  24
ENDBRANCH  17  18
ENDBRANCH  13  14
ENDBRANCH  10  13
ENDBRANCH   6   7
ENDBRANCH   5   6
ENDBRANCH   2   5
BRANCH   4  30
HETATM   30  C   UNL     1     -10.760  11.297  66.595  1.00  0.00    -0.321 A  
HETATM   31  C   UNL     1     -10.919  10.290  67.560  1.00  0.00    -0.344 A  
HETATM   32  C   UNL     1     -11.447  12.501  66.775  1.00  0.00    -0.422 A  
HETATM   33  C   UNL     1     -12.132  12.762  67.961  1.00  0.00    -0.174 A  
HETATM   34  C   UNL     1     -11.663  10.525  68.722  1.00  0.00    -0.190 A  
HETATM   35  C   UNL     1     -12.245  11.778  68.949  1.00  0.00    -0.091 A  
BRANCH  35  36
HETATM   36  C   UNL     1     -13.017  12.070  70.220  1.00  0.00     0.481 C  
BRANCH  36  37
HETATM   37  N   UNL     1     -12.209  12.781  71.223  1.00  0.00    -0.056 NA 
HETATM   38  C   UNL     1     -12.958  13.057  72.453  1.00  0.00    -0.152 C  
HETATM   39  C   UNL     1     -11.576  14.003  70.703  1.00  0.00    -0.058 C  
HETATM   40  C   UNL     1     -12.555  15.162  70.498  1.00  0.00    -0.429 C  
HETATM   41  C   UNL     1     -13.991  14.178  72.307  1.00  0.00    -0.646 C  
HETATM   42  C   UNL     1     -13.353  15.465  71.771  1.00  0.00    -0.567 C  
BRANCH  42  43
HETATM   43  C   UNL     1     -12.483  16.153  72.823  1.00  0.00    -0.467 C  
HETATM   44  N   UNL     1     -12.777  15.852  74.119  1.00  0.00    -0.788 N  
HETATM   45  H2  UNL     1     -13.529  15.210  74.370  1.00  0.00     0.000 HD 
HETATM   46  O   UNL     1     -11.591  16.957  72.573  1.00  0.00    -0.261 OA 
HETATM   47  H1  UNL     1     -12.196  16.311  74.821  1.00  0.00     0.000 HD 
ENDBRANCH  42  43
ENDBRANCH  36  37
ENDBRANCH  35  36
ENDBRANCH   4  30
TORSDOF 11
ENDMDL
MODEL      145
REMARK 921   NORMALIZED FREE ENERGY PREDICTED BY IDOCK:   -4.11 KCAL/MOL
REMARK 922        TOTAL FREE ENERGY PREDICTED BY IDOCK:   -8.39 KCAL/MOL
REMARK 923 INTER-LIGAND FREE ENERGY PREDICTED BY IDOCK:   -8.02 KCAL/MOL
REMARK 924 INTRA-LIGAND FREE ENERGY PREDICTED BY IDOCK:   -0.37 KCAL/MOL
REMARK 927      BINDING AFFINITY PREDICTED BY RF-SCORE:    0.00 PKD
ROOT
HETATM    1  C   UNL     1      -5.125  10.935  65.746  1.00  0.00    -0.129 C  
HETATM    2  N   UNL     1      -6.000  10.628  66.867  1.00  0.00    -0.058 N  
HETATM    3  O   UNL     1      -5.875   8.395  66.292  1.00  0.00    -0.042 OA 
HETATM    4  C   UNL     1      -6.282   9.258  67.071  1.00  0.00    -0.061 C  
ENDROOT
BRANCH   2   5
HETATM    5  C   UNL     1      -6.287  11.647  67.878  1.00  0.00    -0.054 C  
BRANCH   5   6
HETATM    6  C   UNL     1      -5.576  13.010  67.865  1.00  0.00    -0.123 C  
BRANCH   6   7
HETATM    7  N   UNL     1      -6.436  14.057  67.261  1.00  0.00    -0.214 NA 
HETATM    8  C   UNL     1      -6.238  15.371  67.890  1.00  0.00    -0.150 C  
HETATM    9  C   UNL     1      -7.872  13.730  67.247  1.00  0.00    -0.097 C  
HETATM   10  C   UNL     1      -8.270  15.002  69.371  1.00  0.00    -0.147 C  
HETATM   11  C   UNL     1      -8.471  13.666  68.649  1.00  0.00    -0.038 C  
HETATM   12  C   UNL     1      -6.809  15.456  69.307  1.00  0.00    -0.157 C  
BRANCH  10  13
HETATM   13  O   UNL     1      -9.077  16.015  68.738  1.00  0.00    -0.198 OA 
BRANCH  13  14
HETATM   14  C   UNL     1     -10.244  16.299  69.378  1.00  0.00    -0.265 C  
HETATM   15  H   UNL     1      -9.463  15.183  70.939  1.00  0.00     0.000 HD 
HETATM   16  O   UNL     1     -11.082  17.089  68.973  1.00  0.00    -0.191 OA 
HETATM   17  N   UNL     1     -10.316  15.551  70.518  1.00  0.00    -0.159 N  
BRANCH  17  18
HETATM   18  C   UNL     1     -11.565  15.285  71.114  1.00  0.00    -0.370 A  
HETATM   19  C   UNL     1     -12.376  14.210  70.685  1.00  0.00    -0.435 A  
HETATM   20  C   UNL     1     -13.157  15.927  72.828  1.00  0.00    -0.580 A  
HETATM   21  C   UNL     1     -13.589  14.037  71.388  1.00  0.00    -0.327 A  
HETATM   22  C   UNL     1     -13.969  14.870  72.449  1.00  0.00    -0.582 A  
HETATM   23  C   UNL     1     -11.961  16.141  72.156  1.00  0.00    -0.623 A  
BRANCH  19  24
HETATM   24  C   UNL     1     -12.025  13.262  69.583  1.00  0.00    -0.376 A  
HETATM   25  C   UNL     1     -12.255  13.556  68.226  1.00  0.00    -0.148 A  
HETATM   26  C   UNL     1     -11.938  12.648  67.207  1.00  0.00    -0.321 A  
HETATM   27  C   UNL     1     -11.413  11.400  67.520  1.00  0.00    -0.336 A  
HETATM   28  C   UNL     1     -11.184  11.071  68.850  1.00  0.00    -0.326 A  
HETATM   29  C   UNL     1     -11.471  11.995  69.861  1.00  0.00    -0.239 A  
ENDBRANCH  19  24
ENDBRANCH  17  18
ENDBRANCH  13  14
ENDBRANCH  10  13
ENDBRANCH   6   7
ENDBRANCH   5   6
ENDBRANCH   2   5
BRANCH   4  30
HETATM   30  C   UNL     1      -7.004   8.787  68.300  1.00  0.00    -0.073 A  
HETATM   31  C   UNL     1      -8.403   8.683  68.240  1.00  0.00    -0.127 A  
HETATM   32  C   UNL     1      -6.366   8.445  69.496  1.00  0.00    -0.037 A  
HETATM   33  C   UNL     1      -7.076   7.855  70.541  1.00  0.00    -0.046 A  
HETATM   34  C   UNL     1      -9.128   8.154  69.314  1.00  0.00    -0.151 A  
HETATM   35  C   UNL     1      -8.464   7.700  70.460  1.00  0.00    -0.128 A  
BRANCH  35  36
HETATM   36  C   UNL     1      -9.222   7.082  71.617  1.00  0.00    -0.142 C  
BRANCH  36  37
HETATM   37  N   UNL     1      -9.163   5.612  71.613  1.00  0.00    -0.143 NA 
HETATM   38  C   UNL     1      -8.735   5.064  72.904  1.00  0.00    -0.118 C  
HETATM   39  C   UNL     1      -8.358   5.063  70.511  1.00  0.00    -0.101 C  
HETATM   40  C   UNL     1      -6.849   5.240  70.705  1.00  0.00    -0.047 C  
HETATM   41  C   UNL     1      -7.241   5.248  73.186  1.00  0.00    -0.090 C  
HETATM   42  C   UNL     1      -6.379   4.679  72.052  1.00  0.00    -0.022 C  
BRANCH  42  43
HETATM   43  C   UNL     1      -6.378   3.150  72.047  1.00  0.00    -0.014 C  
HETATM   44  N   UNL     1      -5.864   2.558  73.162  1.00  0.00    -0.007 N  
HETATM   45  H2  UNL     1      -5.503   3.100  73.947  1.00  0.00     0.000 HD 
HETATM   46  O   UNL     1      -6.769   2.454  71.116  1.00  0.00    -0.029 OA 
HETATM   47  H1  UNL     1      -5.863   1.538  73.159  1.00  0.00     0.000 HD 
ENDBRANCH  42  43
ENDBRANCH  36  37
ENDBRANCH  35  36
ENDBRANCH   4  30
TORSDOF 11
ENDMDL
MODEL      146
REMARK 921   NORMALIZED FREE ENERGY PREDICTED BY IDOCK:   -4.11 KCAL/MOL
REMARK 922        TOTAL FREE ENERGY PREDICTED BY IDOCK:   -8.39 KCAL/MOL
REMARK 923 INTER-LIGAND FREE ENERGY PREDICTED BY IDOCK:   -7.73 KCAL/MOL
REMARK 924 INTRA-LIGAND FREE ENERGY PREDICTED BY IDOCK:   -0.66 KCAL/MOL
REMARK 927      BINDING AFFINITY PREDICTED BY RF-SCORE:    0.00 PKD
ROOT
HETATM    1  C   UNL     1      -5.317   6.937  63.369  1.00  0.00    -0.032 C  
HETATM    2  N   UNL     1      -6.505   7.598  63.888  1.00  0.00    -0.053 N  
HETATM    3  O   UNL     1      -5.135   9.128  64.944  1.00  0.00    -0.040 OA 
HETATM    4  C   UNL     1      -6.277   8.758  64.662  1.00  0.00    -0.066 C  
ENDROOT
BRANCH   2   5
HETATM    5  C   UNL     1      -7.828   7.252  63.363  1.00  0.00    -0.110 C  
BRANCH   5   6
HETATM    6  C   UNL     1      -8.532   5.946  63.766  1.00  0.00     0.100 C  
BRANCH   6   7
HETATM    7  N   UNL     1      -8.101   5.498  65.112  1.00  0.00    -0.118 NA 
HETATM    8  C   UNL     1      -8.640   4.175  65.458  1.00  0.00    -0.118 C  
HETATM    9  C   UNL     1      -8.402   6.450  66.194  1.00  0.00    -0.128 C  
HETATM   10  C   UNL     1     -10.531   5.254  66.769  1.00  0.00    -0.273 C  
HETATM   11  C   UNL     1      -9.901   6.610  66.432  1.00  0.00    -0.101 C  
HETATM   12  C   UNL     1     -10.144   4.189  65.739  1.00  0.00    -0.179 C  
BRANCH  10  13
HETATM   13  O   UNL     1     -10.061   4.815  68.059  1.00  0.00    -0.125 OA 
BRANCH  13  14
HETATM   14  C   UNL     1     -10.375   5.640  69.094  1.00  0.00    -0.258 C  
HETATM   15  H   UNL     1      -8.431   5.307  69.728  1.00  0.00     0.000 HD 
HETATM   16  O   UNL     1     -11.404   6.291  69.174  1.00  0.00    -0.395 OA 
HETATM   17  N   UNL     1      -9.365   5.600  70.012  1.00  0.00    -0.146 N  
BRANCH  17  18
HETATM   18  C   UNL     1      -9.610   5.964  71.352  1.00  0.00    -0.164 A  
HETATM   19  C   UNL     1      -8.943   7.052  71.957  1.00  0.00    -0.138 A  
HETATM   20  C   UNL     1     -10.886   5.503  73.363  1.00  0.00    -0.332 A  
HETATM   21  C   UNL     1      -9.305   7.327  73.295  1.00  0.00    -0.226 A  
HETATM   22  C   UNL     1     -10.268   6.577  73.984  1.00  0.00    -0.374 A  
HETATM   23  C   UNL     1     -10.552   5.189  72.052  1.00  0.00    -0.266 A  
BRANCH  19  24
HETATM   24  C   UNL     1      -7.928   7.916  71.280  1.00  0.00    -0.094 A  
HETATM   25  C   UNL     1      -8.227   8.694  70.146  1.00  0.00    -0.123 A  
HETATM   26  C   UNL     1      -7.258   9.483  69.512  1.00  0.00    -0.074 A  
HETATM   27  C   UNL     1      -5.948   9.489  69.975  1.00  0.00    -0.041 A  
HETATM   28  C   UNL     1      -5.613   8.724  71.086  1.00  0.00    -0.037 A  
HETATM   29  C   UNL     1      -6.593   7.964  71.735  1.00  0.00    -0.049 A  
ENDBRANCH  19  24
ENDBRANCH  17  18
ENDBRANCH  13  14
ENDBRANCH  10  13
ENDBRANCH   6   7
ENDBRANCH   5   6
ENDBRANCH   2   5
BRANCH   4  30
HETATM   30  C   UNL     1      -7.410   9.644  65.090  1.00  0.00    -0.115 A  
HETATM   31  C   UNL     1      -8.381   9.975  64.132  1.00  0.00    -0.167 A  
HETATM   32  C   UNL     1      -7.553  10.156  66.382  1.00  0.00    -0.108 A  
HETATM   33  C   UNL     1      -8.714  10.832  66.758  1.00  0.00    -0.145 A  
HETATM   34  C   UNL     1      -9.516  10.713  64.489  1.00  0.00    -0.313 A  
HETATM   35  C   UNL     1      -9.710  11.114  65.816  1.00  0.00    -0.266 A  
BRANCH  35  36
HETATM   36  C   UNL     1     -10.951  11.874  66.237  1.00  0.00    -0.302 C  
BRANCH  36  37
HETATM   37  N   UNL     1     -10.847  12.420  67.599  1.00  0.00    -0.218 NA 
HETATM   38  C   UNL     1     -12.001  13.250  67.960  1.00  0.00    -0.313 C  
HETATM   39  C   UNL     1      -9.584  13.131  67.848  1.00  0.00    -0.218 C  
HETATM   40  C   UNL     1      -9.505  14.500  67.167  1.00  0.00    -0.236 C  
HETATM   41  C   UNL     1     -12.011  14.621  67.277  1.00  0.00    -0.312 C  
HETATM   42  C   UNL     1     -10.705  15.384  67.527  1.00  0.00    -0.295 C  
BRANCH  42  43
HETATM   43  C   UNL     1     -10.607  15.896  68.964  1.00  0.00    -0.247 C  
HETATM   44  N   UNL     1     -11.783  16.292  69.528  1.00  0.00    -0.278 N  
HETATM   45  H2  UNL     1     -12.669  16.250  69.025  1.00  0.00     0.000 HD 
HETATM   46  O   UNL     1      -9.563  15.998  69.600  1.00  0.00    -0.236 OA 
HETATM   47  H1  UNL     1     -11.718  16.634  70.488  1.00  0.00     0.000 HD 
ENDBRANCH  42  43
ENDBRANCH  36  37
ENDBRANCH  35  36
ENDBRANCH   4  30
TORSDOF 11
ENDMDL
MODEL      147
REMARK 921   NORMALIZED FREE ENERGY PREDICTED BY IDOCK:   -4.08 KCAL/MOL
REMARK 922        TOTAL FREE ENERGY PREDICTED BY IDOCK:   -8.33 KCAL/MOL
REMARK 923 INTER-LIGAND FREE ENERGY PREDICTED BY IDOCK:   -8.30 KCAL/MOL
REMARK 924 INTRA-LIGAND FREE ENERGY PREDICTED BY IDOCK:   -0.03 KCAL/MOL
REMARK 927      BINDING AFFINITY PREDICTED BY RF-SCORE:    0.00 PKD
ROOT
HETATM    1  C   UNL     1     -13.377  12.761  71.864  1.00  0.00    -0.413 C  
HETATM    2  N   UNL     1     -12.478  12.961  70.738  1.00  0.00    -0.330 N  
HETATM    3  O   UNL     1     -13.132  15.175  70.671  1.00  0.00    -0.377 OA 
HETATM    4  C   UNL     1     -12.408  14.279  70.232  1.00  0.00    -0.354 C  
ENDROOT
BRANCH   2   5
HETATM    5  C   UNL     1     -11.495  11.934  70.388  1.00  0.00     0.227 C  
BRANCH   5   6
HETATM    6  C   UNL     1     -11.382  11.389  68.955  1.00  0.00    -0.270 C  
BRANCH   6   7
HETATM    7  N   UNL     1     -10.056  10.767  68.722  1.00  0.00    -0.183 NA 
HETATM    8  C   UNL     1      -9.811  10.497  67.298  1.00  0.00    -0.177 C  
HETATM    9  C   UNL     1      -9.815   9.542  69.503  1.00  0.00    -0.193 C  
HETATM   10  C   UNL     1     -10.541   8.081  67.598  1.00  0.00    -0.194 C  
HETATM   11  C   UNL     1     -10.728   8.393  69.086  1.00  0.00    -0.123 C  
HETATM   12  C   UNL     1     -10.656   9.348  66.744  1.00  0.00    -0.210 C  
BRANCH  10  13
HETATM   13  O   UNL     1      -9.229   7.522  67.386  1.00  0.00    -0.130 OA 
BRANCH  13  14
HETATM   14  C   UNL     1      -9.120   6.196  67.669  1.00  0.00    -0.109 C  
HETATM   15  H   UNL     1      -7.887   6.801  69.220  1.00  0.00     0.000 HD 
HETATM   16  O   UNL     1      -9.784   5.318  67.142  1.00  0.00    -0.132 OA 
HETATM   17  N   UNL     1      -8.148   6.025  68.613  1.00  0.00    -0.106 N  
BRANCH  17  18
HETATM   18  C   UNL     1      -7.506   4.777  68.752  1.00  0.00    -0.065 A  
HETATM   19  C   UNL     1      -7.803   3.907  69.824  1.00  0.00    -0.051 A  
HETATM   20  C   UNL     1      -5.910   3.217  67.802  1.00  0.00    -0.023 A  
HETATM   21  C   UNL     1      -7.110   2.675  69.826  1.00  0.00    -0.036 A  
HETATM   22  C   UNL     1      -6.191   2.328  68.828  1.00  0.00    -0.025 A  
HETATM   23  C   UNL     1      -6.559   4.444  67.768  1.00  0.00    -0.046 A  
BRANCH  19  24
HETATM   24  C   UNL     1      -8.792   4.194  70.909  1.00  0.00    -0.137 A  
HETATM   25  C   UNL     1      -9.470   3.178  71.608  1.00  0.00    -0.214 A  
HETATM   26  C   UNL     1     -10.408   3.466  72.608  1.00  0.00    -0.217 A  
HETATM   27  C   UNL     1     -10.722   4.784  72.915  1.00  0.00    -0.297 A  
HETATM   28  C   UNL     1     -10.080   5.814  72.237  1.00  0.00    -0.216 A  
HETATM   29  C   UNL     1      -9.120   5.520  71.262  1.00  0.00    -0.158 A  
ENDBRANCH  19  24
ENDBRANCH  17  18
ENDBRANCH  13  14
ENDBRANCH  10  13
ENDBRANCH   6   7
ENDBRANCH   5   6
ENDBRANCH   2   5
BRANCH   4  30
HETATM   30  C   UNL     1     -11.381  14.667  69.209  1.00  0.00    -0.313 A  
HETATM   31  C   UNL     1     -11.817  15.374  68.078  1.00  0.00    -0.128 A  
HETATM   32  C   UNL     1     -10.020  14.367  69.319  1.00  0.00     0.008 A  
HETATM   33  C   UNL     1      -9.096  14.902  68.421  1.00  0.00    -0.185 A  
HETATM   34  C   UNL     1     -10.898  15.855  67.137  1.00  0.00    -0.267 A  
HETATM   35  C   UNL     1      -9.525  15.654  67.322  1.00  0.00    -0.221 A  
BRANCH  35  36
HETATM   36  C   UNL     1      -8.508  16.204  66.342  1.00  0.00    -0.334 C  
BRANCH  36  37
HETATM   37  N   UNL     1      -7.355  16.826  67.011  1.00  0.00    -0.181 NA 
HETATM   38  C   UNL     1      -7.736  17.553  68.225  1.00  0.00    -0.247 C  
HETATM   39  C   UNL     1      -6.549  17.672  66.118  1.00  0.00    -0.267 C  
HETATM   40  C   UNL     1      -7.215  19.006  65.768  1.00  0.00    -0.263 C  
HETATM   41  C   UNL     1      -8.451  18.879  67.951  1.00  0.00    -0.318 C  
HETATM   42  C   UNL     1      -7.627  19.782  67.024  1.00  0.00    -0.290 C  
BRANCH  42  43
HETATM   43  C   UNL     1      -6.410  20.373  67.737  1.00  0.00    -0.253 C  
HETATM   44  N   UNL     1      -6.452  20.340  69.098  1.00  0.00    -0.301 N  
HETATM   45  H2  UNL     1      -7.242  19.947  69.608  1.00  0.00     0.000 HD 
HETATM   46  O   UNL     1      -5.452  20.888  67.170  1.00  0.00    -0.176 OA 
HETATM   47  H1  UNL     1      -5.640  20.735  69.574  1.00  0.00     0.000 HD 
ENDBRANCH  42  43
ENDBRANCH  36  37
ENDBRANCH  35  36
ENDBRANCH   4  30
TORSDOF 11
ENDMDL
MODEL      148
REMARK 921   NORMALIZED FREE ENERGY PREDICTED BY IDOCK:   -4.05 KCAL/MOL
REMARK 922        TOTAL FREE ENERGY PREDICTED BY IDOCK:   -8.28 KCAL/MOL
REMARK 923 INTER-LIGAND FREE ENERGY PREDICTED BY IDOCK:   -7.92 KCAL/MOL
REMARK 924 INTRA-LIGAND FREE ENERGY PREDICTED BY IDOCK:   -0.36 KCAL/MOL
REMARK 927      BINDING AFFINITY PREDICTED BY RF-SCORE:    0.00 PKD
ROOT
HETATM    1  C   UNL     1     -13.966   8.989  71.984  1.00  0.00    -0.410 C  
HETATM    2  N   UNL     1     -12.736   9.075  71.211  1.00  0.00    -0.297 N  
HETATM    3  O   UNL     1     -12.221   6.926  71.884  1.00  0.00    -0.322 OA 
HETATM    4  C   UNL     1     -11.931   7.913  71.205  1.00  0.00    -0.298 C  
ENDROOT
BRANCH   2   5
HETATM    5  C   UNL     1     -12.536  10.173  70.265  1.00  0.00    -0.104 C  
BRANCH   5   6
HETATM    6  C   UNL     1     -12.506  11.638  70.732  1.00  0.00    -0.330 C  
BRANCH   6   7
HETATM    7  N   UNL     1     -11.287  12.330  70.249  1.00  0.00     0.181 NA 
HETATM    8  C   UNL     1     -11.377  13.789  70.406  1.00  0.00     0.185 C  
HETATM    9  C   UNL     1     -10.916  12.007  68.861  1.00  0.00    -0.232 C  
HETATM   10  C   UNL     1     -12.097  14.037  67.982  1.00  0.00    -0.277 C  
HETATM   11  C   UNL     1     -11.935  12.520  67.848  1.00  0.00    -0.283 C  
HETATM   12  C   UNL     1     -12.361  14.444  69.435  1.00  0.00    -0.228 C  
BRANCH  10  13
HETATM   13  O   UNL     1     -10.885  14.688  67.552  1.00  0.00    -0.274 OA 
BRANCH  13  14
HETATM   14  C   UNL     1     -10.881  16.041  67.693  1.00  0.00    -0.311 C  
HETATM   15  H   UNL     1      -9.618  16.039  66.051  1.00  0.00     0.000 HD 
HETATM   16  O   UNL     1     -11.607  16.661  68.454  1.00  0.00    -0.170 OA 
HETATM   17  N   UNL     1      -9.934  16.569  66.863  1.00  0.00    -0.262 N  
BRANCH  17  18
HETATM   18  C   UNL     1      -9.392  17.844  67.126  1.00  0.00    -0.265 A  
HETATM   19  C   UNL     1      -8.138  17.998  67.758  1.00  0.00    -0.237 A  
HETATM   20  C   UNL     1      -9.684  20.242  66.906  1.00  0.00    -0.584 A  
HETATM   21  C   UNL     1      -7.698  19.330  67.933  1.00  0.00    -0.318 A  
HETATM   22  C   UNL     1      -8.449  20.432  67.504  1.00  0.00    -0.349 A  
HETATM   23  C   UNL     1     -10.161  18.950  66.725  1.00  0.00    -0.451 A  
BRANCH  19  24
HETATM   24  C   UNL     1      -7.267  16.872  68.216  1.00  0.00    -0.186 A  
HETATM   25  C   UNL     1      -7.445  16.229  69.455  1.00  0.00    -0.152 A  
HETATM   26  C   UNL     1      -6.607  15.188  69.877  1.00  0.00    -0.172 A  
HETATM   27  C   UNL     1      -5.541  14.783  69.084  1.00  0.00    -0.095 A  
HETATM   28  C   UNL     1      -5.328  15.403  67.859  1.00  0.00    -0.133 A  
HETATM   29  C   UNL     1      -6.188  16.419  67.428  1.00  0.00    -0.200 A  
ENDBRANCH  19  24
ENDBRANCH  17  18
ENDBRANCH  13  14
ENDBRANCH  10  13
ENDBRANCH   6   7
ENDBRANCH   5   6
ENDBRANCH   2   5
BRANCH   4  30
HETATM   30  C   UNL     1     -10.742   7.794  70.296  1.00  0.00    -0.237 A  
HETATM   31  C   UNL     1      -9.466   7.932  70.864  1.00  0.00    -0.167 A  
HETATM   32  C   UNL     1     -10.834   7.555  68.922  1.00  0.00    -0.063 A  
HETATM   33  C   UNL     1      -9.692   7.287  68.166  1.00  0.00    -0.155 A  
HETATM   34  C   UNL     1      -8.315   7.732  70.092  1.00  0.00    -0.128 A  
HETATM   35  C   UNL     1      -8.421   7.369  68.744  1.00  0.00    -0.129 A  
BRANCH  35  36
HETATM   36  C   UNL     1      -7.191   7.103  67.900  1.00  0.00    -0.091 C  
BRANCH  36  37
HETATM   37  N   UNL     1      -6.495   5.866  68.288  1.00  0.00    -0.044 NA 
HETATM   38  C   UNL     1      -5.526   5.429  67.279  1.00  0.00    -0.012 C  
HETATM   39  C   UNL     1      -7.408   4.772  68.653  1.00  0.00    -0.065 C  
HETATM   40  C   UNL     1      -8.118   4.137  67.454  1.00  0.00    -0.099 C  
HETATM   41  C   UNL     1      -6.169   4.824  66.028  1.00  0.00    -0.035 C  
HETATM   42  C   UNL     1      -7.122   3.677  66.383  1.00  0.00    -0.063 C  
BRANCH  42  43
HETATM   43  C   UNL     1      -6.369   2.423  66.827  1.00  0.00    -0.024 C  
HETATM   44  N   UNL     1      -5.222   2.153  66.143  1.00  0.00    -0.005 N  
HETATM   45  H2  UNL     1      -4.888   2.748  65.385  1.00  0.00     0.000 HD 
HETATM   46  O   UNL     1      -6.745   1.657  67.708  1.00  0.00    -0.031 OA 
HETATM   47  H1  UNL     1      -4.718   1.316  66.439  1.00  0.00     0.000 HD 
ENDBRANCH  42  43
ENDBRANCH  36  37
ENDBRANCH  35  36
ENDBRANCH   4  30
TORSDOF 11
ENDMDL
MODEL      149
REMARK 921   NORMALIZED FREE ENERGY PREDICTED BY IDOCK:   -4.04 KCAL/MOL
REMARK 922        TOTAL FREE ENERGY PREDICTED BY IDOCK:   -8.28 KCAL/MOL
REMARK 923 INTER-LIGAND FREE ENERGY PREDICTED BY IDOCK:   -8.14 KCAL/MOL
REMARK 924 INTRA-LIGAND FREE ENERGY PREDICTED BY IDOCK:   -0.14 KCAL/MOL
REMARK 927      BINDING AFFINITY PREDICTED BY RF-SCORE:    0.00 PKD
ROOT
HETATM    1  C   UNL     1     -13.364  12.779  71.739  1.00  0.00    -0.342 C  
HETATM    2  N   UNL     1     -12.481  13.044  70.613  1.00  0.00    -0.308 N  
HETATM    3  O   UNL     1     -13.069  15.275  70.739  1.00  0.00    -0.423 OA 
HETATM    4  C   UNL     1     -12.382  14.397  70.213  1.00  0.00    -0.348 C  
ENDROOT
BRANCH   2   5
HETATM    5  C   UNL     1     -11.538  12.021  70.159  1.00  0.00    -0.143 C  
BRANCH   5   6
HETATM    6  C   UNL     1     -11.679  11.357  68.780  1.00  0.00    -0.339 C  
BRANCH   6   7
HETATM    7  N   UNL     1     -10.353  11.017  68.211  1.00  0.00    -0.171 NA 
HETATM    8  C   UNL     1     -10.414   9.858  67.309  1.00  0.00    -0.258 C  
HETATM    9  C   UNL     1      -9.298  10.803  69.215  1.00  0.00    -0.067 C  
HETATM   10  C   UNL     1      -9.652   8.320  69.183  1.00  0.00    -0.160 C  
HETATM   11  C   UNL     1      -9.548   9.564  70.071  1.00  0.00    -0.272 C  
HETATM   12  C   UNL     1     -10.648   8.534  68.039  1.00  0.00    -0.197 C  
BRANCH  10  13
HETATM   13  O   UNL     1      -8.364   8.036  68.602  1.00  0.00    -0.125 OA 
BRANCH  13  14
HETATM   14  C   UNL     1      -8.140   6.724  68.321  1.00  0.00    -0.115 C  
HETATM   15  H   UNL     1      -6.170   7.298  68.031  1.00  0.00     0.000 HD 
HETATM   16  O   UNL     1      -8.957   5.831  68.481  1.00  0.00    -0.113 OA 
HETATM   17  N   UNL     1      -6.874   6.589  67.827  1.00  0.00    -0.077 N  
BRANCH  17  18
HETATM   18  C   UNL     1      -6.537   5.471  67.036  1.00  0.00    -0.056 A  
HETATM   19  C   UNL     1      -6.513   5.544  65.625  1.00  0.00    -0.040 A  
HETATM   20  C   UNL     1      -5.842   3.147  67.024  1.00  0.00    -0.023 A  
HETATM   21  C   UNL     1      -6.129   4.360  64.955  1.00  0.00    -0.023 A  
HETATM   22  C   UNL     1      -5.786   3.187  65.640  1.00  0.00    -0.019 A  
HETATM   23  C   UNL     1      -6.226   4.285  67.722  1.00  0.00    -0.036 A  
BRANCH  19  24
HETATM   24  C   UNL     1      -6.836   6.766  64.826  1.00  0.00    -0.050 A  
HETATM   25  C   UNL     1      -6.601   8.069  65.302  1.00  0.00    -0.051 A  
HETATM   26  C   UNL     1      -6.928   9.204  64.548  1.00  0.00    -0.090 A  
HETATM   27  C   UNL     1      -7.535   9.067  63.306  1.00  0.00    -0.099 A  
HETATM   28  C   UNL     1      -7.793   7.796  62.809  1.00  0.00    -0.135 A  
HETATM   29  C   UNL     1      -7.434   6.666  63.552  1.00  0.00    -0.080 A  
ENDBRANCH  19  24
ENDBRANCH  17  18
ENDBRANCH  13  14
ENDBRANCH  10  13
ENDBRANCH   6   7
ENDBRANCH   5   6
ENDBRANCH   2   5
BRANCH   4  30
HETATM   30  C   UNL     1     -11.364  14.837  69.202  1.00  0.00    -0.302 A  
HETATM   31  C   UNL     1     -11.814  15.577  68.098  1.00  0.00    -0.133 A  
HETATM   32  C   UNL     1      -9.999  14.553  69.297  1.00  0.00    -0.050 A  
HETATM   33  C   UNL     1      -9.085  15.134  68.417  1.00  0.00    -0.185 A  
HETATM   34  C   UNL     1     -10.905  16.105  67.172  1.00  0.00    -0.216 A  
HETATM   35  C   UNL     1      -9.529  15.919  67.347  1.00  0.00    -0.220 A  
BRANCH  35  36
HETATM   36  C   UNL     1      -8.524  16.518  66.384  1.00  0.00    -0.321 C  
BRANCH  36  37
HETATM   37  N   UNL     1      -7.388  17.151  67.072  1.00  0.00    -0.165 NA 
HETATM   38  C   UNL     1      -7.808  17.956  68.224  1.00  0.00    -0.285 C  
HETATM   39  C   UNL     1      -6.519  17.926  66.173  1.00  0.00    -0.257 C  
HETATM   40  C   UNL     1      -7.134  19.252  65.717  1.00  0.00    -0.306 C  
HETATM   41  C   UNL     1      -8.474  19.280  67.840  1.00  0.00    -0.343 C  
HETATM   42  C   UNL     1      -7.584  20.108  66.906  1.00  0.00    -0.331 C  
BRANCH  42  43
HETATM   43  C   UNL     1      -6.388  20.712  67.642  1.00  0.00    -0.282 C  
HETATM   44  N   UNL     1      -5.457  21.318  66.853  1.00  0.00    -0.248 N  
HETATM   45  H2  UNL     1      -5.551  21.366  65.839  1.00  0.00     0.000 HD 
HETATM   46  O   UNL     1      -6.211  20.652  68.854  1.00  0.00    -0.332 OA 
HETATM   47  H1  UNL     1      -4.658  21.721  67.344  1.00  0.00     0.000 HD 
ENDBRANCH  42  43
ENDBRANCH  36  37
ENDBRANCH  35  36
ENDBRANCH   4  30
TORSDOF 11
ENDMDL
MODEL      150
REMARK 921   NORMALIZED FREE ENERGY PREDICTED BY IDOCK:   -4.03 KCAL/MOL
REMARK 922        TOTAL FREE ENERGY PREDICTED BY IDOCK:   -8.25 KCAL/MOL
REMARK 923 INTER-LIGAND FREE ENERGY PREDICTED BY IDOCK:   -9.54 KCAL/MOL
REMARK 924 INTRA-LIGAND FREE ENERGY PREDICTED BY IDOCK:    1.29 KCAL/MOL
REMARK 927      BINDING AFFINITY PREDICTED BY RF-SCORE:    0.00 PKD
ROOT
HETATM    1  C   UNL     1     -12.424  12.372  70.518  1.00  0.00    -0.187 C  
HETATM    2  N   UNL     1     -11.573  11.217  70.273  1.00  0.00    -0.304 N  
HETATM    3  O   UNL     1     -12.604  10.144  72.040  1.00  0.00    -0.376 OA 
HETATM    4  C   UNL     1     -11.795  10.100  71.110  1.00  0.00    -0.381 C  
ENDROOT
BRANCH   2   5
HETATM    5  C   UNL     1     -10.783  11.132  69.044  1.00  0.00    -0.225 C  
BRANCH   5   6
HETATM    6  C   UNL     1     -11.449  11.180  67.659  1.00  0.00    -0.250 C  
BRANCH   6   7
HETATM    7  N   UNL     1     -10.593  11.891  66.678  1.00  0.00    -0.230 NA 
HETATM    8  C   UNL     1      -9.857  13.008  67.288  1.00  0.00    -0.227 C  
HETATM    9  C   UNL     1     -11.308  12.367  65.482  1.00  0.00    -0.346 C  
HETATM   10  C   UNL     1     -11.614  14.652  66.471  1.00  0.00    -0.344 C  
HETATM   11  C   UNL     1     -12.317  13.466  65.803  1.00  0.00    -0.513 C  
HETATM   12  C   UNL     1     -10.751  14.196  67.651  1.00  0.00    -0.260 C  
BRANCH  10  13
HETATM   13  O   UNL     1     -10.752  15.298  65.514  1.00  0.00    -0.324 OA 
BRANCH  13  14
HETATM   14  C   UNL     1      -9.770  16.068  66.057  1.00  0.00    -0.344 C  
HETATM   15  H   UNL     1     -10.822  15.860  67.830  1.00  0.00     0.000 HD 
HETATM   16  O   UNL     1      -8.742  16.389  65.482  1.00  0.00    -0.244 OA 
HETATM   17  N   UNL     1     -10.136  16.420  67.325  1.00  0.00    -0.264 N  
BRANCH  17  18
HETATM   18  C   UNL     1      -9.569  17.557  67.937  1.00  0.00    -0.277 A  
HETATM   19  C   UNL     1      -8.313  17.501  68.581  1.00  0.00    -0.258 A  
HETATM   20  C   UNL     1      -9.814  19.924  68.409  1.00  0.00    -0.489 A  
HETATM   21  C   UNL     1      -7.847  18.719  69.126  1.00  0.00    -0.115 A  
HETATM   22  C   UNL     1      -8.575  19.912  69.031  1.00  0.00     0.041 A  
HETATM   23  C   UNL     1     -10.316  18.746  67.871  1.00  0.00    -0.461 A  
BRANCH  19  24
HETATM   24  C   UNL     1      -7.466  16.274  68.696  1.00  0.00    -0.185 A  
HETATM   25  C   UNL     1      -7.686  15.287  69.674  1.00  0.00    -0.161 A  
HETATM   26  C   UNL     1      -6.870  14.153  69.780  1.00  0.00    -0.019 A  
HETATM   27  C   UNL     1      -5.784  13.991  68.929  1.00  0.00    -0.082 A  
HETATM   28  C   UNL     1      -5.529  14.951  67.958  1.00  0.00    -0.137 A  
HETATM   29  C   UNL     1      -6.367  16.065  67.835  1.00  0.00    -0.155 A  
ENDBRANCH  19  24
ENDBRANCH  17  18
ENDBRANCH  13  14
ENDBRANCH  10  13
ENDBRANCH   6   7
ENDBRANCH   5   6
ENDBRANCH   2   5
BRANCH   4  30
HETATM   30  C   UNL     1     -11.130   8.781  70.842  1.00  0.00    -0.320 A  
HETATM   31  C   UNL     1      -9.756   8.675  71.105  1.00  0.00    -0.287 A  
HETATM   32  C   UNL     1     -11.799   7.659  70.347  1.00  0.00    -0.014 A  
HETATM   33  C   UNL     1     -11.162   6.419  70.280  1.00  0.00    -0.445 A  
HETATM   34  C   UNL     1      -9.096   7.447  70.973  1.00  0.00    -0.152 A  
HETATM   35  C   UNL     1      -9.804   6.300  70.596  1.00  0.00    -0.213 A  
BRANCH  35  36
HETATM   36  C   UNL     1      -9.122   4.951  70.491  1.00  0.00    -0.130 C  
BRANCH  36  37
HETATM   37  N   UNL     1      -9.132   4.417  69.120  1.00  0.00    -0.115 NA 
HETATM   38  C   UNL     1      -7.782   4.168  68.605  1.00  0.00    -0.062 C  
HETATM   39  C   UNL     1      -9.915   5.234  68.180  1.00  0.00    -0.155 C  
HETATM   40  C   UNL     1      -9.230   6.547  67.789  1.00  0.00    -0.113 C  
HETATM   41  C   UNL     1      -7.019   5.443  68.236  1.00  0.00    -0.061 C  
HETATM   42  C   UNL     1      -7.813   6.311  67.253  1.00  0.00    -0.108 C  
BRANCH  42  43
HETATM   43  C   UNL     1      -7.844   5.703  65.850  1.00  0.00    -0.101 C  
HETATM   44  N   UNL     1      -6.702   5.073  65.456  1.00  0.00    -0.054 N  
HETATM   45  H2  UNL     1      -5.881   5.010  66.058  1.00  0.00     0.000 HD 
HETATM   46  O   UNL     1      -8.793   5.779  65.077  1.00  0.00    -0.094 OA 
HETATM   47  H1  UNL     1      -6.723   4.667  64.520  1.00  0.00     0.000 HD 
ENDBRANCH  42  43
ENDBRANCH  36  37
ENDBRANCH  35  36
ENDBRANCH   4  30
TORSDOF 11
ENDMDL
MODEL      151
REMARK 921   NORMALIZED FREE ENERGY PREDICTED BY IDOCK:   -3.95 KCAL/MOL
REMARK 922        TOTAL FREE ENERGY PREDICTED BY IDOCK:   -8.12 KCAL/MOL
REMARK 923 INTER-LIGAND FREE ENERGY PREDICTED BY IDOCK:   -6.81 KCAL/MOL
REMARK 924 INTRA-LIGAND FREE ENERGY PREDICTED BY IDOCK:   -1.31 KCAL/MOL
REMARK 927      BINDING AFFINITY PREDICTED BY RF-SCORE:    0.00 PKD
ROOT
HETATM    1  C   UNL     1      -9.633  16.967  67.560  1.00  0.00    -0.249 C  
HETATM    2  N   UNL     1      -9.841  15.734  68.304  1.00  0.00    -0.211 N  
HETATM    3  O   UNL     1     -12.120  16.054  68.101  1.00  0.00     0.042 OA 
HETATM    4  C   UNL     1     -11.188  15.343  68.482  1.00  0.00    -0.318 C  
ENDROOT
BRANCH   2   5
HETATM    5  C   UNL     1      -8.721  14.825  68.552  1.00  0.00    -0.174 C  
BRANCH   5   6
HETATM    6  C   UNL     1      -7.984  14.130  67.396  1.00  0.00    -0.184 C  
BRANCH   6   7
HETATM    7  N   UNL     1      -6.763  13.439  67.879  1.00  0.00    -0.132 NA 
HETATM    8  C   UNL     1      -6.319  12.384  66.957  1.00  0.00     0.017 C  
HETATM    9  C   UNL     1      -6.875  12.888  69.240  1.00  0.00    -0.018 C  
HETATM   10  C   UNL     1      -7.490  10.620  68.362  1.00  0.00    -0.093 C  
HETATM   11  C   UNL     1      -7.882  11.744  69.326  1.00  0.00     0.269 C  
HETATM   12  C   UNL     1      -7.236  11.159  66.951  1.00  0.00    -0.138 C  
BRANCH  10  13
HETATM   13  O   UNL     1      -6.276   9.995  68.822  1.00  0.00    -0.041 OA 
BRANCH  13  14
HETATM   14  C   UNL     1      -6.431   9.155  69.882  1.00  0.00    -0.042 C  
HETATM   15  H   UNL     1      -4.880   8.074  69.036  1.00  0.00     0.000 HD 
HETATM   16  O   UNL     1      -7.147   9.379  70.845  1.00  0.00    -0.129 OA 
HETATM   17  N   UNL     1      -5.674   8.038  69.674  1.00  0.00    -0.026 N  
BRANCH  17  18
HETATM   18  C   UNL     1      -5.986   6.836  70.341  1.00  0.00    -0.024 A  
HETATM   19  C   UNL     1      -6.250   5.643  69.630  1.00  0.00    -0.029 A  
HETATM   20  C   UNL     1      -6.277   5.737  72.484  1.00  0.00    -0.048 A  
HETATM   21  C   UNL     1      -6.519   4.504  70.422  1.00  0.00    -0.034 A  
HETATM   22  C   UNL     1      -6.520   4.544  71.822  1.00  0.00    -0.022 A  
HETATM   23  C   UNL     1      -6.020   6.885  71.745  1.00  0.00    -0.037 A  
BRANCH  19  24
HETATM   24  C   UNL     1      -6.238   5.515  68.141  1.00  0.00    -0.033 A  
HETATM   25  C   UNL     1      -6.938   6.397  67.297  1.00  0.00    -0.072 A  
HETATM   26  C   UNL     1      -6.932   6.250  65.903  1.00  0.00    -0.061 A  
HETATM   27  C   UNL     1      -6.250   5.193  65.314  1.00  0.00    -0.034 A  
HETATM   28  C   UNL     1      -5.556   4.296  66.117  1.00  0.00    -0.014 A  
HETATM   29  C   UNL     1      -5.539   4.467  67.506  1.00  0.00    -0.017 A  
ENDBRANCH  19  24
ENDBRANCH  17  18
ENDBRANCH  13  14
ENDBRANCH  10  13
ENDBRANCH   6   7
ENDBRANCH   5   6
ENDBRANCH   2   5
BRANCH   4  30
HETATM   30  C   UNL     1     -11.540  14.000  69.053  1.00  0.00    -0.345 A  
HETATM   31  C   UNL     1     -12.078  13.958  70.348  1.00  0.00    -0.421 A  
HETATM   32  C   UNL     1     -11.363  12.793  68.370  1.00  0.00    -0.331 A  
HETATM   33  C   UNL     1     -11.865  11.599  68.888  1.00  0.00    -0.392 A  
HETATM   34  C   UNL     1     -12.522  12.750  70.900  1.00  0.00    -0.373 A  
HETATM   35  C   UNL     1     -12.453  11.566  70.157  1.00  0.00    -0.239 A  
BRANCH  35  36
HETATM   36  C   UNL     1     -12.968  10.255  70.715  1.00  0.00    -0.330 C  
BRANCH  36  37
HETATM   37  N   UNL     1     -12.065   9.673  71.721  1.00  0.00    -0.386 NA 
HETATM   38  C   UNL     1     -10.708   9.471  71.205  1.00  0.00    -0.316 C  
HETATM   39  C   UNL     1     -12.588   8.442  72.333  1.00  0.00    -0.316 C  
HETATM   40  C   UNL     1     -12.532   7.224  71.407  1.00  0.00    -0.418 C  
HETATM   41  C   UNL     1     -10.587   8.293  70.234  1.00  0.00    -0.230 C  
HETATM   42  C   UNL     1     -11.122   6.996  70.852  1.00  0.00    -0.300 C  
BRANCH  42  43
HETATM   43  C   UNL     1     -10.184   6.445  71.926  1.00  0.00    -0.195 C  
HETATM   44  N   UNL     1     -10.665   5.392  72.644  1.00  0.00    -0.226 N  
HETATM   45  H2  UNL     1     -11.591   4.997  72.475  1.00  0.00     0.000 HD 
HETATM   46  O   UNL     1      -9.078   6.904  72.190  1.00  0.00    -0.133 OA 
HETATM   47  H1  UNL     1     -10.039   5.023  73.361  1.00  0.00     0.000 HD 
ENDBRANCH  42  43
ENDBRANCH  36  37
ENDBRANCH  35  36
ENDBRANCH   4  30
TORSDOF 11
ENDMDL
MODEL      152
REMARK 921   NORMALIZED FREE ENERGY PREDICTED BY IDOCK:   -3.92 KCAL/MOL
REMARK 922        TOTAL FREE ENERGY PREDICTED BY IDOCK:   -8.07 KCAL/MOL
REMARK 923 INTER-LIGAND FREE ENERGY PREDICTED BY IDOCK:   -7.88 KCAL/MOL
REMARK 924 INTRA-LIGAND FREE ENERGY PREDICTED BY IDOCK:   -0.19 KCAL/MOL
REMARK 927      BINDING AFFINITY PREDICTED BY RF-SCORE:    0.00 PKD
ROOT
HETATM    1  C   UNL     1     -12.820  14.362  69.956  1.00  0.00    -0.009 C  
HETATM    2  N   UNL     1     -12.438  13.486  68.859  1.00  0.00     0.045 N  
HETATM    3  O   UNL     1     -11.965  15.359  67.593  1.00  0.00    -0.124 OA 
HETATM    4  C   UNL     1     -11.967  14.131  67.692  1.00  0.00    -0.370 C  
ENDROOT
BRANCH   2   5
HETATM    5  C   UNL     1     -12.259  12.052  69.089  1.00  0.00    -0.049 C  
BRANCH   5   6
HETATM    6  C   UNL     1     -10.958  11.494  69.689  1.00  0.00    -0.064 C  
BRANCH   6   7
HETATM    7  N   UNL     1     -10.568  10.223  69.032  1.00  0.00    -0.210 NA 
HETATM    8  C   UNL     1     -11.000   9.045  69.798  1.00  0.00    -0.166 C  
HETATM    9  C   UNL     1      -9.131  10.112  68.729  1.00  0.00    -0.153 C  
HETATM   10  C   UNL     1      -8.695   8.843  70.848  1.00  0.00    -0.210 C  
HETATM   11  C   UNL     1      -8.272  10.038  69.989  1.00  0.00    -0.139 C  
HETATM   12  C   UNL     1     -10.208   8.837  71.090  1.00  0.00    -0.316 C  
BRANCH  10  13
HETATM   13  O   UNL     1      -8.351   7.618  70.170  1.00  0.00    -0.126 OA 
BRANCH  13  14
HETATM   14  C   UNL     1      -8.340   6.510  70.959  1.00  0.00    -0.126 C  
HETATM   15  H   UNL     1      -9.833   5.810  69.704  1.00  0.00     0.000 HD 
HETATM   16  O   UNL     1      -7.513   6.286  71.828  1.00  0.00    -0.091 OA 
HETATM   17  N   UNL     1      -9.403   5.720  70.625  1.00  0.00    -0.157 N  
BRANCH  17  18
HETATM   18  C   UNL     1      -9.907   4.782  71.548  1.00  0.00    -0.187 A  
HETATM   19  C   UNL     1      -9.682   3.396  71.392  1.00  0.00    -0.234 A  
HETATM   20  C   UNL     1     -11.139   4.446  73.611  1.00  0.00    -0.361 A  
HETATM   21  C   UNL     1     -10.216   2.568  72.405  1.00  0.00    -0.218 A  
HETATM   22  C   UNL     1     -10.920   3.082  73.502  1.00  0.00    -0.323 A  
HETATM   23  C   UNL     1     -10.642   5.295  72.630  1.00  0.00    -0.278 A  
BRANCH  19  24
HETATM   24  C   UNL     1      -8.916   2.776  70.266  1.00  0.00    -0.165 A  
HETATM   25  C   UNL     1      -9.485   2.535  69.002  1.00  0.00    -0.151 A  
HETATM   26  C   UNL     1      -8.758   1.936  67.964  1.00  0.00    -0.123 A  
HETATM   27  C   UNL     1      -7.448   1.526  68.174  1.00  0.00    -0.046 A  
HETATM   28  C   UNL     1      -6.857   1.737  69.414  1.00  0.00    -0.033 A  
HETATM   29  C   UNL     1      -7.577   2.366  70.436  1.00  0.00    -0.043 A  
ENDBRANCH  19  24
ENDBRANCH  17  18
ENDBRANCH  13  14
ENDBRANCH  10  13
ENDBRANCH   6   7
ENDBRANCH   5   6
ENDBRANCH   2   5
BRANCH   4  30
HETATM   30  C   UNL     1     -11.356  13.351  66.565  1.00  0.00    -0.346 A  
HETATM   31  C   UNL     1     -12.127  13.158  65.408  1.00  0.00    -0.478 A  
HETATM   32  C   UNL     1     -10.069  12.809  66.601  1.00  0.00    -0.248 A  
HETATM   33  C   UNL     1      -9.499  12.242  65.460  1.00  0.00    -0.029 A  
HETATM   34  C   UNL     1     -11.582  12.529  64.282  1.00  0.00    -0.435 A  
HETATM   35  C   UNL     1     -10.249  12.100  64.287  1.00  0.00    -0.351 A  
BRANCH  35  36
HETATM   36  C   UNL     1      -9.623  11.457  63.066  1.00  0.00    -0.376 C  
BRANCH  36  37
HETATM   37  N   UNL     1      -9.337  10.028  63.262  1.00  0.00    -0.288 NA 
HETATM   38  C   UNL     1      -9.018   9.706  64.656  1.00  0.00    -0.231 C  
HETATM   39  C   UNL     1      -8.308   9.508  62.349  1.00  0.00    -0.152 C  
HETATM   40  C   UNL     1      -6.888   9.961  62.703  1.00  0.00    -0.117 C  
HETATM   41  C   UNL     1      -7.627  10.172  65.093  1.00  0.00    -0.141 C  
HETATM   42  C   UNL     1      -6.534   9.638  64.159  1.00  0.00    -0.111 C  
BRANCH  42  43
HETATM   43  C   UNL     1      -6.296   8.141  64.355  1.00  0.00    -0.065 C  
HETATM   44  N   UNL     1      -6.822   7.605  65.492  1.00  0.00    -0.048 N  
HETATM   45  H2  UNL     1      -7.341   8.166  66.167  1.00  0.00     0.000 HD 
HETATM   46  O   UNL     1      -5.652   7.430  63.590  1.00  0.00    -0.036 OA 
HETATM   47  H1  UNL     1      -6.663   6.605  65.622  1.00  0.00     0.000 HD 
ENDBRANCH  42  43
ENDBRANCH  36  37
ENDBRANCH  35  36
ENDBRANCH   4  30
TORSDOF 11
ENDMDL
MODEL      153
REMARK 921   NORMALIZED FREE ENERGY PREDICTED BY IDOCK:   -3.90 KCAL/MOL
REMARK 922        TOTAL FREE ENERGY PREDICTED BY IDOCK:   -8.04 KCAL/MOL
REMARK 923 INTER-LIGAND FREE ENERGY PREDICTED BY IDOCK:   -7.82 KCAL/MOL
REMARK 924 INTRA-LIGAND FREE ENERGY PREDICTED BY IDOCK:   -0.22 KCAL/MOL
REMARK 927      BINDING AFFINITY PREDICTED BY RF-SCORE:    0.00 PKD
ROOT
HETATM    1  C   UNL     1      -7.543   8.736  71.692  1.00  0.00    -0.070 C  
HETATM    2  N   UNL     1      -6.944   8.066  70.547  1.00  0.00    -0.041 N  
HETATM    3  O   UNL     1      -8.649   6.510  70.629  1.00  0.00    -0.136 OA 
HETATM    4  C   UNL     1      -7.643   6.938  70.060  1.00  0.00    -0.099 C  
ENDROOT
BRANCH   2   5
HETATM    5  C   UNL     1      -5.880   8.719  69.784  1.00  0.00    -0.028 C  
BRANCH   5   6
HETATM    6  C   UNL     1      -6.182   9.880  68.822  1.00  0.00    -0.041 C  
BRANCH   6   7
HETATM    7  N   UNL     1      -6.913  10.971  69.512  1.00  0.00    -0.129 NA 
HETATM    8  C   UNL     1      -7.900  11.619  68.637  1.00  0.00    -0.132 C  
HETATM    9  C   UNL     1      -6.045  11.995  70.117  1.00  0.00    -0.131 C  
HETATM   10  C   UNL     1      -6.255  13.482  68.108  1.00  0.00    -0.114 C  
HETATM   11  C   UNL     1      -5.278  12.803  69.074  1.00  0.00    -0.067 C  
HETATM   12  C   UNL     1      -7.267  12.481  67.543  1.00  0.00    -0.147 C  
BRANCH  10  13
HETATM   13  O   UNL     1      -6.989  14.506  68.810  1.00  0.00    -0.093 OA 
BRANCH  13  14
HETATM   14  C   UNL     1      -7.258  15.620  68.079  1.00  0.00    -0.129 C  
HETATM   15  H   UNL     1      -7.697  16.504  69.900  1.00  0.00     0.000 HD 
HETATM   16  O   UNL     1      -7.023  15.741  66.887  1.00  0.00    -0.225 OA 
HETATM   17  N   UNL     1      -7.836  16.553  68.892  1.00  0.00    -0.232 N  
BRANCH  17  18
HETATM   18  C   UNL     1      -8.626  17.582  68.340  1.00  0.00    -0.275 A  
HETATM   19  C   UNL     1     -10.013  17.417  68.126  1.00  0.00    -0.308 A  
HETATM   20  C   UNL     1      -8.672  19.861  67.509  1.00  0.00    -0.401 A  
HETATM   21  C   UNL     1     -10.690  18.538  67.596  1.00  0.00    -0.405 A  
HETATM   22  C   UNL     1     -10.038  19.743  67.305  1.00  0.00    -0.549 A  
HETATM   23  C   UNL     1      -7.964  18.779  68.016  1.00  0.00    -0.306 A  
BRANCH  19  24
HETATM   24  C   UNL     1     -10.784  16.175  68.439  1.00  0.00    -0.298 A  
HETATM   25  C   UNL     1     -11.297  15.901  69.720  1.00  0.00    -0.347 A  
HETATM   26  C   UNL     1     -12.000  14.722  70.001  1.00  0.00    -0.369 A  
HETATM   27  C   UNL     1     -12.181  13.763  69.012  1.00  0.00    -0.259 A  
HETATM   28  C   UNL     1     -11.678  13.994  67.737  1.00  0.00    -0.403 A  
HETATM   29  C   UNL     1     -11.005  15.188  67.455  1.00  0.00    -0.314 A  
ENDBRANCH  19  24
ENDBRANCH  17  18
ENDBRANCH  13  14
ENDBRANCH  10  13
ENDBRANCH   6   7
ENDBRANCH   5   6
ENDBRANCH   2   5
BRANCH   4  30
HETATM   30  C   UNL     1      -7.249   6.274  68.772  1.00  0.00    -0.084 A  
HETATM   31  C   UNL     1      -7.083   4.881  68.778  1.00  0.00    -0.053 A  
HETATM   32  C   UNL     1      -7.040   6.962  67.574  1.00  0.00    -0.085 A  
HETATM   33  C   UNL     1      -6.841   6.271  66.379  1.00  0.00    -0.062 A  
HETATM   34  C   UNL     1      -6.816   4.188  67.590  1.00  0.00    -0.051 A  
HETATM   35  C   UNL     1      -6.731   4.876  66.374  1.00  0.00    -0.050 A  
BRANCH  35  36
HETATM   36  C   UNL     1      -6.488   4.144  65.070  1.00  0.00    -0.035 C  
BRANCH  36  37
HETATM   37  N   UNL     1      -7.566   4.356  64.092  1.00  0.00    -0.070 NA 
HETATM   38  C   UNL     1      -8.865   4.591  64.730  1.00  0.00    -0.149 C  
HETATM   39  C   UNL     1      -7.658   3.288  63.083  1.00  0.00    -0.062 C  
HETATM   40  C   UNL     1      -8.246   1.982  63.624  1.00  0.00    -0.080 C  
HETATM   41  C   UNL     1      -9.491   3.332  65.336  1.00  0.00    -0.119 C  
HETATM   42  C   UNL     1      -9.603   2.205  64.301  1.00  0.00    -0.122 C  
BRANCH  42  43
HETATM   43  C   UNL     1     -10.699   2.480  63.272  1.00  0.00    -0.229 C  
HETATM   44  N   UNL     1     -11.684   1.541  63.197  1.00  0.00    -0.348 N  
HETATM   45  H2  UNL     1     -11.689   0.710  63.789  1.00  0.00     0.000 HD 
HETATM   46  O   UNL     1     -10.722   3.445  62.516  1.00  0.00    -0.171 OA 
HETATM   47  H1  UNL     1     -12.416   1.724  62.511  1.00  0.00     0.000 HD 
ENDBRANCH  42  43
ENDBRANCH  36  37
ENDBRANCH  35  36
ENDBRANCH   4  30
TORSDOF 11
ENDMDL
MODEL      154
REMARK 921   NORMALIZED FREE ENERGY PREDICTED BY IDOCK:   -3.86 KCAL/MOL
REMARK 922        TOTAL FREE ENERGY PREDICTED BY IDOCK:   -7.98 KCAL/MOL
REMARK 923 INTER-LIGAND FREE ENERGY PREDICTED BY IDOCK:   -8.39 KCAL/MOL
REMARK 924 INTRA-LIGAND FREE ENERGY PREDICTED BY IDOCK:    0.42 KCAL/MOL
REMARK 927      BINDING AFFINITY PREDICTED BY RF-SCORE:    0.00 PKD
ROOT
HETATM    1  C   UNL     1      -6.273   6.727  65.816  1.00  0.00    -0.039 C  
HETATM    2  N   UNL     1      -7.182   6.634  66.949  1.00  0.00    -0.076 N  
HETATM    3  O   UNL     1      -5.642   5.278  68.011  1.00  0.00    -0.011 OA 
HETATM    4  C   UNL     1      -6.716   5.882  68.052  1.00  0.00    -0.061 C  
ENDROOT
BRANCH   2   5
HETATM    5  C   UNL     1      -8.339   7.525  67.040  1.00  0.00    -0.121 C  
BRANCH   5   6
HETATM    6  C   UNL     1      -9.003   8.105  65.780  1.00  0.00    -0.119 C  
BRANCH   6   7
HETATM    7  N   UNL     1      -8.291   9.318  65.310  1.00  0.00    -0.137 NA 
HETATM    8  C   UNL     1      -7.783  10.132  66.424  1.00  0.00    -0.111 C  
HETATM    9  C   UNL     1      -9.076  10.168  64.398  1.00  0.00    -0.245 C  
HETATM   10  C   UNL     1      -9.814  11.653  66.279  1.00  0.00    -0.219 C  
HETATM   11  C   UNL     1     -10.276  10.811  65.086  1.00  0.00    -0.365 C  
HETATM   12  C   UNL     1      -8.887  10.853  67.200  1.00  0.00    -0.135 C  
BRANCH  10  13
HETATM   13  O   UNL     1      -9.083  12.800  65.803  1.00  0.00     0.096 OA 
BRANCH  13  14
HETATM   14  C   UNL     1      -8.850  13.760  66.738  1.00  0.00    -0.138 C  
HETATM   15  H   UNL     1     -10.454  14.750  65.877  1.00  0.00     0.000 HD 
HETATM   16  O   UNL     1      -8.070  13.645  67.670  1.00  0.00    -0.149 OA 
HETATM   17  N   UNL     1      -9.617  14.853  66.450  1.00  0.00    -0.276 N  
BRANCH  17  18
HETATM   18  C   UNL     1      -9.253  16.123  66.941  1.00  0.00    -0.225 A  
HETATM   19  C   UNL     1      -9.715  16.593  68.191  1.00  0.00    -0.244 A  
HETATM   20  C   UNL     1      -7.966  18.142  66.551  1.00  0.00    -0.290 A  
HETATM   21  C   UNL     1      -9.251  17.870  68.578  1.00  0.00    -0.288 A  
HETATM   22  C   UNL     1      -8.382  18.627  67.781  1.00  0.00    -0.285 A  
HETATM   23  C   UNL     1      -8.408  16.896  66.126  1.00  0.00    -0.286 A  
BRANCH  19  24
HETATM   24  C   UNL     1     -10.618  15.832  69.109  1.00  0.00    -0.242 A  
HETATM   25  C   UNL     1     -10.336  15.651  70.475  1.00  0.00    -0.007 A  
HETATM   26  C   UNL     1     -11.183  14.918  71.317  1.00  0.00    -0.183 A  
HETATM   27  C   UNL     1     -12.325  14.314  70.806  1.00  0.00    -0.427 A  
HETATM   28  C   UNL     1     -12.630  14.462  69.458  1.00  0.00    -0.034 A  
HETATM   29  C   UNL     1     -11.797  15.223  68.630  1.00  0.00    -0.329 A  
ENDBRANCH  19  24
ENDBRANCH  17  18
ENDBRANCH  13  14
ENDBRANCH  10  13
ENDBRANCH   6   7
ENDBRANCH   5   6
ENDBRANCH   2   5
BRANCH   4  30
HETATM   30  C   UNL     1      -7.461   5.869  69.355  1.00  0.00    -0.087 A  
HETATM   31  C   UNL     1      -6.934   6.619  70.419  1.00  0.00    -0.063 A  
HETATM   32  C   UNL     1      -8.644   5.156  69.569  1.00  0.00    -0.099 A  
HETATM   33  C   UNL     1      -9.374   5.321  70.746  1.00  0.00    -0.205 A  
HETATM   34  C   UNL     1      -7.631   6.731  71.628  1.00  0.00    -0.088 A  
HETATM   35  C   UNL     1      -8.877   6.113  71.786  1.00  0.00    -0.138 A  
BRANCH  35  36
HETATM   36  C   UNL     1      -9.671   6.258  73.069  1.00  0.00    -0.154 C  
BRANCH  36  37
HETATM   37  N   UNL     1     -10.291   7.585  73.205  1.00  0.00    -0.314 NA 
HETATM   38  C   UNL     1     -11.748   7.542  73.050  1.00  0.00     0.005 C  
HETATM   39  C   UNL     1      -9.695   8.601  72.324  1.00  0.00    -0.286 C  
HETATM   40  C   UNL     1     -10.082   8.441  70.851  1.00  0.00    -0.234 C  
HETATM   41  C   UNL     1     -12.208   7.337  71.604  1.00  0.00    -0.377 C  
HETATM   42  C   UNL     1     -11.603   8.388  70.666  1.00  0.00    -0.205 C  
BRANCH  42  43
HETATM   43  C   UNL     1     -12.236   9.766  70.867  1.00  0.00    -0.302 C  
HETATM   44  N   UNL     1     -12.176  10.603  69.793  1.00  0.00    -0.492 N  
HETATM   45  H2  UNL     1     -11.739  10.328  68.914  1.00  0.00     0.000 HD 
HETATM   46  O   UNL     1     -12.744  10.155  71.913  1.00  0.00    -0.409 OA 
HETATM   47  H1  UNL     1     -12.599  11.522  69.927  1.00  0.00     0.000 HD 
ENDBRANCH  42  43
ENDBRANCH  36  37
ENDBRANCH  35  36
ENDBRANCH   4  30
TORSDOF 11
ENDMDL
MODEL      155
REMARK 921   NORMALIZED FREE ENERGY PREDICTED BY IDOCK:   -3.85 KCAL/MOL
REMARK 922        TOTAL FREE ENERGY PREDICTED BY IDOCK:   -7.96 KCAL/MOL
REMARK 923 INTER-LIGAND FREE ENERGY PREDICTED BY IDOCK:   -7.35 KCAL/MOL
REMARK 924 INTRA-LIGAND FREE ENERGY PREDICTED BY IDOCK:   -0.61 KCAL/MOL
REMARK 927      BINDING AFFINITY PREDICTED BY RF-SCORE:    0.00 PKD
ROOT
HETATM    1  C   UNL     1      -5.727   5.950  62.330  1.00  0.00    -0.021 C  
HETATM    2  N   UNL     1      -6.744   6.742  63.005  1.00  0.00    -0.042 N  
HETATM    3  O   UNL     1      -5.354   8.580  62.842  1.00  0.00    -0.067 OA 
HETATM    4  C   UNL     1      -6.446   8.113  63.174  1.00  0.00    -0.081 C  
ENDROOT
BRANCH   2   5
HETATM    5  C   UNL     1      -8.093   6.203  63.192  1.00  0.00    -0.078 C  
BRANCH   5   6
HETATM    6  C   UNL     1      -8.338   4.928  64.014  1.00  0.00    -0.131 C  
BRANCH   6   7
HETATM    7  N   UNL     1      -7.607   4.973  65.304  1.00  0.00    -0.080 NA 
HETATM    8  C   UNL     1      -7.644   3.684  66.010  1.00  0.00    -0.081 C  
HETATM    9  C   UNL     1      -8.046   6.045  66.213  1.00  0.00    -0.112 C  
HETATM   10  C   UNL     1      -9.583   4.489  67.442  1.00  0.00    -0.176 C  
HETATM   11  C   UNL     1      -9.471   5.835  66.719  1.00  0.00    -0.154 C  
HETATM   12  C   UNL     1      -9.021   3.349  66.587  1.00  0.00    -0.162 C  
BRANCH  10  13
HETATM   13  O   UNL     1      -8.827   4.539  68.668  1.00  0.00    -0.096 OA 
BRANCH  13  14
HETATM   14  C   UNL     1      -9.477   5.109  69.718  1.00  0.00    -0.150 C  
HETATM   15  H   UNL     1      -7.805   6.322  69.875  1.00  0.00     0.000 HD 
HETATM   16  O   UNL     1     -10.637   4.882  70.021  1.00  0.00    -0.181 OA 
HETATM   17  N   UNL     1      -8.616   5.948  70.366  1.00  0.00    -0.133 N  
BRANCH  17  18
HETATM   18  C   UNL     1      -8.847   6.299  71.712  1.00  0.00    -0.137 A  
HETATM   19  C   UNL     1      -8.176   5.649  72.772  1.00  0.00    -0.112 A  
HETATM   20  C   UNL     1     -10.032   7.768  73.236  1.00  0.00    -0.370 A  
HETATM   21  C   UNL     1      -8.477   6.120  74.070  1.00  0.00    -0.116 A  
HETATM   22  C   UNL     1      -9.377   7.168  74.300  1.00  0.00    -0.246 A  
HETATM   23  C   UNL     1      -9.776   7.329  71.944  1.00  0.00    -0.171 A  
BRANCH  19  24
HETATM   24  C   UNL     1      -7.181   4.546  72.604  1.00  0.00    -0.080 A  
HETATM   25  C   UNL     1      -6.940   3.921  71.366  1.00  0.00    -0.032 A  
HETATM   26  C   UNL     1      -6.018   2.875  71.231  1.00  0.00    -0.014 A  
HETATM   27  C   UNL     1      -5.334   2.397  72.342  1.00  0.00     0.000 A  
HETATM   28  C   UNL     1      -5.555   2.982  73.582  1.00  0.00     0.000 A  
HETATM   29  C   UNL     1      -6.452   4.049  73.705  1.00  0.00    -0.045 A  
ENDBRANCH  19  24
ENDBRANCH  17  18
ENDBRANCH  13  14
ENDBRANCH  10  13
ENDBRANCH   6   7
ENDBRANCH   5   6
ENDBRANCH   2   5
BRANCH   4  30
HETATM   30  C   UNL     1      -7.481   9.080  63.671  1.00  0.00    -0.103 A  
HETATM   31  C   UNL     1      -8.063   9.954  62.740  1.00  0.00    -0.136 A  
HETATM   32  C   UNL     1      -7.898   9.158  65.003  1.00  0.00    -0.112 A  
HETATM   33  C   UNL     1      -8.981   9.958  65.367  1.00  0.00    -0.220 A  
HETATM   34  C   UNL     1      -9.106  10.809  63.116  1.00  0.00    -0.276 A  
HETATM   35  C   UNL     1      -9.599  10.790  64.426  1.00  0.00    -0.330 A  
BRANCH  35  36
HETATM   36  C   UNL     1     -10.756  11.673  64.846  1.00  0.00    -0.296 C  
BRANCH  36  37
HETATM   37  N   UNL     1     -10.617  12.172  66.223  1.00  0.00    -0.243 NA 
HETATM   38  C   UNL     1     -11.866  12.738  66.743  1.00  0.00    -0.382 C  
HETATM   39  C   UNL     1      -9.499  13.113  66.393  1.00  0.00    -0.220 C  
HETATM   40  C   UNL     1      -9.763  14.496  65.793  1.00  0.00    -0.306 C  
HETATM   41  C   UNL     1     -12.217  14.104  66.150  1.00  0.00    -0.465 C  
HETATM   42  C   UNL     1     -11.068  15.105  66.319  1.00  0.00    -0.309 C  
BRANCH  42  43
HETATM   43  C   UNL     1     -10.920  15.567  67.769  1.00  0.00    -0.317 C  
HETATM   44  N   UNL     1      -9.660  15.503  68.282  1.00  0.00    -0.199 N  
HETATM   45  H2  UNL     1      -8.866  15.170  67.734  1.00  0.00     0.000 HD 
HETATM   46  O   UNL     1     -11.847  15.944  68.479  1.00  0.00    -0.366 OA 
HETATM   47  H1  UNL     1      -9.561  15.812  69.249  1.00  0.00     0.000 HD 
ENDBRANCH  42  43
ENDBRANCH  36  37
ENDBRANCH  35  36
ENDBRANCH   4  30
TORSDOF 11
ENDMDL
MODEL      156
REMARK 921   NORMALIZED FREE ENERGY PREDICTED BY IDOCK:   -3.84 KCAL/MOL
REMARK 922        TOTAL FREE ENERGY PREDICTED BY IDOCK:   -7.95 KCAL/MOL
REMARK 923 INTER-LIGAND FREE ENERGY PREDICTED BY IDOCK:  -10.20 KCAL/MOL
REMARK 924 INTRA-LIGAND FREE ENERGY PREDICTED BY IDOCK:    2.26 KCAL/MOL
REMARK 927      BINDING AFFINITY PREDICTED BY RF-SCORE:    0.00 PKD
ROOT
HETATM    1  C   UNL     1      -8.157   5.601  64.597  1.00  0.00    -0.128 C  
HETATM    2  N   UNL     1      -8.075   5.854  66.027  1.00  0.00    -0.111 N  
HETATM    3  O   UNL     1     -10.114   4.800  66.283  1.00  0.00    -0.213 OA 
HETATM    4  C   UNL     1      -9.140   5.347  66.805  1.00  0.00    -0.116 C  
ENDROOT
BRANCH   2   5
HETATM    5  C   UNL     1      -6.820   6.316  66.623  1.00  0.00    -0.062 C  
BRANCH   5   6
HETATM    6  C   UNL     1      -6.748   7.625  67.425  1.00  0.00    -0.068 C  
BRANCH   6   7
HETATM    7  N   UNL     1      -6.546   8.791  66.531  1.00  0.00    -0.063 NA 
HETATM    8  C   UNL     1      -5.712   9.830  67.152  1.00  0.00    -0.047 C  
HETATM    9  C   UNL     1      -7.791   9.394  66.029  1.00  0.00    -0.099 C  
HETATM   10  C   UNL     1      -7.786  11.123  67.847  1.00  0.00    -0.111 C  
HETATM   11  C   UNL     1      -8.613  10.046  67.138  1.00  0.00    -0.128 C  
HETATM   12  C   UNL     1      -6.421  10.582  68.281  1.00  0.00    -0.055 C  
BRANCH  10  13
HETATM   13  O   UNL     1      -7.560  12.225  66.945  1.00  0.00    -0.107 OA 
BRANCH  13  14
HETATM   14  C   UNL     1      -7.762  13.457  67.486  1.00  0.00    -0.176 C  
HETATM   15  H   UNL     1      -9.777  13.062  67.207  1.00  0.00     0.000 HD 
HETATM   16  O   UNL     1      -6.891  14.139  68.001  1.00  0.00    -0.111 OA 
HETATM   17  N   UNL     1      -9.078  13.792  67.339  1.00  0.00    -0.211 N  
BRANCH  17  18
HETATM   18  C   UNL     1      -9.472  15.146  67.370  1.00  0.00    -0.204 A  
HETATM   19  C   UNL     1     -10.418  15.620  68.307  1.00  0.00    -0.252 A  
HETATM   20  C   UNL     1      -9.173  17.354  66.411  1.00  0.00    -0.272 A  
HETATM   21  C   UNL     1     -10.700  17.003  68.249  1.00  0.00    -0.372 A  
HETATM   22  C   UNL     1     -10.081  17.859  67.329  1.00  0.00    -0.344 A  
HETATM   23  C   UNL     1      -8.875  15.997  66.424  1.00  0.00    -0.363 A  
BRANCH  19  24
HETATM   24  C   UNL     1     -11.097  14.775  69.337  1.00  0.00    -0.302 A  
HETATM   25  C   UNL     1     -11.491  13.447  69.092  1.00  0.00    -0.351 A  
HETATM   26  C   UNL     1     -12.145  12.676  70.063  1.00  0.00    -0.339 A  
HETATM   27  C   UNL     1     -12.455  13.227  71.300  1.00  0.00    -0.351 A  
HETATM   28  C   UNL     1     -12.091  14.539  71.574  1.00  0.00    -0.400 A  
HETATM   29  C   UNL     1     -11.409  15.293  70.613  1.00  0.00    -0.345 A  
ENDBRANCH  19  24
ENDBRANCH  17  18
ENDBRANCH  13  14
ENDBRANCH  10  13
ENDBRANCH   6   7
ENDBRANCH   5   6
ENDBRANCH   2   5
BRANCH   4  30
HETATM   30  C   UNL     1      -9.086   5.362  68.305  1.00  0.00    -0.116 A  
HETATM   31  C   UNL     1      -8.772   6.575  68.937  1.00  0.00    -0.127 A  
HETATM   32  C   UNL     1      -9.329   4.242  69.105  1.00  0.00    -0.229 A  
HETATM   33  C   UNL     1      -9.429   4.362  70.491  1.00  0.00    -0.241 A  
HETATM   34  C   UNL     1      -8.804   6.683  70.333  1.00  0.00    -0.152 A  
HETATM   35  C   UNL     1      -9.171   5.585  71.119  1.00  0.00    -0.173 A  
BRANCH  35  36
HETATM   36  C   UNL     1      -9.257   5.690  72.628  1.00  0.00    -0.137 C  
BRANCH  36  37
HETATM   37  N   UNL     1     -10.553   6.211  73.088  1.00  0.00    -0.234 NA 
HETATM   38  C   UNL     1     -11.661   5.804  72.218  1.00  0.00    -0.205 C  
HETATM   39  C   UNL     1     -10.555   7.667  73.301  1.00  0.00    -0.352 C  
HETATM   40  C   UNL     1     -10.556   8.478  72.002  1.00  0.00    -0.408 C  
HETATM   41  C   UNL     1     -11.697   6.544  70.878  1.00  0.00    -0.416 C  
HETATM   42  C   UNL     1     -11.704   8.065  71.074  1.00  0.00    -0.295 C  
BRANCH  42  43
HETATM   43  C   UNL     1     -13.050   8.568  71.597  1.00  0.00    -0.341 C  
HETATM   44  N   UNL     1     -14.150   7.966  71.064  1.00  0.00    -0.644 N  
HETATM   45  H2  UNL     1     -14.080   7.229  70.363  1.00  0.00     0.000 HD 
HETATM   46  O   UNL     1     -13.188   9.472  72.413  1.00  0.00    -0.431 OA 
HETATM   47  H1  UNL     1     -15.048   8.301  71.413  1.00  0.00     0.000 HD 
ENDBRANCH  42  43
ENDBRANCH  36  37
ENDBRANCH  35  36
ENDBRANCH   4  30
TORSDOF 11
ENDMDL
MODEL      157
REMARK 921   NORMALIZED FREE ENERGY PREDICTED BY IDOCK:   -3.83 KCAL/MOL
REMARK 922        TOTAL FREE ENERGY PREDICTED BY IDOCK:   -7.93 KCAL/MOL
REMARK 923 INTER-LIGAND FREE ENERGY PREDICTED BY IDOCK:   -7.08 KCAL/MOL
REMARK 924 INTRA-LIGAND FREE ENERGY PREDICTED BY IDOCK:   -0.85 KCAL/MOL
REMARK 927      BINDING AFFINITY PREDICTED BY RF-SCORE:    0.00 PKD
ROOT
HETATM    1  C   UNL     1      -7.246   8.060  73.223  1.00  0.00    -0.121 C  
HETATM    2  N   UNL     1      -6.829   7.489  71.951  1.00  0.00    -0.060 N  
HETATM    3  O   UNL     1      -8.620   6.035  72.073  1.00  0.00    -0.134 OA 
HETATM    4  C   UNL     1      -7.657   6.466  71.435  1.00  0.00    -0.094 C  
ENDROOT
BRANCH   2   5
HETATM    5  C   UNL     1      -5.815   8.162  71.139  1.00  0.00    -0.034 C  
BRANCH   5   6
HETATM    6  C   UNL     1      -6.206   9.118  70.000  1.00  0.00    -0.038 C  
BRANCH   6   7
HETATM    7  N   UNL     1      -7.149  10.159  70.476  1.00  0.00    -0.310 NA 
HETATM    8  C   UNL     1      -8.547   9.829  70.161  1.00  0.00    -0.181 C  
HETATM    9  C   UNL     1      -6.845  11.518  69.997  1.00  0.00     0.213 C  
HETATM   10  C   UNL     1      -8.461  11.301  68.091  1.00  0.00    -0.145 C  
HETATM   11  C   UNL     1      -7.026  11.661  68.489  1.00  0.00    -0.085 C  
HETATM   12  C   UNL     1      -8.876   9.945  68.671  1.00  0.00    -0.128 C  
BRANCH  10  13
HETATM   13  O   UNL     1      -9.365  12.299  68.604  1.00  0.00    -0.133 OA 
BRANCH  13  14
HETATM   14  C   UNL     1      -9.430  13.443  67.871  1.00  0.00    -0.216 C  
HETATM   15  H   UNL     1      -8.449  14.322  69.470  1.00  0.00     0.000 HD 
HETATM   16  O   UNL     1      -9.797  13.502  66.708  1.00  0.00    -0.251 OA 
HETATM   17  N   UNL     1      -9.034  14.491  68.653  1.00  0.00    -0.187 N  
BRANCH  17  18
HETATM   18  C   UNL     1      -9.433  15.804  68.333  1.00  0.00    -0.196 A  
HETATM   19  C   UNL     1     -10.483  16.448  69.025  1.00  0.00    -0.288 A  
HETATM   20  C   UNL     1      -9.029  17.750  66.941  1.00  0.00    -0.265 A  
HETATM   21  C   UNL     1     -10.760  17.775  68.625  1.00  0.00    -0.079 A  
HETATM   22  C   UNL     1     -10.040  18.421  67.611  1.00  0.00    -0.378 A  
HETATM   23  C   UNL     1      -8.732  16.440  67.293  1.00  0.00    -0.198 A  
BRANCH  19  24
HETATM   24  C   UNL     1     -11.277  15.836  70.135  1.00  0.00    -0.357 A  
HETATM   25  C   UNL     1     -11.993  14.634  69.984  1.00  0.00    -0.376 A  
HETATM   26  C   UNL     1     -12.747  14.085  71.029  1.00  0.00    -0.431 A  
HETATM   27  C   UNL     1     -12.835  14.743  72.249  1.00  0.00    -0.414 A  
HETATM   28  C   UNL     1     -12.150  15.939  72.431  1.00  0.00    -0.605 A  
HETATM   29  C   UNL     1     -11.372  16.465  71.394  1.00  0.00    -0.151 A  
ENDBRANCH  19  24
ENDBRANCH  17  18
ENDBRANCH  13  14
ENDBRANCH  10  13
ENDBRANCH   6   7
ENDBRANCH   5   6
ENDBRANCH   2   5
BRANCH   4  30
HETATM   30  C   UNL     1      -7.459   5.930  70.047  1.00  0.00    -0.079 A  
HETATM   31  C   UNL     1      -6.576   4.851  69.881  1.00  0.00    -0.036 A  
HETATM   32  C   UNL     1      -8.100   6.441  68.916  1.00  0.00    -0.111 A  
HETATM   33  C   UNL     1      -8.003   5.792  67.685  1.00  0.00    -0.102 A  
HETATM   34  C   UNL     1      -6.423   4.239  68.631  1.00  0.00    -0.037 A  
HETATM   35  C   UNL     1      -7.166   4.681  67.531  1.00  0.00    -0.069 A  
BRANCH  35  36
HETATM   36  C   UNL     1      -7.052   4.006  66.179  1.00  0.00    -0.067 C  
BRANCH  36  37
HETATM   37  N   UNL     1      -8.130   4.397  65.257  1.00  0.00    -0.101 NA 
HETATM   38  C   UNL     1      -9.440   3.894  65.682  1.00  0.00    -0.176 C  
HETATM   39  C   UNL     1      -7.856   4.044  63.856  1.00  0.00    -0.084 C  
HETATM   40  C   UNL     1      -7.988   2.547  63.562  1.00  0.00    -0.073 C  
HETATM   41  C   UNL     1      -9.625   2.391  65.460  1.00  0.00     0.201 C  
HETATM   42  C   UNL     1      -9.350   1.999  64.003  1.00  0.00    -0.123 C  
BRANCH  42  43
HETATM   43  C   UNL     1     -10.465   2.461  63.065  1.00  0.00    -0.158 C  
HETATM   44  N   UNL     1     -11.366   1.504  62.706  1.00  0.00    -0.239 N  
HETATM   45  H2  UNL     1     -11.300   0.543  63.040  1.00  0.00     0.000 HD 
HETATM   46  O   UNL     1     -10.569   3.595  62.610  1.00  0.00    -0.185 OA 
HETATM   47  H1  UNL     1     -12.111   1.813  62.080  1.00  0.00     0.000 HD 
ENDBRANCH  42  43
ENDBRANCH  36  37
ENDBRANCH  35  36
ENDBRANCH   4  30
TORSDOF 11
ENDMDL
MODEL      158
REMARK 921   NORMALIZED FREE ENERGY PREDICTED BY IDOCK:   -3.83 KCAL/MOL
REMARK 922        TOTAL FREE ENERGY PREDICTED BY IDOCK:   -7.93 KCAL/MOL
REMARK 923 INTER-LIGAND FREE ENERGY PREDICTED BY IDOCK:   -7.29 KCAL/MOL
REMARK 924 INTRA-LIGAND FREE ENERGY PREDICTED BY IDOCK:   -0.63 KCAL/MOL
REMARK 927      BINDING AFFINITY PREDICTED BY RF-SCORE:    0.00 PKD
ROOT
HETATM    1  C   UNL     1     -11.200   9.332  66.400  1.00  0.00     1.460 C  
HETATM    2  N   UNL     1     -10.728  10.706  66.310  1.00  0.00    -0.155 N  
HETATM    3  O   UNL     1     -12.260  11.288  67.937  1.00  0.00    -0.570 OA 
HETATM    4  C   UNL     1     -11.333  11.624  67.197  1.00  0.00    -0.306 C  
ENDROOT
BRANCH   2   5
HETATM    5  C   UNL     1      -9.498  11.015  65.578  1.00  0.00    -0.216 C  
BRANCH   5   6
HETATM    6  C   UNL     1      -8.432   9.940  65.313  1.00  0.00    -0.150 C  
BRANCH   6   7
HETATM    7  N   UNL     1      -7.397   9.938  66.375  1.00  0.00    -0.098 NA 
HETATM    8  C   UNL     1      -6.287   9.024  66.068  1.00  0.00    -0.064 C  
HETATM    9  C   UNL     1      -7.912   9.651  67.724  1.00  0.00    -0.105 C  
HETATM   10  C   UNL     1      -7.331   7.219  67.521  1.00  0.00    -0.092 C  
HETATM   11  C   UNL     1      -8.437   8.224  67.858  1.00  0.00    -0.132 C  
HETATM   12  C   UNL     1      -6.670   7.546  66.179  1.00  0.00    -0.053 C  
BRANCH  10  13
HETATM   13  O   UNL     1      -6.312   7.268  68.540  1.00  0.00    -0.034 OA 
BRANCH  13  14
HETATM   14  C   UNL     1      -6.559   6.497  69.633  1.00  0.00    -0.048 C  
HETATM   15  H   UNL     1      -7.796   8.046  70.236  1.00  0.00     0.000 HD 
HETATM   16  O   UNL     1      -6.192   5.340  69.763  1.00  0.00    -0.023 OA 
HETATM   17  N   UNL     1      -7.261   7.234  70.543  1.00  0.00    -0.065 N  
BRANCH  17  18
HETATM   18  C   UNL     1      -7.248   6.876  71.907  1.00  0.00    -0.079 A  
HETATM   19  C   UNL     1      -8.437   6.818  72.668  1.00  0.00    -0.127 A  
HETATM   20  C   UNL     1      -5.893   6.175  73.793  1.00  0.00    -0.057 A  
HETATM   21  C   UNL     1      -8.286   6.415  74.014  1.00  0.00    -0.121 A  
HETATM   22  C   UNL     1      -7.041   6.086  74.565  1.00  0.00    -0.091 A  
HETATM   23  C   UNL     1      -5.994   6.579  72.468  1.00  0.00    -0.039 A  
BRANCH  19  24
HETATM   24  C   UNL     1      -9.804   7.124  72.143  1.00  0.00    -0.171 A  
HETATM   25  C   UNL     1     -10.610   8.148  72.673  1.00  0.00    -0.414 A  
HETATM   26  C   UNL     1     -11.896   8.409  72.182  1.00  0.00    -0.441 A  
HETATM   27  C   UNL     1     -12.428   7.627  71.165  1.00  0.00    -0.273 A  
HETATM   28  C   UNL     1     -11.665   6.599  70.624  1.00  0.00    -0.452 A  
HETATM   29  C   UNL     1     -10.369   6.364  71.097  1.00  0.00    -0.244 A  
ENDBRANCH  19  24
ENDBRANCH  17  18
ENDBRANCH  13  14
ENDBRANCH  10  13
ENDBRANCH   6   7
ENDBRANCH   5   6
ENDBRANCH   2   5
BRANCH   4  30
HETATM   30  C   UNL     1     -10.807  13.022  67.350  1.00  0.00    -0.269 A  
HETATM   31  C   UNL     1     -10.762  13.834  66.206  1.00  0.00    -0.285 A  
HETATM   32  C   UNL     1     -10.360  13.558  68.561  1.00  0.00    -0.242 A  
HETATM   33  C   UNL     1     -10.043  14.912  68.669  1.00  0.00    -0.237 A  
HETATM   34  C   UNL     1     -10.379  15.178  66.298  1.00  0.00    -0.303 A  
HETATM   35  C   UNL     1     -10.053  15.737  67.539  1.00  0.00    -0.245 A  
BRANCH  35  36
HETATM   36  C   UNL     1      -9.678  17.199  67.671  1.00  0.00    -0.263 C  
BRANCH  36  37
HETATM   37  N   UNL     1      -9.204  17.779  66.405  1.00  0.00    -0.373 NA 
HETATM   38  C   UNL     1      -7.905  17.239  65.992  1.00  0.00    -0.175 C  
HETATM   39  C   UNL     1      -9.190  19.250  66.405  1.00  0.00    -0.352 C  
HETATM   40  C   UNL     1      -8.059  19.854  67.241  1.00  0.00    -0.341 C  
HETATM   41  C   UNL     1      -6.729  17.766  66.819  1.00  0.00    -0.225 C  
HETATM   42  C   UNL     1      -6.690  19.299  66.830  1.00  0.00    -0.203 C  
BRANCH  42  43
HETATM   43  C   UNL     1      -6.239  19.869  65.485  1.00  0.00    -0.221 C  
HETATM   44  N   UNL     1      -5.304  19.137  64.819  1.00  0.00    -0.179 N  
HETATM   45  H2  UNL     1      -4.929  18.265  65.193  1.00  0.00     0.000 HD 
HETATM   46  O   UNL     1      -6.634  20.928  65.009  1.00  0.00    -0.218 OA 
HETATM   47  H1  UNL     1      -5.003  19.517  63.921  1.00  0.00     0.000 HD 
ENDBRANCH  42  43
ENDBRANCH  36  37
ENDBRANCH  35  36
ENDBRANCH   4  30
TORSDOF 11
ENDMDL
MODEL      159
REMARK 921   NORMALIZED FREE ENERGY PREDICTED BY IDOCK:   -3.79 KCAL/MOL
REMARK 922        TOTAL FREE ENERGY PREDICTED BY IDOCK:   -7.86 KCAL/MOL
REMARK 923 INTER-LIGAND FREE ENERGY PREDICTED BY IDOCK:   -6.23 KCAL/MOL
REMARK 924 INTRA-LIGAND FREE ENERGY PREDICTED BY IDOCK:   -1.63 KCAL/MOL
REMARK 927      BINDING AFFINITY PREDICTED BY RF-SCORE:    0.00 PKD
ROOT
HETATM    1  C   UNL     1     -12.976   7.326  72.079  1.00  0.00    -0.156 C  
HETATM    2  N   UNL     1     -11.738   6.947  71.415  1.00  0.00    -0.297 N  
HETATM    3  O   UNL     1     -11.465   5.274  72.984  1.00  0.00    -0.313 OA 
HETATM    4  C   UNL     1     -11.064   5.831  71.961  1.00  0.00    -0.260 C  
ENDROOT
BRANCH   2   5
HETATM    5  C   UNL     1     -11.411   7.494  70.097  1.00  0.00    -0.151 C  
BRANCH   5   6
HETATM    6  C   UNL     1     -10.877   8.927  69.935  1.00  0.00    -0.211 C  
BRANCH   6   7
HETATM    7  N   UNL     1     -11.764   9.732  69.062  1.00  0.00     0.243 NA 
HETATM    8  C   UNL     1     -11.009  10.507  68.066  1.00  0.00    -0.290 C  
HETATM    9  C   UNL     1     -12.682  10.626  69.787  1.00  0.00     0.094 C  
HETATM   10  C   UNL     1     -11.117  12.571  69.545  1.00  0.00    -0.006 C  
HETATM   11  C   UNL     1     -11.949  11.741  70.527  1.00  0.00    -0.383 C  
HETATM   12  C   UNL     1     -10.231  11.677  68.671  1.00  0.00    -0.215 C  
BRANCH  10  13
HETATM   13  O   UNL     1     -11.997  13.309  68.674  1.00  0.00    -0.339 OA 
BRANCH  13  14
HETATM   14  C   UNL     1     -11.617  14.592  68.429  1.00  0.00    -0.326 C  
HETATM   15  H   UNL     1     -11.037  13.886  66.569  1.00  0.00     0.000 HD 
HETATM   16  O   UNL     1     -11.863  15.539  69.159  1.00  0.00    -0.347 OA 
HETATM   17  N   UNL     1     -10.915  14.628  67.258  1.00  0.00    -0.308 N  
BRANCH  17  18
HETATM   18  C   UNL     1     -10.023  15.689  66.998  1.00  0.00    -0.240 A  
HETATM   19  C   UNL     1      -8.626  15.532  67.140  1.00  0.00    -0.240 A  
HETATM   20  C   UNL     1      -9.789  17.991  66.271  1.00  0.00    -0.310 A  
HETATM   21  C   UNL     1      -7.846  16.665  66.818  1.00  0.00    -0.290 A  
HETATM   22  C   UNL     1      -8.412  17.869  66.379  1.00  0.00    -0.263 A  
HETATM   23  C   UNL     1     -10.595  16.906  66.589  1.00  0.00    -0.189 A  
BRANCH  19  24
HETATM   24  C   UNL     1      -7.947  14.273  67.575  1.00  0.00    -0.203 A  
HETATM   25  C   UNL     1      -7.305  14.147  68.820  1.00  0.00    -0.128 A  
HETATM   26  C   UNL     1      -6.656  12.965  69.204  1.00  0.00    -0.104 A  
HETATM   27  C   UNL     1      -6.602  11.883  68.333  1.00  0.00    -0.056 A  
HETATM   28  C   UNL     1      -7.215  11.976  67.090  1.00  0.00    -0.131 A  
HETATM   29  C   UNL     1      -7.890  13.147  66.726  1.00  0.00     0.349 A  
ENDBRANCH  19  24
ENDBRANCH  17  18
ENDBRANCH  13  14
ENDBRANCH  10  13
ENDBRANCH   6   7
ENDBRANCH   5   6
ENDBRANCH   2   5
BRANCH   4  30
HETATM   30  C   UNL     1      -9.888   5.213  71.261  1.00  0.00    -0.239 A  
HETATM   31  C   UNL     1     -10.057   3.940  70.694  1.00  0.00     0.052 A  
HETATM   32  C   UNL     1      -8.640   5.830  71.142  1.00  0.00    -0.128 A  
HETATM   33  C   UNL     1      -7.643   5.278  70.337  1.00  0.00    -0.075 A  
HETATM   34  C   UNL     1      -9.034   3.351  69.940  1.00  0.00    -0.172 A  
HETATM   35  C   UNL     1      -7.832   4.035  69.724  1.00  0.00    -0.052 A  
BRANCH  35  36
HETATM   36  C   UNL     1      -6.728   3.438  68.875  1.00  0.00    -0.044 C  
BRANCH  36  37
HETATM   37  N   UNL     1      -6.594   4.103  67.570  1.00  0.00    -0.045 NA 
HETATM   38  C   UNL     1      -7.874   4.219  66.866  1.00  0.00    -0.097 C  
HETATM   39  C   UNL     1      -5.568   3.497  66.708  1.00  0.00    -0.022 C  
HETATM   40  C   UNL     1      -5.986   2.150  66.111  1.00  0.00    -0.022 C  
HETATM   41  C   UNL     1      -8.377   2.896  66.280  1.00  0.00    -0.092 C  
HETATM   42  C   UNL     1      -7.326   2.246  65.373  1.00  0.00    -0.062 C  
BRANCH  42  43
HETATM   43  C   UNL     1      -7.178   2.990  64.045  1.00  0.00    -0.057 C  
HETATM   44  N   UNL     1      -8.330   3.496  63.523  1.00  0.00    -0.089 N  
HETATM   45  H2  UNL     1      -9.231   3.386  63.987  1.00  0.00     0.000 HD 
HETATM   46  O   UNL     1      -6.124   3.120  63.432  1.00  0.00    -0.013 OA 
HETATM   47  H1  UNL     1      -8.231   3.992  62.637  1.00  0.00     0.000 HD 
ENDBRANCH  42  43
ENDBRANCH  36  37
ENDBRANCH  35  36
ENDBRANCH   4  30
TORSDOF 11
ENDMDL
MODEL      160
REMARK 921   NORMALIZED FREE ENERGY PREDICTED BY IDOCK:   -3.73 KCAL/MOL
REMARK 922        TOTAL FREE ENERGY PREDICTED BY IDOCK:   -7.76 KCAL/MOL
REMARK 923 INTER-LIGAND FREE ENERGY PREDICTED BY IDOCK:   -7.26 KCAL/MOL
REMARK 924 INTRA-LIGAND FREE ENERGY PREDICTED BY IDOCK:   -0.50 KCAL/MOL
REMARK 927      BINDING AFFINITY PREDICTED BY RF-SCORE:    0.00 PKD
ROOT
HETATM    1  C   UNL     1      -5.125  13.314  71.356  1.00  0.00    -0.172 C  
HETATM    2  N   UNL     1      -6.297  13.506  70.514  1.00  0.00     0.016 N  
HETATM    3  O   UNL     1      -5.891  15.780  70.550  1.00  0.00    -0.125 OA 
HETATM    4  C   UNL     1      -6.565  14.838  70.127  1.00  0.00    -0.145 C  
ENDROOT
BRANCH   2   5
HETATM    5  C   UNL     1      -6.938  12.357  69.872  1.00  0.00     0.519 C  
BRANCH   5   6
HETATM    6  C   UNL     1      -6.513  10.917  70.199  1.00  0.00    -0.145 C  
BRANCH   6   7
HETATM    7  N   UNL     1      -6.163  10.169  68.967  1.00  0.00    -0.043 NA 
HETATM    8  C   UNL     1      -7.103  10.436  67.869  1.00  0.00    -0.083 C  
HETATM    9  C   UNL     1      -6.029   8.715  69.157  1.00  0.00    -0.042 C  
HETATM   10  C   UNL     1      -8.391   8.314  68.413  1.00  0.00    -0.132 C  
HETATM   11  C   UNL     1      -7.355   8.046  69.509  1.00  0.00    -0.086 C  
HETATM   12  C   UNL     1      -8.481   9.807  68.084  1.00  0.00    -0.114 C  
BRANCH  10  13
HETATM   13  O   UNL     1      -8.007   7.617  67.211  1.00  0.00    -0.114 OA 
BRANCH  13  14
HETATM   14  C   UNL     1      -7.882   6.269  67.345  1.00  0.00    -0.101 C  
HETATM   15  H   UNL     1      -9.876   6.312  67.906  1.00  0.00     0.000 HD 
HETATM   16  O   UNL     1      -6.908   5.624  66.991  1.00  0.00    -0.060 OA 
HETATM   17  N   UNL     1      -9.007   5.780  67.945  1.00  0.00    -0.112 N  
BRANCH  17  18
HETATM   18  C   UNL     1      -8.970   4.543  68.620  1.00  0.00    -0.112 A  
HETATM   19  C   UNL     1      -9.633   4.352  69.853  1.00  0.00    -0.275 A  
HETATM   20  C   UNL     1      -8.189   2.246  68.575  1.00  0.00    -0.073 A  
HETATM   21  C   UNL     1      -9.541   3.055  70.406  1.00  0.00    -0.170 A  
HETATM   22  C   UNL     1      -8.844   2.016  69.774  1.00  0.00    -0.131 A  
HETATM   23  C   UNL     1      -8.243   3.510  68.002  1.00  0.00    -0.090 A  
BRANCH  19  24
HETATM   24  C   UNL     1     -10.419   5.401  70.572  1.00  0.00    -0.335 A  
HETATM   25  C   UNL     1     -10.307   5.620  71.957  1.00  0.00    -0.261 A  
HETATM   26  C   UNL     1     -11.066   6.595  72.618  1.00  0.00    -0.291 A  
HETATM   27  C   UNL     1     -11.989   7.358  71.914  1.00  0.00    -0.337 A  
HETATM   28  C   UNL     1     -12.135   7.162  70.546  1.00  0.00    -0.217 A  
HETATM   29  C   UNL     1     -11.351   6.210  69.886  1.00  0.00    -0.454 A  
ENDBRANCH  19  24
ENDBRANCH  17  18
ENDBRANCH  13  14
ENDBRANCH  10  13
ENDBRANCH   6   7
ENDBRANCH   5   6
ENDBRANCH   2   5
BRANCH   4  30
HETATM   30  C   UNL     1      -7.618  15.155  69.105  1.00  0.00    -0.188 A  
HETATM   31  C   UNL     1      -7.359  14.812  67.769  1.00  0.00    -0.186 A  
HETATM   32  C   UNL     1      -8.837  15.768  69.406  1.00  0.00    -0.237 A  
HETATM   33  C   UNL     1      -9.838  15.881  68.442  1.00  0.00    -0.214 A  
HETATM   34  C   UNL     1      -8.338  14.986  66.783  1.00  0.00    -0.189 A  
HETATM   35  C   UNL     1      -9.600  15.487  67.120  1.00  0.00    -0.228 A  
BRANCH  35  36
HETATM   36  C   UNL     1     -10.691  15.642  66.080  1.00  0.00    -0.303 C  
BRANCH  36  37
HETATM   37  N   UNL     1     -11.636  14.515  66.078  1.00  0.00    -0.360 NA 
HETATM   38  C   UNL     1     -10.965  13.220  65.926  1.00  0.00    -0.274 C  
HETATM   39  C   UNL     1     -12.723  14.666  65.098  1.00  0.00    -0.069 C  
HETATM   40  C   UNL     1     -12.278  14.449  63.649  1.00  0.00     0.135 C  
HETATM   41  C   UNL     1     -10.451  12.955  64.508  1.00  0.00    -0.400 C  
HETATM   42  C   UNL     1     -11.568  13.102  63.468  1.00  0.00    -0.392 C  
BRANCH  42  43
HETATM   43  C   UNL     1     -12.559  11.939  63.524  1.00  0.00    -0.459 C  
HETATM   44  N   UNL     1     -12.245  10.860  62.754  1.00  0.00     0.272 N  
HETATM   45  H2  UNL     1     -11.404  10.830  62.178  1.00  0.00     0.000 HD 
HETATM   46  O   UNL     1     -13.600  11.939  64.174  1.00  0.00    -0.481 OA 
HETATM   47  H1  UNL     1     -12.906  10.084  62.792  1.00  0.00     0.000 HD 
ENDBRANCH  42  43
ENDBRANCH  36  37
ENDBRANCH  35  36
ENDBRANCH   4  30
TORSDOF 11
ENDMDL
MODEL      161
REMARK 921   NORMALIZED FREE ENERGY PREDICTED BY IDOCK:   -3.71 KCAL/MOL
REMARK 922        TOTAL FREE ENERGY PREDICTED BY IDOCK:   -7.73 KCAL/MOL
REMARK 923 INTER-LIGAND FREE ENERGY PREDICTED BY IDOCK:   -7.45 KCAL/MOL
REMARK 924 INTRA-LIGAND FREE ENERGY PREDICTED BY IDOCK:   -0.28 KCAL/MOL
REMARK 927      BINDING AFFINITY PREDICTED BY RF-SCORE:    0.00 PKD
ROOT
HETATM    1  C   UNL     1      -6.387  17.387  69.375  1.00  0.00    -0.246 C  
HETATM    2  N   UNL     1      -7.268  16.406  68.759  1.00  0.00    -0.178 N  
HETATM    3  O   UNL     1      -8.968  17.969  68.815  1.00  0.00    -0.289 OA 
HETATM    4  C   UNL     1      -8.581  16.848  68.478  1.00  0.00    -0.251 C  
ENDROOT
BRANCH   2   5
HETATM    5  C   UNL     1      -6.717  15.174  68.192  1.00  0.00    -0.132 C  
BRANCH   5   6
HETATM    6  C   UNL     1      -7.368  13.808  68.463  1.00  0.00    -0.117 C  
BRANCH   6   7
HETATM    7  N   UNL     1      -6.356  12.805  68.875  1.00  0.00    -0.080 NA 
HETATM    8  C   UNL     1      -5.555  12.325  67.740  1.00  0.00    -0.092 C  
HETATM    9  C   UNL     1      -6.905  11.654  69.611  1.00  0.00    -0.006 C  
HETATM   10  C   UNL     1      -7.038  10.273  67.521  1.00  0.00    -0.086 C  
HETATM   11  C   UNL     1      -7.809  10.783  68.743  1.00  0.00    -0.129 C  
HETATM   12  C   UNL     1      -6.337  11.419  66.786  1.00  0.00    -0.142 C  
BRANCH  10  13
HETATM   13  O   UNL     1      -6.028   9.337  67.948  1.00  0.00    -0.048 OA 
BRANCH  13  14
HETATM   14  C   UNL     1      -6.414   8.032  67.934  1.00  0.00    -0.053 C  
HETATM   15  H   UNL     1      -7.890   8.660  66.623  1.00  0.00     0.000 HD 
HETATM   16  O   UNL     1      -5.784   7.117  68.440  1.00  0.00    -0.020 OA 
HETATM   17  N   UNL     1      -7.609   7.933  67.280  1.00  0.00    -0.099 N  
BRANCH  17  18
HETATM   18  C   UNL     1      -8.454   6.829  67.512  1.00  0.00    -0.121 A  
HETATM   19  C   UNL     1      -8.499   5.732  66.622  1.00  0.00    -0.113 A  
HETATM   20  C   UNL     1     -10.076   5.810  69.001  1.00  0.00    -0.249 A  
HETATM   21  C   UNL     1      -9.366   4.679  66.989  1.00  0.00    -0.153 A  
HETATM   22  C   UNL     1     -10.131   4.708  68.162  1.00  0.00    -0.072 A  
HETATM   23  C   UNL     1      -9.246   6.875  68.672  1.00  0.00    -0.130 A  
BRANCH  19  24
HETATM   24  C   UNL     1      -7.692   5.615  65.368  1.00  0.00    -0.087 A  
HETATM   25  C   UNL     1      -6.345   5.210  65.366  1.00  0.00    -0.035 A  
HETATM   26  C   UNL     1      -5.597   5.125  64.184  1.00  0.00    -0.017 A  
HETATM   27  C   UNL     1      -6.170   5.478  62.968  1.00  0.00    -0.021 A  
HETATM   28  C   UNL     1      -7.495   5.894  62.933  1.00  0.00    -0.062 A  
HETATM   29  C   UNL     1      -8.246   5.945  64.113  1.00  0.00    -0.075 A  
ENDBRANCH  19  24
ENDBRANCH  17  18
ENDBRANCH  13  14
ENDBRANCH  10  13
ENDBRANCH   6   7
ENDBRANCH   5   6
ENDBRANCH   2   5
BRANCH   4  30
HETATM   30  C   UNL     1      -9.528  16.011  67.669  1.00  0.00    -0.216 A  
HETATM   31  C   UNL     1     -10.492  15.260  68.359  1.00  0.00    -0.236 A  
HETATM   32  C   UNL     1      -9.505  15.938  66.274  1.00  0.00    -0.350 A  
HETATM   33  C   UNL     1     -10.517  15.276  65.576  1.00  0.00    -0.396 A  
HETATM   34  C   UNL     1     -11.469  14.538  67.663  1.00  0.00    -0.374 A  
HETATM   35  C   UNL     1     -11.512  14.573  66.264  1.00  0.00    -0.358 A  
BRANCH  35  36
HETATM   36  C   UNL     1     -12.586  13.837  65.489  1.00  0.00    -0.512 C  
BRANCH  36  37
HETATM   37  N   UNL     1     -12.309  12.398  65.362  1.00  0.00    -0.614 NA 
HETATM   38  C   UNL     1     -11.237  11.953  66.258  1.00  0.00    -0.337 C  
HETATM   39  C   UNL     1     -12.052  11.973  63.978  1.00  0.00    -0.406 C  
HETATM   40  C   UNL     1     -10.682  12.405  63.446  1.00  0.00    -0.398 C  
HETATM   41  C   UNL     1      -9.839  12.389  65.812  1.00  0.00    -0.253 C  
HETATM   42  C   UNL     1      -9.546  11.953  64.371  1.00  0.00    -0.041 C  
BRANCH  42  43
HETATM   43  C   UNL     1      -9.309  10.446  64.267  1.00  0.00    -0.277 C  
HETATM   44  N   UNL     1      -8.005  10.059  64.192  1.00  0.00    -0.148 N  
HETATM   45  H2  UNL     1      -7.237  10.730  64.205  1.00  0.00     0.000 HD 
HETATM   46  O   UNL     1     -10.198   9.602  64.214  1.00  0.00     0.567 OA 
HETATM   47  H1  UNL     1      -7.847   9.053  64.123  1.00  0.00     0.000 HD 
ENDBRANCH  42  43
ENDBRANCH  36  37
ENDBRANCH  35  36
ENDBRANCH   4  30
TORSDOF 11
ENDMDL
MODEL      162
REMARK 921   NORMALIZED FREE ENERGY PREDICTED BY IDOCK:   -3.70 KCAL/MOL
REMARK 922        TOTAL FREE ENERGY PREDICTED BY IDOCK:   -7.72 KCAL/MOL
REMARK 923 INTER-LIGAND FREE ENERGY PREDICTED BY IDOCK:   -8.91 KCAL/MOL
REMARK 924 INTRA-LIGAND FREE ENERGY PREDICTED BY IDOCK:    1.19 KCAL/MOL
REMARK 927      BINDING AFFINITY PREDICTED BY RF-SCORE:    0.00 PKD
ROOT
HETATM    1  C   UNL     1      -6.239   6.562  66.911  1.00  0.00    -0.040 C  
HETATM    2  N   UNL     1      -6.903   7.844  66.725  1.00  0.00    -0.070 N  
HETATM    3  O   UNL     1      -8.712   6.721  65.828  1.00  0.00    -0.153 OA 
HETATM    4  C   UNL     1      -8.210   7.788  66.189  1.00  0.00    -0.123 C  
ENDROOT
BRANCH   2   5
HETATM    5  C   UNL     1      -6.364   9.051  67.352  1.00  0.00    -0.060 C  
BRANCH   5   6
HETATM    6  C   UNL     1      -6.101   9.118  68.865  1.00  0.00    -0.044 C  
BRANCH   6   7
HETATM    7  N   UNL     1      -6.714   7.964  69.566  1.00  0.00    -0.042 NA 
HETATM    8  C   UNL     1      -7.849   8.364  70.410  1.00  0.00    -0.090 C  
HETATM    9  C   UNL     1      -5.767   7.165  70.362  1.00  0.00    -0.024 C  
HETATM   10  C   UNL     1      -6.349   8.409  72.461  1.00  0.00    -0.082 C  
HETATM   11  C   UNL     1      -5.208   7.937  71.554  1.00  0.00    -0.034 C  
HETATM   12  C   UNL     1      -7.431   9.141  71.661  1.00  0.00     0.109 C  
BRANCH  10  13
HETATM   13  O   UNL     1      -6.962   7.269  73.095  1.00  0.00    -0.068 OA 
BRANCH  13  14
HETATM   14  C   UNL     1      -8.304   7.374  73.287  1.00  0.00    -0.119 C  
HETATM   15  H   UNL     1      -8.454   5.872  71.868  1.00  0.00     0.000 HD 
HETATM   16  O   UNL     1      -8.829   8.039  74.166  1.00  0.00    -0.240 OA 
HETATM   17  N   UNL     1      -8.946   6.633  72.336  1.00  0.00    -0.136 N  
BRANCH  17  18
HETATM   18  C   UNL     1     -10.285   6.917  72.000  1.00  0.00    -0.187 A  
HETATM   19  C   UNL     1     -10.947   6.233  70.956  1.00  0.00    -0.340 A  
HETATM   20  C   UNL     1     -12.260   8.226  72.524  1.00  0.00    -0.367 A  
HETATM   21  C   UNL     1     -12.297   6.593  70.744  1.00  0.00    -0.218 A  
HETATM   22  C   UNL     1     -12.948   7.561  71.521  1.00  0.00    -0.400 A  
HETATM   23  C   UNL     1     -10.927   7.912  72.758  1.00  0.00    -0.456 A  
BRANCH  19  24
HETATM   24  C   UNL     1     -10.330   5.169  70.105  1.00  0.00    -0.340 A  
HETATM   25  C   UNL     1     -10.174   5.304  68.713  1.00  0.00    -0.231 A  
HETATM   26  C   UNL     1      -9.611   4.288  67.929  1.00  0.00    -0.207 A  
HETATM   27  C   UNL     1      -9.218   3.090  68.512  1.00  0.00    -0.233 A  
HETATM   28  C   UNL     1      -9.367   2.917  69.882  1.00  0.00    -0.213 A  
HETATM   29  C   UNL     1      -9.899   3.948  70.666  1.00  0.00    -0.193 A  
ENDBRANCH  19  24
ENDBRANCH  17  18
ENDBRANCH  13  14
ENDBRANCH  10  13
ENDBRANCH   6   7
ENDBRANCH   5   6
ENDBRANCH   2   5
BRANCH   4  30
HETATM   30  C   UNL     1      -9.081   9.009  66.130  1.00  0.00    -0.246 A  
HETATM   31  C   UNL     1      -9.318   9.585  64.872  1.00  0.00    -0.264 A  
HETATM   32  C   UNL     1      -9.667   9.603  67.251  1.00  0.00    -0.213 A  
HETATM   33  C   UNL     1     -10.598  10.631  67.110  1.00  0.00    -0.312 A  
HETATM   34  C   UNL     1     -10.201  10.663  64.734  1.00  0.00    -0.401 A  
HETATM   35  C   UNL     1     -10.878  11.170  65.850  1.00  0.00    -0.223 A  
BRANCH  35  36
HETATM   36  C   UNL     1     -11.872  12.305  65.719  1.00  0.00    -0.352 C  
BRANCH  36  37
HETATM   37  N   UNL     1     -11.274  13.519  65.141  1.00  0.00    -0.302 NA 
HETATM   38  C   UNL     1      -9.839  13.624  65.422  1.00  0.00    -0.126 C  
HETATM   39  C   UNL     1     -11.979  14.754  65.517  1.00  0.00    -0.189 C  
HETATM   40  C   UNL     1     -11.737  15.183  66.967  1.00  0.00    -0.119 C  
HETATM   41  C   UNL     1      -9.520  14.006  66.870  1.00  0.00    -0.271 C  
HETATM   42  C   UNL     1     -10.241  15.294  67.284  1.00  0.00    -0.248 C  
BRANCH  42  43
HETATM   43  C   UNL     1      -9.624  16.531  66.629  1.00  0.00    -0.258 C  
HETATM   44  N   UNL     1     -10.114  17.729  67.055  1.00  0.00    -0.323 N  
HETATM   45  H2  UNL     1     -10.843  17.796  67.765  1.00  0.00     0.000 HD 
HETATM   46  O   UNL     1      -8.770  16.502  65.749  1.00  0.00    -0.460 OA 
HETATM   47  H1  UNL     1      -9.702  18.554  66.619  1.00  0.00     0.000 HD 
ENDBRANCH  42  43
ENDBRANCH  36  37
ENDBRANCH  35  36
ENDBRANCH   4  30
TORSDOF 11
ENDMDL
MODEL      163
REMARK 921   NORMALIZED FREE ENERGY PREDICTED BY IDOCK:   -3.64 KCAL/MOL
REMARK 922        TOTAL FREE ENERGY PREDICTED BY IDOCK:   -7.62 KCAL/MOL
REMARK 923 INTER-LIGAND FREE ENERGY PREDICTED BY IDOCK:   -6.67 KCAL/MOL
REMARK 924 INTRA-LIGAND FREE ENERGY PREDICTED BY IDOCK:   -0.95 KCAL/MOL
REMARK 927      BINDING AFFINITY PREDICTED BY RF-SCORE:    0.00 PKD
ROOT
HETATM    1  C   UNL     1      -5.228  11.499  70.879  1.00  0.00    -0.131 C  
HETATM    2  N   UNL     1      -6.399  12.023  70.192  1.00  0.00    -0.075 N  
HETATM    3  O   UNL     1      -5.706  14.157  70.742  1.00  0.00    -0.155 OA 
HETATM    4  C   UNL     1      -6.511  13.432  70.154  1.00  0.00     0.098 C  
ENDROOT
BRANCH   2   5
HETATM    5  C   UNL     1      -7.206  11.148  69.340  1.00  0.00    -0.091 C  
BRANCH   5   6
HETATM    6  C   UNL     1      -6.585  10.386  68.158  1.00  0.00    -0.060 C  
BRANCH   6   7
HETATM    7  N   UNL     1      -6.304   8.976  68.519  1.00  0.00    -0.053 NA 
HETATM    8  C   UNL     1      -6.016   8.147  67.340  1.00  0.00    -0.050 C  
HETATM    9  C   UNL     1      -7.356   8.334  69.325  1.00  0.00    -0.076 C  
HETATM   10  C   UNL     1      -8.420   7.325  67.290  1.00  0.00    -0.118 C  
HETATM   11  C   UNL     1      -8.660   8.160  68.552  1.00  0.00    -0.130 C  
HETATM   12  C   UNL     1      -7.247   7.876  66.473  1.00  0.00    -0.083 C  
BRANCH  10  13
HETATM   13  O   UNL     1      -8.102   5.970  67.665  1.00  0.00    -0.105 OA 
BRANCH  13  14
HETATM   14  C   UNL     1      -9.015   5.372  68.477  1.00  0.00    -0.107 C  
HETATM   15  H   UNL     1      -7.594   5.609  69.966  1.00  0.00     0.000 HD 
HETATM   16  O   UNL     1     -10.167   5.124  68.160  1.00  0.00    -0.163 OA 
HETATM   17  N   UNL     1      -8.422   5.091  69.675  1.00  0.00    -0.087 N  
BRANCH  17  18
HETATM   18  C   UNL     1      -8.953   4.087  70.510  1.00  0.00    -0.097 A  
HETATM   19  C   UNL     1      -9.241   4.332  71.871  1.00  0.00    -0.173 A  
HETATM   20  C   UNL     1      -9.744   1.798  70.656  1.00  0.00    -0.085 A  
HETATM   21  C   UNL     1      -9.798   3.248  72.586  1.00  0.00    -0.207 A  
HETATM   22  C   UNL     1     -10.058   2.008  71.990  1.00  0.00    -0.226 A  
HETATM   23  C   UNL     1      -9.183   2.832  69.918  1.00  0.00    -0.209 A  
BRANCH  19  24
HETATM   24  C   UNL     1      -9.019   5.635  72.570  1.00  0.00    -0.133 A  
HETATM   25  C   UNL     1      -9.736   6.802  72.248  1.00  0.00    -0.156 A  
HETATM   26  C   UNL     1      -9.501   8.020  72.900  1.00  0.00    -0.346 A  
HETATM   27  C   UNL     1      -8.514   8.114  73.873  1.00  0.00    -0.306 A  
HETATM   28  C   UNL     1      -7.777   6.985  74.208  1.00  0.00    -0.127 A  
HETATM   29  C   UNL     1      -8.039   5.763  73.577  1.00  0.00    -0.112 A  
ENDBRANCH  19  24
ENDBRANCH  17  18
ENDBRANCH  13  14
ENDBRANCH  10  13
ENDBRANCH   6   7
ENDBRANCH   5   6
ENDBRANCH   2   5
BRANCH   4  30
HETATM   30  C   UNL     1      -7.555  14.107  69.313  1.00  0.00     0.058 A  
HETATM   31  C   UNL     1      -7.254  14.352  67.965  1.00  0.00    -0.146 A  
HETATM   32  C   UNL     1      -8.806  14.503  69.795  1.00  0.00     0.599 A  
HETATM   33  C   UNL     1      -9.791  14.971  68.925  1.00  0.00    -0.233 A  
HETATM   34  C   UNL     1      -8.219  14.886  67.102  1.00  0.00    -0.244 A  
HETATM   35  C   UNL     1      -9.509  15.163  67.568  1.00  0.00    -0.206 A  
BRANCH  35  36
HETATM   36  C   UNL     1     -10.583  15.698  66.643  1.00  0.00    -0.307 C  
BRANCH  36  37
HETATM   37  N   UNL     1     -11.651  14.718  66.389  1.00  0.00    -0.336 NA 
HETATM   38  C   UNL     1     -11.157  13.338  66.387  1.00  0.00    -0.295 C  
HETATM   39  C   UNL     1     -12.429  15.004  65.173  1.00  0.00     0.118 C  
HETATM   40  C   UNL     1     -11.676  14.697  63.876  1.00  0.00     0.129 C  
HETATM   41  C   UNL     1     -10.353  12.974  65.136  1.00  0.00    -0.321 C  
HETATM   42  C   UNL     1     -11.145  13.259  63.854  1.00  0.00    -0.272 C  
BRANCH  42  43
HETATM   43  C   UNL     1     -12.276  12.251  63.645  1.00  0.00    -0.567 C  
HETATM   44  N   UNL     1     -12.100  11.374  62.618  1.00  0.00    -0.317 N  
HETATM   45  H2  UNL     1     -11.269  11.388  62.027  1.00  0.00     0.000 HD 
HETATM   46  O   UNL     1     -13.309  12.215  64.305  1.00  0.00    -0.761 OA 
HETATM   47  H1  UNL     1     -12.855  10.702  62.478  1.00  0.00     0.000 HD 
ENDBRANCH  42  43
ENDBRANCH  36  37
ENDBRANCH  35  36
ENDBRANCH   4  30
TORSDOF 11
ENDMDL
MODEL      164
REMARK 921   NORMALIZED FREE ENERGY PREDICTED BY IDOCK:   -3.63 KCAL/MOL
REMARK 922        TOTAL FREE ENERGY PREDICTED BY IDOCK:   -7.60 KCAL/MOL
REMARK 923 INTER-LIGAND FREE ENERGY PREDICTED BY IDOCK:   -7.18 KCAL/MOL
REMARK 924 INTRA-LIGAND FREE ENERGY PREDICTED BY IDOCK:   -0.42 KCAL/MOL
REMARK 927      BINDING AFFINITY PREDICTED BY RF-SCORE:    0.00 PKD
ROOT
HETATM    1  C   UNL     1      -6.659  16.386  69.756  1.00  0.00    -0.108 C  
HETATM    2  N   UNL     1      -7.485  15.562  68.888  1.00  0.00    -0.145 N  
HETATM    3  O   UNL     1      -9.346  16.677  69.682  1.00  0.00     0.033 OA 
HETATM    4  C   UNL     1      -8.871  15.842  68.909  1.00  0.00    -0.225 C  
ENDROOT
BRANCH   2   5
HETATM    5  C   UNL     1      -6.867  14.738  67.848  1.00  0.00    -0.160 C  
BRANCH   5   6
HETATM    6  C   UNL     1      -7.276  13.270  67.642  1.00  0.00    -0.162 C  
BRANCH   6   7
HETATM    7  N   UNL     1      -6.116  12.362  67.813  1.00  0.00    -0.095 NA 
HETATM    8  C   UNL     1      -5.797  11.629  66.580  1.00  0.00    -0.108 C  
HETATM    9  C   UNL     1      -6.249  11.411  68.930  1.00  0.00    -0.053 C  
HETATM   10  C   UNL     1      -7.098   9.609  67.407  1.00  0.00    -0.085 C  
HETATM   11  C   UNL     1      -7.358  10.389  68.699  1.00  0.00    -0.085 C  
HETATM   12  C   UNL     1      -6.826  10.552  66.231  1.00  0.00    -0.127 C  
BRANCH  10  13
HETATM   13  O   UNL     1      -5.939   8.769  67.579  1.00  0.00    -0.046 OA 
BRANCH  13  14
HETATM   14  C   UNL     1      -6.179   7.434  67.474  1.00  0.00    -0.048 C  
HETATM   15  H   UNL     1      -8.008   7.997  66.680  1.00  0.00     0.000 HD 
HETATM   16  O   UNL     1      -5.347   6.563  67.669  1.00  0.00    -0.004 OA 
HETATM   17  N   UNL     1      -7.488   7.247  67.133  1.00  0.00    -0.103 N  
BRANCH  17  18
HETATM   18  C   UNL     1      -8.123   6.018  67.407  1.00  0.00    -0.106 A  
HETATM   19  C   UNL     1      -9.094   5.898  68.426  1.00  0.00    -0.115 A  
HETATM   20  C   UNL     1      -8.346   3.683  66.787  1.00  0.00    -0.104 A  
HETATM   21  C   UNL     1      -9.674   4.618  68.575  1.00  0.00    -0.208 A  
HETATM   22  C   UNL     1      -9.318   3.533  67.763  1.00  0.00    -0.246 A  
HETATM   23  C   UNL     1      -7.741   4.922  66.614  1.00  0.00    -0.092 A  
BRANCH  19  24
HETATM   24  C   UNL     1      -9.546   7.015  69.312  1.00  0.00    -0.154 A  
HETATM   25  C   UNL     1     -10.326   8.089  68.843  1.00  0.00    -0.222 A  
HETATM   26  C   UNL     1     -10.724   9.137  69.683  1.00  0.00    -0.236 A  
HETATM   27  C   UNL     1     -10.323   9.160  71.013  1.00  0.00    -0.363 A  
HETATM   28  C   UNL     1      -9.543   8.122  71.508  1.00  0.00    -0.226 A  
HETATM   29  C   UNL     1      -9.176   7.060  70.673  1.00  0.00    -0.158 A  
ENDBRANCH  19  24
ENDBRANCH  17  18
ENDBRANCH  13  14
ENDBRANCH  10  13
ENDBRANCH   6   7
ENDBRANCH   5   6
ENDBRANCH   2   5
BRANCH   4  30
HETATM   30  C   UNL     1      -9.808  15.208  67.924  1.00  0.00    -0.216 A  
HETATM   31  C   UNL     1     -10.317  13.935  68.228  1.00  0.00    -0.249 A  
HETATM   32  C   UNL     1     -10.203  15.810  66.726  1.00  0.00    -0.284 A  
HETATM   33  C   UNL     1     -11.205  15.243  65.938  1.00  0.00    -0.237 A  
HETATM   34  C   UNL     1     -11.274  13.332  67.403  1.00  0.00    -0.316 A  
HETATM   35  C   UNL     1     -11.754  14.000  66.270  1.00  0.00    -0.401 A  
BRANCH  35  36
HETATM   36  C   UNL     1     -12.821  13.387  65.387  1.00  0.00    -0.326 C  
BRANCH  36  37
HETATM   37  N   UNL     1     -12.310  13.006  64.061  1.00  0.00    -0.595 NA 
HETATM   38  C   UNL     1     -12.331  11.556  63.846  1.00  0.00     0.057 C  
HETATM   39  C   UNL     1     -10.983  13.567  63.764  1.00  0.00     0.170 C  
HETATM   40  C   UNL     1      -9.844  12.886  64.528  1.00  0.00    -0.032 C  
HETATM   41  C   UNL     1     -11.244  10.804  64.619  1.00  0.00     0.516 C  
HETATM   42  C   UNL     1      -9.849  11.367  64.322  1.00  0.00    -0.301 C  
BRANCH  42  43
HETATM   43  C   UNL     1      -9.368  10.994  62.920  1.00  0.00    -0.361 C  
HETATM   44  N   UNL     1     -10.022   9.953  62.331  1.00  0.00    -0.587 N  
HETATM   45  H2  UNL     1     -10.782   9.456  62.796  1.00  0.00     0.000 HD 
HETATM   46  O   UNL     1      -8.439  11.538  62.333  1.00  0.00    -0.274 OA 
HETATM   47  H1  UNL     1      -9.701   9.704  61.395  1.00  0.00     0.000 HD 
ENDBRANCH  42  43
ENDBRANCH  36  37
ENDBRANCH  35  36
ENDBRANCH   4  30
TORSDOF 11
ENDMDL
MODEL      165
REMARK 921   NORMALIZED FREE ENERGY PREDICTED BY IDOCK:   -3.61 KCAL/MOL
REMARK 922        TOTAL FREE ENERGY PREDICTED BY IDOCK:   -7.56 KCAL/MOL
REMARK 923 INTER-LIGAND FREE ENERGY PREDICTED BY IDOCK:   -7.64 KCAL/MOL
REMARK 924 INTRA-LIGAND FREE ENERGY PREDICTED BY IDOCK:    0.08 KCAL/MOL
REMARK 927      BINDING AFFINITY PREDICTED BY RF-SCORE:    0.00 PKD
ROOT
HETATM    1  C   UNL     1      -5.176   7.663  70.659  1.00  0.00    -0.023 C  
HETATM    2  N   UNL     1      -6.053   8.208  69.634  1.00  0.00    -0.029 N  
HETATM    3  O   UNL     1      -7.137   9.421  71.274  1.00  0.00    -0.279 OA 
HETATM    4  C   UNL     1      -7.009   9.150  70.079  1.00  0.00    -0.054 C  
ENDROOT
BRANCH   2   5
HETATM    5  C   UNL     1      -5.735   8.022  68.217  1.00  0.00    -0.033 C  
BRANCH   5   6
HETATM    6  C   UNL     1      -6.332   6.858  67.409  1.00  0.00    -0.045 C  
BRANCH   6   7
HETATM    7  N   UNL     1      -7.739   6.601  67.800  1.00  0.00    -0.106 NA 
HETATM    8  C   UNL     1      -7.842   5.955  69.117  1.00  0.00    -0.095 C  
HETATM    9  C   UNL     1      -8.513   5.830  66.813  1.00  0.00    -0.112 C  
HETATM   10  C   UNL     1      -8.063   3.675  68.016  1.00  0.00    -0.083 C  
HETATM   11  C   UNL     1      -8.009   4.397  66.666  1.00  0.00    -0.099 C  
HETATM   12  C   UNL     1      -7.380   4.496  69.114  1.00  0.00    -0.052 C  
BRANCH  10  13
HETATM   13  O   UNL     1      -9.439   3.479  68.400  1.00  0.00    -0.173 OA 
BRANCH  13  14
HETATM   14  C   UNL     1      -9.615   2.821  69.578  1.00  0.00     0.016 C  
HETATM   15  H   UNL     1     -10.734   4.473  70.137  1.00  0.00     0.000 HD 
HETATM   16  O   UNL     1      -9.281   1.665  69.783  1.00  0.00    -0.086 OA 
HETATM   17  N   UNL     1     -10.204   3.669  70.472  1.00  0.00     0.323 N  
BRANCH  17  18
HETATM   18  C   UNL     1     -10.083   3.434  71.857  1.00  0.00    -0.086 A  
HETATM   19  C   UNL     1     -10.274   4.467  72.802  1.00  0.00    -0.233 A  
HETATM   20  C   UNL     1      -9.667   1.792  73.594  1.00  0.00    -0.101 A  
HETATM   21  C   UNL     1     -10.152   4.089  74.158  1.00  0.00    -0.213 A  
HETATM   22  C   UNL     1      -9.868   2.775  74.550  1.00  0.00    -0.150 A  
HETATM   23  C   UNL     1      -9.764   2.122  72.248  1.00  0.00    -0.191 A  
BRANCH  19  24
HETATM   24  C   UNL     1     -10.608   5.885  72.463  1.00  0.00    -0.256 A  
HETATM   25  C   UNL     1     -11.732   6.237  71.694  1.00  0.00    -0.342 A  
HETATM   26  C   UNL     1     -12.020   7.570  71.368  1.00  0.00    -0.336 A  
HETATM   27  C   UNL     1     -11.168   8.588  71.776  1.00  0.00    -0.379 A  
HETATM   28  C   UNL     1     -10.042   8.277  72.528  1.00  0.00    -0.376 A  
HETATM   29  C   UNL     1      -9.778   6.948  72.878  1.00  0.00    -0.183 A  
ENDBRANCH  19  24
ENDBRANCH  17  18
ENDBRANCH  13  14
ENDBRANCH  10  13
ENDBRANCH   6   7
ENDBRANCH   5   6
ENDBRANCH   2   5
BRANCH   4  30
HETATM   30  C   UNL     1      -7.840   9.934  69.106  1.00  0.00    -0.105 A  
HETATM   31  C   UNL     1      -7.278  10.230  67.854  1.00  0.00    -0.085 A  
HETATM   32  C   UNL     1      -9.136  10.384  69.373  1.00  0.00    -0.170 A  
HETATM   33  C   UNL     1      -9.914  10.959  68.369  1.00  0.00    -0.188 A  
HETATM   34  C   UNL     1      -8.035  10.869  66.864  1.00  0.00    -0.138 A  
HETATM   35  C   UNL     1      -9.373  11.204  67.102  1.00  0.00    -0.176 A  
BRANCH  35  36
HETATM   36  C   UNL     1     -10.225  11.855  66.032  1.00  0.00    -0.229 C  
BRANCH  36  37
HETATM   37  N   UNL     1      -9.678  13.142  65.576  1.00  0.00    -0.116 NA 
HETATM   38  C   UNL     1      -9.281  14.009  66.690  1.00  0.00    -0.244 C  
HETATM   39  C   UNL     1     -10.561  13.854  64.640  1.00  0.00    -0.412 C  
HETATM   40  C   UNL     1     -11.789  14.480  65.309  1.00  0.00    -0.358 C  
HETATM   41  C   UNL     1     -10.463  14.633  67.436  1.00  0.00    -0.255 C  
HETATM   42  C   UNL     1     -11.397  15.386  66.481  1.00  0.00    -0.098 C  
BRANCH  42  43
HETATM   43  C   UNL     1     -10.778  16.695  65.990  1.00  0.00    -0.151 C  
HETATM   44  N   UNL     1     -10.199  17.469  66.949  1.00  0.00    -0.319 N  
HETATM   45  H2  UNL     1     -10.179  17.194  67.931  1.00  0.00     0.000 HD 
HETATM   46  O   UNL     1     -10.805  17.087  64.828  1.00  0.00    -0.820 OA 
HETATM   47  H1  UNL     1      -9.785  18.343  66.621  1.00  0.00     0.000 HD 
ENDBRANCH  42  43
ENDBRANCH  36  37
ENDBRANCH  35  36
ENDBRANCH   4  30
TORSDOF 11
ENDMDL
MODEL      166
REMARK 921   NORMALIZED FREE ENERGY PREDICTED BY IDOCK:   -3.60 KCAL/MOL
REMARK 922        TOTAL FREE ENERGY PREDICTED BY IDOCK:   -7.55 KCAL/MOL
REMARK 923 INTER-LIGAND FREE ENERGY PREDICTED BY IDOCK:   -7.30 KCAL/MOL
REMARK 924 INTRA-LIGAND FREE ENERGY PREDICTED BY IDOCK:   -0.25 KCAL/MOL
REMARK 927      BINDING AFFINITY PREDICTED BY RF-SCORE:    0.00 PKD
ROOT
HETATM    1  C   UNL     1     -10.109   6.542  74.151  1.00  0.00    -0.351 C  
HETATM    2  N   UNL     1     -10.140   7.622  73.176  1.00  0.00    -0.296 N  
HETATM    3  O   UNL     1     -12.135   6.776  72.375  1.00  0.00    -0.206 OA 
HETATM    4  C   UNL     1     -11.274   7.658  72.333  1.00  0.00    -0.320 C  
ENDROOT
BRANCH   2   5
HETATM    5  C   UNL     1      -9.217   8.751  73.297  1.00  0.00     0.584 C  
BRANCH   5   6
HETATM    6  C   UNL     1      -7.700   8.535  73.421  1.00  0.00     0.010 C  
BRANCH   6   7
HETATM    7  N   UNL     1      -7.156   7.857  72.220  1.00  0.00    -0.075 NA 
HETATM    8  C   UNL     1      -5.687   7.901  72.173  1.00  0.00    -0.036 C  
HETATM    9  C   UNL     1      -7.703   8.349  70.944  1.00  0.00    -0.088 C  
HETATM   10  C   UNL     1      -5.764   9.908  70.617  1.00  0.00    -0.071 C  
HETATM   11  C   UNL     1      -7.292   9.789  70.649  1.00  0.00    -0.070 C  
HETATM   12  C   UNL     1      -5.131   9.293  71.869  1.00  0.00    -0.054 C  
BRANCH  10  13
HETATM   13  O   UNL     1      -5.253   9.201  69.469  1.00  0.00    -0.034 OA 
BRANCH  13  14
HETATM   14  C   UNL     1      -5.932   9.423  68.311  1.00  0.00    -0.044 C  
HETATM   15  H   UNL     1      -7.127   7.839  68.906  1.00  0.00     0.000 HD 
HETATM   16  O   UNL     1      -5.754  10.382  67.577  1.00  0.00    -0.044 OA 
HETATM   17  N   UNL     1      -6.815   8.401  68.114  1.00  0.00    -0.068 N  
BRANCH  17  18
HETATM   18  C   UNL     1      -7.297   8.119  66.820  1.00  0.00    -0.083 A  
HETATM   19  C   UNL     1      -7.939   6.897  66.519  1.00  0.00    -0.109 A  
HETATM   20  C   UNL     1      -7.589   8.941  64.556  1.00  0.00    -0.109 A  
HETATM   21  C   UNL     1      -8.401   6.757  65.191  1.00  0.00    -0.084 A  
HETATM   22  C   UNL     1      -8.242   7.763  64.229  1.00  0.00    -0.030 A  
HETATM   23  C   UNL     1      -7.107   9.116  65.847  1.00  0.00    -0.089 A  
BRANCH  19  24
HETATM   24  C   UNL     1      -8.172   5.791  67.497  1.00  0.00    -0.101 A  
HETATM   25  C   UNL     1      -8.743   6.004  68.765  1.00  0.00    -0.111 A  
HETATM   26  C   UNL     1      -8.936   4.958  69.677  1.00  0.00    -0.137 A  
HETATM   27  C   UNL     1      -8.529   3.668  69.358  1.00  0.00    -0.097 A  
HETATM   28  C   UNL     1      -7.950   3.422  68.120  1.00  0.00    -0.075 A  
HETATM   29  C   UNL     1      -7.790   4.465  67.200  1.00  0.00    -0.097 A  
ENDBRANCH  19  24
ENDBRANCH  17  18
ENDBRANCH  13  14
ENDBRANCH  10  13
ENDBRANCH   6   7
ENDBRANCH   5   6
ENDBRANCH   2   5
BRANCH   4  30
HETATM   30  C   UNL     1     -11.531   8.823  71.422  1.00  0.00    -0.366 A  
HETATM   31  C   UNL     1     -12.219   9.927  71.948  1.00  0.00    -0.333 A  
HETATM   32  C   UNL     1     -11.124   8.870  70.086  1.00  0.00    -0.217 A  
HETATM   33  C   UNL     1     -11.244  10.046  69.344  1.00  0.00    -0.235 A  
HETATM   34  C   UNL     1     -12.402  11.086  71.183  1.00  0.00    -0.465 A  
HETATM   35  C   UNL     1     -11.881  11.167  69.887  1.00  0.00    -0.439 A  
BRANCH  35  36
HETATM   36  C   UNL     1     -12.026  12.427  69.057  1.00  0.00    -0.241 C  
BRANCH  36  37
HETATM   37  N   UNL     1     -11.029  12.513  67.979  1.00  0.00    -0.221 NA 
HETATM   38  C   UNL     1      -9.929  13.426  68.305  1.00  0.00    -0.240 C  
HETATM   39  C   UNL     1     -11.613  12.834  66.667  1.00  0.00    -0.370 C  
HETATM   40  C   UNL     1     -12.057  14.294  66.534  1.00  0.00    -0.454 C  
HETATM   41  C   UNL     1     -10.315  14.906  68.236  1.00  0.00    -0.232 C  
HETATM   42  C   UNL     1     -10.922  15.267  66.875  1.00  0.00    -0.315 C  
BRANCH  42  43
HETATM   43  C   UNL     1      -9.867  15.301  65.769  1.00  0.00    -0.361 C  
HETATM   44  N   UNL     1      -8.650  14.786  66.100  1.00  0.00    -0.329 N  
HETATM   45  H2  UNL     1      -8.456  14.403  67.025  1.00  0.00     0.000 HD 
HETATM   46  O   UNL     1     -10.041  15.780  64.653  1.00  0.00    -0.191 OA 
HETATM   47  H1  UNL     1      -7.946  14.809  65.362  1.00  0.00     0.000 HD 
ENDBRANCH  42  43
ENDBRANCH  36  37
ENDBRANCH  35  36
ENDBRANCH   4  30
TORSDOF 11
ENDMDL
MODEL      167
REMARK 921   NORMALIZED FREE ENERGY PREDICTED BY IDOCK:   -3.60 KCAL/MOL
REMARK 922        TOTAL FREE ENERGY PREDICTED BY IDOCK:   -7.55 KCAL/MOL
REMARK 923 INTER-LIGAND FREE ENERGY PREDICTED BY IDOCK:   -5.90 KCAL/MOL
REMARK 924 INTRA-LIGAND FREE ENERGY PREDICTED BY IDOCK:   -1.65 KCAL/MOL
REMARK 927      BINDING AFFINITY PREDICTED BY RF-SCORE:    0.00 PKD
ROOT
HETATM    1  C   UNL     1     -11.780  16.265  68.064  1.00  0.00     0.130 C  
HETATM    2  N   UNL     1     -11.068  15.026  67.787  1.00  0.00    -0.299 N  
HETATM    3  O   UNL     1     -10.665  14.810  70.052  1.00  0.00    -0.184 OA 
HETATM    4  C   UNL     1     -10.570  14.337  68.917  1.00  0.00    -0.245 C  
ENDROOT
BRANCH   2   5
HETATM    5  C   UNL     1     -11.159  14.403  66.466  1.00  0.00    -0.331 C  
BRANCH   5   6
HETATM    6  C   UNL     1     -12.514  13.993  65.865  1.00  0.00    -0.481 C  
BRANCH   6   7
HETATM    7  N   UNL     1     -12.353  13.480  64.483  1.00  0.00    -0.560 NA 
HETATM    8  C   UNL     1     -12.641  12.042  64.386  1.00  0.00    -0.193 C  
HETATM    9  C   UNL     1     -11.039  13.761  63.880  1.00  0.00     0.143 C  
HETATM   10  C   UNL     1     -10.162  11.504  64.536  1.00  0.00    -0.288 C  
HETATM   11  C   UNL     1      -9.905  13.014  64.577  1.00  0.00    -0.019 C  
HETATM   12  C   UNL     1     -11.570  11.164  65.035  1.00  0.00     0.355 C  
BRANCH  10  13
HETATM   13  O   UNL     1     -10.049  11.035  63.177  1.00  0.00    -0.332 OA 
BRANCH  13  14
HETATM   14  C   UNL     1      -8.853  10.466  62.866  1.00  0.00    -0.233 C  
HETATM   15  H   UNL     1      -9.785   8.669  63.309  1.00  0.00     0.000 HD 
HETATM   16  O   UNL     1      -7.911  11.061  62.368  1.00  0.00    -0.172 OA 
HETATM   17  N   UNL     1      -8.889   9.146  63.215  1.00  0.00    -0.148 N  
BRANCH  17  18
HETATM   18  C   UNL     1      -7.690   8.441  63.445  1.00  0.00    -0.141 A  
HETATM   19  C   UNL     1      -7.593   7.456  64.453  1.00  0.00    -0.115 A  
HETATM   20  C   UNL     1      -5.393   8.091  62.747  1.00  0.00    -0.059 A  
HETATM   21  C   UNL     1      -6.343   6.804  64.556  1.00  0.00    -0.039 A  
HETATM   22  C   UNL     1      -5.266   7.104  63.712  1.00  0.00    -0.029 A  
HETATM   23  C   UNL     1      -6.600   8.766  62.619  1.00  0.00    -0.095 A  
BRANCH  19  24
HETATM   24  C   UNL     1      -8.704   7.061  65.372  1.00  0.00     0.009 A  
HETATM   25  C   UNL     1      -9.613   7.990  65.910  1.00  0.00     0.038 A  
HETATM   26  C   UNL     1     -10.637   7.605  66.785  1.00  0.00    -0.256 A  
HETATM   27  C   UNL     1     -10.760   6.277  67.176  1.00  0.00    -0.432 A  
HETATM   28  C   UNL     1      -9.874   5.333  66.673  1.00  0.00    -0.198 A  
HETATM   29  C   UNL     1      -8.874   5.718  65.774  1.00  0.00    -0.151 A  
ENDBRANCH  19  24
ENDBRANCH  17  18
ENDBRANCH  13  14
ENDBRANCH  10  13
ENDBRANCH   6   7
ENDBRANCH   5   6
ENDBRANCH   2   5
BRANCH   4  30
HETATM   30  C   UNL     1      -9.993  12.957  68.795  1.00  0.00    -0.010 A  
HETATM   31  C   UNL     1      -8.642  12.840  68.433  1.00  0.00    -0.123 A  
HETATM   32  C   UNL     1     -10.721  11.786  69.023  1.00  0.00    -0.209 A  
HETATM   33  C   UNL     1     -10.086  10.545  69.058  1.00  0.00    -0.230 A  
HETATM   34  C   UNL     1      -8.016  11.588  68.401  1.00  0.00    -0.143 A  
HETATM   35  C   UNL     1      -8.725  10.434  68.751  1.00  0.00    -0.146 A  
BRANCH  35  36
HETATM   36  C   UNL     1      -8.058   9.074  68.768  1.00  0.00    -0.105 C  
BRANCH  36  37
HETATM   37  N   UNL     1      -8.230   8.374  70.051  1.00  0.00    -0.118 NA 
HETATM   38  C   UNL     1      -7.115   8.612  70.973  1.00  0.00    -0.076 C  
HETATM   39  C   UNL     1      -8.493   6.934  69.900  1.00  0.00    -0.140 C  
HETATM   40  C   UNL     1      -7.261   6.124  69.488  1.00  0.00    -0.078 C  
HETATM   41  C   UNL     1      -5.832   7.867  70.596  1.00  0.00    -0.029 C  
HETATM   42  C   UNL     1      -6.081   6.362  70.437  1.00  0.00    -0.031 C  
BRANCH  42  43
HETATM   43  C   UNL     1      -6.302   5.674  71.785  1.00  0.00    -0.044 C  
HETATM   44  N   UNL     1      -5.623   6.209  72.837  1.00  0.00    -0.036 N  
HETATM   45  H2  UNL     1      -5.007   7.016  72.734  1.00  0.00     0.000 HD 
HETATM   46  O   UNL     1      -7.005   4.684  71.955  1.00  0.00    -0.055 OA 
HETATM   47  H1  UNL     1      -5.772   5.751  73.737  1.00  0.00     0.000 HD 
ENDBRANCH  42  43
ENDBRANCH  36  37
ENDBRANCH  35  36
ENDBRANCH   4  30
TORSDOF 11
ENDMDL
MODEL      168
REMARK 921   NORMALIZED FREE ENERGY PREDICTED BY IDOCK:   -3.51 KCAL/MOL
REMARK 922        TOTAL FREE ENERGY PREDICTED BY IDOCK:   -7.41 KCAL/MOL
REMARK 923 INTER-LIGAND FREE ENERGY PREDICTED BY IDOCK:   -9.67 KCAL/MOL
REMARK 924 INTRA-LIGAND FREE ENERGY PREDICTED BY IDOCK:    2.26 KCAL/MOL
REMARK 927      BINDING AFFINITY PREDICTED BY RF-SCORE:    0.00 PKD
ROOT
HETATM    1  C   UNL     1      -8.951   9.109  65.107  1.00  0.00    -0.189 C  
HETATM    2  N   UNL     1      -8.823  10.446  65.667  1.00  0.00    -0.166 N  
HETATM    3  O   UNL     1     -10.789  11.027  64.603  1.00  0.00    -0.296 OA 
HETATM    4  C   UNL     1      -9.872  11.343  65.364  1.00  0.00    -0.236 C  
ENDROOT
BRANCH   2   5
HETATM    5  C   UNL     1      -7.842  10.713  66.720  1.00  0.00    -0.126 C  
BRANCH   5   6
HETATM    6  C   UNL     1      -7.355   9.599  67.661  1.00  0.00    -0.090 C  
BRANCH   6   7
HETATM    7  N   UNL     1      -8.101   9.616  68.942  1.00  0.00    -0.095 NA 
HETATM    8  C   UNL     1      -7.492  10.519  69.929  1.00  0.00    -0.080 C  
HETATM    9  C   UNL     1      -8.298   8.288  69.548  1.00  0.00    -0.121 C  
HETATM   10  C   UNL     1      -6.287   8.566  71.020  1.00  0.00    -0.043 C  
HETATM   11  C   UNL     1      -6.989   7.655  70.008  1.00  0.00    -0.051 C  
HETATM   12  C   UNL     1      -6.167   9.999  70.491  1.00  0.00    -0.109 C  
BRANCH  10  13
HETATM   13  O   UNL     1      -7.053   8.607  72.240  1.00  0.00    -0.201 OA 
BRANCH  13  14
HETATM   14  C   UNL     1      -7.374   7.389  72.755  1.00  0.00    -0.077 C  
HETATM   15  H   UNL     1      -8.456   7.125  71.008  1.00  0.00     0.000 HD 
HETATM   16  O   UNL     1      -6.876   6.908  73.760  1.00  0.00    -0.071 OA 
HETATM   17  N   UNL     1      -8.340   6.821  71.974  1.00  0.00    -0.112 N  
BRANCH  17  18
HETATM   18  C   UNL     1      -9.177   5.816  72.501  1.00  0.00    -0.142 A  
HETATM   19  C   UNL     1     -10.579   5.981  72.568  1.00  0.00    -0.249 A  
HETATM   20  C   UNL     1      -9.297   3.585  73.446  1.00  0.00    -0.116 A  
HETATM   21  C   UNL     1     -11.302   4.884  73.089  1.00  0.00    -0.395 A  
HETATM   22  C   UNL     1     -10.677   3.702  73.508  1.00  0.00    -0.307 A  
HETATM   23  C   UNL     1      -8.546   4.644  72.952  1.00  0.00    -0.110 A  
BRANCH  19  24
HETATM   24  C   UNL     1     -11.319   7.198  72.113  1.00  0.00    -0.301 A  
HETATM   25  C   UNL     1     -10.707   8.459  71.994  1.00  0.00    -0.387 A  
HETATM   26  C   UNL     1     -11.421   9.594  71.585  1.00  0.00    -0.376 A  
HETATM   27  C   UNL     1     -12.781   9.505  71.317  1.00  0.00    -0.416 A  
HETATM   28  C   UNL     1     -13.422   8.278  71.436  1.00  0.00    -0.247 A  
HETATM   29  C   UNL     1     -12.697   7.142  71.812  1.00  0.00    -0.374 A  
ENDBRANCH  19  24
ENDBRANCH  17  18
ENDBRANCH  13  14
ENDBRANCH  10  13
ENDBRANCH   6   7
ENDBRANCH   5   6
ENDBRANCH   2   5
BRANCH   4  30
HETATM   30  C   UNL     1      -9.968  12.683  66.033  1.00  0.00    -0.267 A  
HETATM   31  C   UNL     1     -11.052  13.509  65.695  1.00  0.00    -0.299 A  
HETATM   32  C   UNL     1      -9.044  13.154  66.970  1.00  0.00    -0.231 A  
HETATM   33  C   UNL     1      -9.282  14.332  67.678  1.00  0.00    -0.194 A  
HETATM   34  C   UNL     1     -11.257  14.726  66.356  1.00  0.00    -0.342 A  
HETATM   35  C   UNL     1     -10.393  15.129  67.381  1.00  0.00    -0.244 A  
BRANCH  35  36
HETATM   36  C   UNL     1     -10.620  16.419  68.142  1.00  0.00    -0.318 C  
BRANCH  36  37
HETATM   37  N   UNL     1     -10.261  17.610  67.356  1.00  0.00    -0.332 NA 
HETATM   38  C   UNL     1      -9.147  17.360  66.436  1.00  0.00    -0.248 C  
HETATM   39  C   UNL     1     -10.007  18.800  68.183  1.00  0.00    -0.366 C  
HETATM   40  C   UNL     1      -8.675  18.751  68.938  1.00  0.00    -0.233 C  
HETATM   41  C   UNL     1      -7.787  17.253  67.129  1.00  0.00    -0.223 C  
HETATM   42  C   UNL     1      -7.497  18.485  67.994  1.00  0.00    -0.264 C  
BRANCH  42  43
HETATM   43  C   UNL     1      -7.174  19.716  67.147  1.00  0.00    -0.214 C  
HETATM   44  N   UNL     1      -5.865  20.095  67.134  1.00  0.00    -0.167 N  
HETATM   45  H2  UNL     1      -5.148  19.591  67.655  1.00  0.00     0.000 HD 
HETATM   46  O   UNL     1      -8.004  20.376  66.529  1.00  0.00    -0.245 OA 
HETATM   47  H1  UNL     1      -5.650  20.917  66.568  1.00  0.00     0.000 HD 
ENDBRANCH  42  43
ENDBRANCH  36  37
ENDBRANCH  35  36
ENDBRANCH   4  30
TORSDOF 11
ENDMDL
MODEL      169
REMARK 921   NORMALIZED FREE ENERGY PREDICTED BY IDOCK:   -3.49 KCAL/MOL
REMARK 922        TOTAL FREE ENERGY PREDICTED BY IDOCK:   -7.37 KCAL/MOL
REMARK 923 INTER-LIGAND FREE ENERGY PREDICTED BY IDOCK:   -8.00 KCAL/MOL
REMARK 924 INTRA-LIGAND FREE ENERGY PREDICTED BY IDOCK:    0.63 KCAL/MOL
REMARK 927      BINDING AFFINITY PREDICTED BY RF-SCORE:    0.00 PKD
ROOT
HETATM    1  C   UNL     1      -9.692   8.035  67.823  1.00  0.00    -0.156 C  
HETATM    2  N   UNL     1      -9.784   9.462  68.093  1.00  0.00    -0.142 N  
HETATM    3  O   UNL     1      -8.897   9.865  65.998  1.00  0.00    -0.140 OA 
HETATM    4  C   UNL     1      -9.377  10.314  67.041  1.00  0.00    -0.154 C  
ENDROOT
BRANCH   2   5
HETATM    5  C   UNL     1     -10.544   9.946  69.246  1.00  0.00    -0.224 C  
BRANCH   5   6
HETATM    6  C   UNL     1     -11.208   8.973  70.234  1.00  0.00    -0.205 C  
BRANCH   6   7
HETATM    7  N   UNL     1     -10.618   7.616  70.126  1.00  0.00    -0.231 NA 
HETATM    8  C   UNL     1     -11.642   6.563  70.122  1.00  0.00    -0.402 C  
HETATM    9  C   UNL     1      -9.604   7.312  71.151  1.00  0.00    -0.160 C  
HETATM   10  C   UNL     1     -11.297   6.172  72.609  1.00  0.00    -0.259 C  
HETATM   11  C   UNL     1     -10.197   7.237  72.555  1.00  0.00    -0.236 C  
HETATM   12  C   UNL     1     -12.316   6.366  71.482  1.00  0.00    -0.164 C  
BRANCH  10  13
HETATM   13  O   UNL     1     -10.708   4.866  72.454  1.00  0.00    -0.211 OA 
BRANCH  13  14
HETATM   14  C   UNL     1      -9.722   4.574  73.345  1.00  0.00    -0.128 C  
HETATM   15  H   UNL     1      -8.423   5.155  71.839  1.00  0.00     0.000 HD 
HETATM   16  O   UNL     1      -9.907   4.306  74.522  1.00  0.00    -0.123 OA 
HETATM   17  N   UNL     1      -8.518   4.619  72.701  1.00  0.00    -0.113 N  
BRANCH  17  18
HETATM   18  C   UNL     1      -7.408   3.926  73.225  1.00  0.00    -0.069 A  
HETATM   19  C   UNL     1      -6.232   4.603  73.618  1.00  0.00    -0.045 A  
HETATM   20  C   UNL     1      -6.504   1.773  73.881  1.00  0.00    -0.016 A  
HETATM   21  C   UNL     1      -5.207   3.791  74.155  1.00  0.00    -0.003 A  
HETATM   22  C   UNL     1      -5.342   2.404  74.298  1.00  0.00     0.000 A  
HETATM   23  C   UNL     1      -7.532   2.530  73.336  1.00  0.00    -0.042 A  
BRANCH  19  24
HETATM   24  C   UNL     1      -6.024   6.080  73.525  1.00  0.00    -0.061 A  
HETATM   25  C   UNL     1      -5.345   6.686  72.452  1.00  0.00    -0.036 A  
HETATM   26  C   UNL     1      -5.143   8.072  72.390  1.00  0.00    -0.035 A  
HETATM   27  C   UNL     1      -5.586   8.890  73.422  1.00  0.00    -0.102 A  
HETATM   28  C   UNL     1      -6.250   8.325  74.503  1.00  0.00    -0.135 A  
HETATM   29  C   UNL     1      -6.479   6.945  74.544  1.00  0.00    -0.087 A  
ENDBRANCH  19  24
ENDBRANCH  17  18
ENDBRANCH  13  14
ENDBRANCH  10  13
ENDBRANCH   6   7
ENDBRANCH   5   6
ENDBRANCH   2   5
BRANCH   4  30
HETATM   30  C   UNL     1      -9.604  11.796  67.108  1.00  0.00    -0.189 A  
HETATM   31  C   UNL     1      -9.914  12.467  65.915  1.00  0.00    -0.271 A  
HETATM   32  C   UNL     1      -9.526  12.544  68.286  1.00  0.00    -0.201 A  
HETATM   33  C   UNL     1      -9.913  13.884  68.310  1.00  0.00    -0.238 A  
HETATM   34  C   UNL     1     -10.237  13.829  65.923  1.00  0.00    -0.322 A  
HETATM   35  C   UNL     1     -10.276  14.540  67.128  1.00  0.00    -0.260 A  
BRANCH  35  36
HETATM   36  C   UNL     1     -10.667  16.003  67.169  1.00  0.00    -0.283 C  
BRANCH  36  37
HETATM   37  N   UNL     1      -9.696  16.829  67.903  1.00  0.00    -0.241 NA 
HETATM   38  C   UNL     1     -10.146  18.215  68.062  1.00  0.00    -0.367 C  
HETATM   39  C   UNL     1      -8.338  16.775  67.338  1.00  0.00    -0.181 C  
HETATM   40  C   UNL     1      -8.186  17.552  66.027  1.00  0.00    -0.138 C  
HETATM   41  C   UNL     1     -10.065  19.041  66.776  1.00  0.00    -0.442 C  
HETATM   42  C   UNL     1      -8.656  19.004  66.170  1.00  0.00    -0.208 C  
BRANCH  42  43
HETATM   43  C   UNL     1      -7.662  19.833  66.983  1.00  0.00    -0.272 C  
HETATM   44  N   UNL     1      -7.981  21.149  67.138  1.00  0.00    -0.504 N  
HETATM   45  H2  UNL     1      -8.827  21.554  66.738  1.00  0.00     0.000 HD 
HETATM   46  O   UNL     1      -6.616  19.402  67.456  1.00  0.00    -0.206 OA 
HETATM   47  H1  UNL     1      -7.317  21.702  67.682  1.00  0.00     0.000 HD 
ENDBRANCH  42  43
ENDBRANCH  36  37
ENDBRANCH  35  36
ENDBRANCH   4  30
TORSDOF 11
ENDMDL
MODEL      170
REMARK 921   NORMALIZED FREE ENERGY PREDICTED BY IDOCK:   -3.46 KCAL/MOL
REMARK 922        TOTAL FREE ENERGY PREDICTED BY IDOCK:   -7.32 KCAL/MOL
REMARK 923 INTER-LIGAND FREE ENERGY PREDICTED BY IDOCK:   -7.71 KCAL/MOL
REMARK 924 INTRA-LIGAND FREE ENERGY PREDICTED BY IDOCK:    0.39 KCAL/MOL
REMARK 927      BINDING AFFINITY PREDICTED BY RF-SCORE:    0.00 PKD
ROOT
HETATM    1  C   UNL     1     -12.444  14.465  64.089  1.00  0.00    -0.199 C  
HETATM    2  N   UNL     1     -11.367  13.504  64.266  1.00  0.00    -0.385 N  
HETATM    3  O   UNL     1     -12.731  11.879  63.353  1.00  0.00    -0.662 OA 
HETATM    4  C   UNL     1     -11.627  12.195  63.801  1.00  0.00    -0.470 C  
ENDROOT
BRANCH   2   5
HETATM    5  C   UNL     1     -10.018  13.962  64.604  1.00  0.00     0.061 C  
BRANCH   5   6
HETATM    6  C   UNL     1      -9.721  15.447  64.871  1.00  0.00     0.463 C  
BRANCH   6   7
HETATM    7  N   UNL     1      -9.100  15.638  66.204  1.00  0.00    -0.337 NA 
HETATM    8  C   UNL     1      -9.797  14.883  67.256  1.00  0.00    -0.229 C  
HETATM    9  C   UNL     1      -8.967  17.045  66.617  1.00  0.00    -0.254 C  
HETATM   10  C   UNL     1     -11.108  16.956  67.920  1.00  0.00    -0.153 C  
HETATM   11  C   UNL     1     -10.317  17.716  66.851  1.00  0.00    -0.329 C  
HETATM   12  C   UNL     1     -11.171  15.458  67.606  1.00  0.00    -0.311 C  
BRANCH  10  13
HETATM   13  O   UNL     1     -10.461  17.114  69.198  1.00  0.00    -0.323 OA 
BRANCH  13  14
HETATM   14  C   UNL     1     -10.729  16.131  70.100  1.00  0.00    -0.289 C  
HETATM   15  H   UNL     1     -12.161  15.506  68.739  1.00  0.00     0.000 HD 
HETATM   16  O   UNL     1     -10.058  15.900  71.093  1.00  0.00     0.866 OA 
HETATM   17  N   UNL     1     -11.862  15.475  69.713  1.00  0.00    -0.338 N  
BRANCH  17  18
HETATM   18  C   UNL     1     -12.621  14.753  70.658  1.00  0.00    -0.354 A  
HETATM   19  C   UNL     1     -12.612  13.341  70.691  1.00  0.00    -0.305 A  
HETATM   20  C   UNL     1     -14.126  14.884  72.556  1.00  0.00    -0.478 A  
HETATM   21  C   UNL     1     -13.392  12.745  71.707  1.00  0.00    -0.436 A  
HETATM   22  C   UNL     1     -14.126  13.500  72.632  1.00  0.00    -0.276 A  
HETATM   23  C   UNL     1     -13.383  15.511  71.564  1.00  0.00    -0.593 A  
BRANCH  19  24
HETATM   24  C   UNL     1     -11.832  12.469  69.759  1.00  0.00    -0.380 A  
HETATM   25  C   UNL     1     -12.079  12.424  68.375  1.00  0.00    -0.114 A  
HETATM   26  C   UNL     1     -11.352  11.587  67.518  1.00  0.00    -0.366 A  
HETATM   27  C   UNL     1     -10.376  10.741  68.030  1.00  0.00    -0.211 A  
HETATM   28  C   UNL     1     -10.112  10.750  69.394  1.00  0.00    -0.166 A  
HETATM   29  C   UNL     1     -10.819  11.613  70.240  1.00  0.00     0.870 A  
ENDBRANCH  19  24
ENDBRANCH  17  18
ENDBRANCH  13  14
ENDBRANCH  10  13
ENDBRANCH   6   7
ENDBRANCH   5   6
ENDBRANCH   2   5
BRANCH   4  30
HETATM   30  C   UNL     1     -10.542  11.160  63.739  1.00  0.00    -0.422 A  
HETATM   31  C   UNL     1      -9.889  10.967  62.512  1.00  0.00    -0.072 A  
HETATM   32  C   UNL     1     -10.145  10.381  64.830  1.00  0.00    -0.387 A  
HETATM   33  C   UNL     1      -9.020   9.560  64.750  1.00  0.00    -0.263 A  
HETATM   34  C   UNL     1      -8.800  10.092  62.411  1.00  0.00    -0.263 A  
HETATM   35  C   UNL     1      -8.333   9.410  63.540  1.00  0.00    -0.184 A  
BRANCH  35  36
HETATM   36  C   UNL     1      -7.130   8.493  63.466  1.00  0.00    -0.090 C  
BRANCH  36  37
HETATM   37  N   UNL     1      -7.449   7.187  62.868  1.00  0.00    -0.089 NA 
HETATM   38  C   UNL     1      -8.273   6.353  63.749  1.00  0.00     0.041 C  
HETATM   39  C   UNL     1      -6.263   6.453  62.401  1.00  0.00    -0.031 C  
HETATM   40  C   UNL     1      -5.422   5.860  63.535  1.00  0.00    -0.017 C  
HETATM   41  C   UNL     1      -7.505   5.763  64.934  1.00  0.00    -0.079 C  
HETATM   42  C   UNL     1      -6.265   4.988  64.473  1.00  0.00    -0.030 C  
BRANCH  42  43
HETATM   43  C   UNL     1      -6.634   3.659  63.813  1.00  0.00    -0.035 C  
HETATM   44  N   UNL     1      -7.923   3.253  63.989  1.00  0.00    -0.081 N  
HETATM   45  H2  UNL     1      -8.596   3.799  64.525  1.00  0.00     0.000 HD 
HETATM   46  O   UNL     1      -5.853   2.949  63.188  1.00  0.00    -0.009 OA 
HETATM   47  H1  UNL     1      -8.169   2.366  63.549  1.00  0.00     0.000 HD 
ENDBRANCH  42  43
ENDBRANCH  36  37
ENDBRANCH  35  36
ENDBRANCH   4  30
TORSDOF 11
ENDMDL
MODEL      171
REMARK 921   NORMALIZED FREE ENERGY PREDICTED BY IDOCK:   -3.42 KCAL/MOL
REMARK 922        TOTAL FREE ENERGY PREDICTED BY IDOCK:   -7.26 KCAL/MOL
REMARK 923 INTER-LIGAND FREE ENERGY PREDICTED BY IDOCK:   -7.71 KCAL/MOL
REMARK 924 INTRA-LIGAND FREE ENERGY PREDICTED BY IDOCK:    0.45 KCAL/MOL
REMARK 927      BINDING AFFINITY PREDICTED BY RF-SCORE:    0.00 PKD
ROOT
HETATM    1  C   UNL     1      -5.350  14.007  69.425  1.00  0.00    -0.082 C  
HETATM    2  N   UNL     1      -5.836  12.731  68.924  1.00  0.00    -0.068 N  
HETATM    3  O   UNL     1      -5.296  11.781  70.960  1.00  0.00    -0.171 OA 
HETATM    4  C   UNL     1      -5.794  11.654  69.839  1.00  0.00    -0.125 C  
ENDROOT
BRANCH   2   5
HETATM    5  C   UNL     1      -6.601  12.671  67.678  1.00  0.00    -0.143 C  
BRANCH   5   6
HETATM    6  C   UNL     1      -7.100  13.949  66.983  1.00  0.00     0.592 C  
BRANCH   6   7
HETATM    7  N   UNL     1      -8.564  14.114  67.154  1.00  0.00    -0.218 NA 
HETATM    8  C   UNL     1      -9.110  15.164  66.281  1.00  0.00    -0.278 C  
HETATM    9  C   UNL     1      -8.989  14.358  68.542  1.00  0.00    -0.187 C  
HETATM   10  C   UNL     1      -9.017  16.841  68.188  1.00  0.00    -0.224 C  
HETATM   11  C   UNL     1      -8.503  15.703  69.075  1.00  0.00    -0.231 C  
HETATM   12  C   UNL     1      -8.712  16.577  66.710  1.00  0.00    -0.257 C  
BRANCH  10  13
HETATM   13  O   UNL     1     -10.447  16.953  68.332  1.00  0.00    -0.313 OA 
BRANCH  13  14
HETATM   14  C   UNL     1     -10.923  16.645  69.568  1.00  0.00    -0.228 C  
HETATM   15  H   UNL     1     -10.711  14.672  68.973  1.00  0.00     0.000 HD 
HETATM   16  O   UNL     1     -11.097  17.455  70.466  1.00  0.00     0.615 OA 
HETATM   17  N   UNL     1     -11.179  15.305  69.622  1.00  0.00    -0.258 N  
BRANCH  17  18
HETATM   18  C   UNL     1     -12.088  14.794  70.571  1.00  0.00    -0.315 A  
HETATM   19  C   UNL     1     -12.493  13.440  70.552  1.00  0.00    -0.350 A  
HETATM   20  C   UNL     1     -13.431  15.270  72.533  1.00  0.00    -0.588 A  
HETATM   21  C   UNL     1     -13.383  13.052  71.579  1.00  0.00    -0.284 A  
HETATM   22  C   UNL     1     -13.835  13.944  72.560  1.00  0.00    -0.620 A  
HETATM   23  C   UNL     1     -12.566  15.698  71.535  1.00  0.00    -0.511 A  
BRANCH  19  24
HETATM   24  C   UNL     1     -12.032  12.424  69.558  1.00  0.00    -0.324 A  
HETATM   25  C   UNL     1     -11.543  11.159  69.934  1.00  0.00    -0.416 A  
HETATM   26  C   UNL     1     -11.097  10.226  68.989  1.00  0.00    -0.277 A  
HETATM   27  C   UNL     1     -11.095  10.545  67.637  1.00  0.00    -0.375 A  
HETATM   28  C   UNL     1     -11.561  11.789  67.229  1.00  0.00    -0.344 A  
HETATM   29  C   UNL     1     -12.036  12.705  68.175  1.00  0.00    -0.274 A  
ENDBRANCH  19  24
ENDBRANCH  17  18
ENDBRANCH  13  14
ENDBRANCH  10  13
ENDBRANCH   6   7
ENDBRANCH   5   6
ENDBRANCH   2   5
BRANCH   4  30
HETATM   30  C   UNL     1      -6.443  10.338  69.523  1.00  0.00    -0.060 A  
HETATM   31  C   UNL     1      -7.622  10.007  70.210  1.00  0.00    -0.122 A  
HETATM   32  C   UNL     1      -5.943   9.427  68.588  1.00  0.00    -0.044 A  
HETATM   33  C   UNL     1      -6.682   8.303  68.220  1.00  0.00    -0.065 A  
HETATM   34  C   UNL     1      -8.332   8.843  69.890  1.00  0.00    -0.128 A  
HETATM   35  C   UNL     1      -7.887   8.001  68.865  1.00  0.00    -0.113 A  
BRANCH  35  36
HETATM   36  C   UNL     1      -8.662   6.761  68.471  1.00  0.00    -0.124 C  
BRANCH  36  37
HETATM   37  N   UNL     1      -8.633   5.720  69.510  1.00  0.00    -0.111 NA 
HETATM   38  C   UNL     1      -7.293   5.157  69.702  1.00  0.00    -0.061 C  
HETATM   39  C   UNL     1      -9.629   4.658  69.301  1.00  0.00    -0.181 C  
HETATM   40  C   UNL     1      -9.273   3.697  68.163  1.00  0.00    -0.221 C  
HETATM   41  C   UNL     1      -6.851   4.220  68.575  1.00  0.00    -0.047 C  
HETATM   42  C   UNL     1      -7.872   3.100  68.341  1.00  0.00    -0.059 C  
BRANCH  42  43
HETATM   43  C   UNL     1      -7.849   2.061  69.463  1.00  0.00    -0.042 C  
HETATM   44  N   UNL     1      -6.613   1.620  69.831  1.00  0.00    -0.028 N  
HETATM   45  H2  UNL     1      -5.760   1.961  69.387  1.00  0.00     0.000 HD 
HETATM   46  O   UNL     1      -8.846   1.596  70.005  1.00  0.00    -0.052 OA 
HETATM   47  H1  UNL     1      -6.598   0.927  70.580  1.00  0.00     0.000 HD 
ENDBRANCH  42  43
ENDBRANCH  36  37
ENDBRANCH  35  36
ENDBRANCH   4  30
TORSDOF 11
ENDMDL
MODEL      172
REMARK 921   NORMALIZED FREE ENERGY PREDICTED BY IDOCK:   -3.39 KCAL/MOL
REMARK 922        TOTAL FREE ENERGY PREDICTED BY IDOCK:   -7.20 KCAL/MOL
REMARK 923 INTER-LIGAND FREE ENERGY PREDICTED BY IDOCK:   -6.29 KCAL/MOL
REMARK 924 INTRA-LIGAND FREE ENERGY PREDICTED BY IDOCK:   -0.91 KCAL/MOL
REMARK 927      BINDING AFFINITY PREDICTED BY RF-SCORE:    0.00 PKD
ROOT
HETATM    1  C   UNL     1     -13.014   6.608  71.770  1.00  0.00    -0.133 C  
HETATM    2  N   UNL     1     -11.833   6.590  70.921  1.00  0.00    -0.363 N  
HETATM    3  O   UNL     1     -11.090   4.733  72.077  1.00  0.00     0.014 OA 
HETATM    4  C   UNL     1     -10.924   5.533  71.154  1.00  0.00    -0.125 C  
ENDROOT
BRANCH   2   5
HETATM    5  C   UNL     1     -11.778   7.421  69.718  1.00  0.00     0.257 C  
BRANCH   5   6
HETATM    6  C   UNL     1     -11.286   8.877  69.772  1.00  0.00     0.085 C  
BRANCH   6   7
HETATM    7  N   UNL     1     -12.335   9.814  69.302  1.00  0.00     0.727 NA 
HETATM    8  C   UNL     1     -11.774  10.940  68.541  1.00  0.00    -0.237 C  
HETATM    9  C   UNL     1     -13.211  10.329  70.368  1.00  0.00     0.062 C  
HETATM   10  C   UNL     1     -11.833  12.410  70.613  1.00  0.00     0.070 C  
HETATM   11  C   UNL     1     -12.468  11.228  71.352  1.00  0.00    -0.392 C  
HETATM   12  C   UNL     1     -11.008  11.939  69.412  1.00  0.00    -0.156 C  
BRANCH  10  13
HETATM   13  O   UNL     1     -12.870  13.283  70.123  1.00  0.00     0.009 OA 
BRANCH  13  14
HETATM   14  C   UNL     1     -12.482  14.569  69.909  1.00  0.00    -0.252 C  
HETATM   15  H   UNL     1     -12.519  14.068  67.900  1.00  0.00     0.000 HD 
HETATM   16  O   UNL     1     -12.435  15.432  70.772  1.00  0.00    -0.360 OA 
HETATM   17  N   UNL     1     -12.148  14.716  68.594  1.00  0.00    -0.251 N  
BRANCH  17  18
HETATM   18  C   UNL     1     -11.293  15.763  68.192  1.00  0.00    -0.337 A  
HETATM   19  C   UNL     1     -10.616  15.730  66.951  1.00  0.00    -0.317 A  
HETATM   20  C   UNL     1     -10.361  17.931  68.753  1.00  0.00    -0.311 A  
HETATM   21  C   UNL     1      -9.815  16.857  66.659  1.00  0.00    -0.295 A  
HETATM   22  C   UNL     1      -9.698  17.944  67.535  1.00  0.00    -0.278 A  
HETATM   23  C   UNL     1     -11.150  16.838  69.086  1.00  0.00    -0.141 A  
BRANCH  19  24
HETATM   24  C   UNL     1     -10.714  14.621  65.953  1.00  0.00    -0.312 A  
HETATM   25  C   UNL     1     -11.817  14.468  65.094  1.00  0.00    -0.374 A  
HETATM   26  C   UNL     1     -11.902  13.411  64.177  1.00  0.00    -0.492 A  
HETATM   27  C   UNL     1     -10.896  12.453  64.119  1.00  0.00    -0.414 A  
HETATM   28  C   UNL     1      -9.797  12.567  64.961  1.00  0.00    -0.111 A  
HETATM   29  C   UNL     1      -9.703  13.643  65.851  1.00  0.00    -0.206 A  
ENDBRANCH  19  24
ENDBRANCH  17  18
ENDBRANCH  13  14
ENDBRANCH  10  13
ENDBRANCH   6   7
ENDBRANCH   5   6
ENDBRANCH   2   5
BRANCH   4  30
HETATM   30  C   UNL     1      -9.771   5.279  70.227  1.00  0.00    -0.261 A  
HETATM   31  C   UNL     1      -9.953   4.347  69.194  1.00  0.00    -0.117 A  
HETATM   32  C   UNL     1      -8.532   5.917  70.333  1.00  0.00    -0.131 A  
HETATM   33  C   UNL     1      -7.562   5.763  69.341  1.00  0.00    -0.088 A  
HETATM   34  C   UNL     1      -8.955   4.138  68.235  1.00  0.00    -0.154 A  
HETATM   35  C   UNL     1      -7.765   4.874  68.280  1.00  0.00    -0.082 A  
BRANCH  35  36
HETATM   36  C   UNL     1      -6.690   4.699  67.227  1.00  0.00    -0.051 C  
BRANCH  36  37
HETATM   37  N   UNL     1      -6.447   5.927  66.455  1.00  0.00    -0.042 NA 
HETATM   38  C   UNL     1      -7.691   6.588  66.047  1.00  0.00    -0.093 C  
HETATM   39  C   UNL     1      -5.553   5.727  65.304  1.00  0.00    -0.016 C  
HETATM   40  C   UNL     1      -6.210   4.982  64.138  1.00  0.00    -0.022 C  
HETATM   41  C   UNL     1      -8.427   5.870  64.913  1.00  0.00    -0.085 C  
HETATM   42  C   UNL     1      -7.516   5.653  63.698  1.00  0.00    -0.063 C  
BRANCH  42  43
HETATM   43  C   UNL     1      -7.246   6.957  62.946  1.00  0.00    -0.067 C  
HETATM   44  N   UNL     1      -8.266   7.860  62.949  1.00  0.00    -0.331 N  
HETATM   45  H2  UNL     1      -9.151   7.678  63.422  1.00  0.00     0.000 HD 
HETATM   46  O   UNL     1      -6.213   7.209  62.334  1.00  0.00    -0.047 OA 
HETATM   47  H1  UNL     1      -8.086   8.730  62.447  1.00  0.00     0.000 HD 
ENDBRANCH  42  43
ENDBRANCH  36  37
ENDBRANCH  35  36
ENDBRANCH   4  30
TORSDOF 11
ENDMDL
MODEL      173
REMARK 921   NORMALIZED FREE ENERGY PREDICTED BY IDOCK:   -3.31 KCAL/MOL
REMARK 922        TOTAL FREE ENERGY PREDICTED BY IDOCK:   -7.07 KCAL/MOL
REMARK 923 INTER-LIGAND FREE ENERGY PREDICTED BY IDOCK:   -6.36 KCAL/MOL
REMARK 924 INTRA-LIGAND FREE ENERGY PREDICTED BY IDOCK:   -0.71 KCAL/MOL
REMARK 927      BINDING AFFINITY PREDICTED BY RF-SCORE:    0.00 PKD
ROOT
HETATM    1  C   UNL     1     -13.387  13.201  70.574  1.00  0.00     0.667 C  
HETATM    2  N   UNL     1     -12.305  12.382  70.049  1.00  0.00    -0.149 N  
HETATM    3  O   UNL     1     -12.860  10.749  71.586  1.00  0.00    -0.421 OA 
HETATM    4  C   UNL     1     -12.161  11.103  70.634  1.00  0.00    -0.397 C  
ENDROOT
BRANCH   2   5
HETATM    5  C   UNL     1     -11.643  12.750  68.797  1.00  0.00    -0.312 C  
BRANCH   5   6
HETATM    6  C   UNL     1     -10.248  13.396  68.788  1.00  0.00    -0.119 C  
BRANCH   6   7
HETATM    7  N   UNL     1     -10.253  14.689  69.514  1.00  0.00    -0.092 NA 
HETATM    8  C   UNL     1     -11.427  15.508  69.183  1.00  0.00    -0.348 C  
HETATM    9  C   UNL     1      -9.029  15.490  69.336  1.00  0.00    -0.275 C  
HETATM   10  C   UNL     1     -10.071  16.826  67.486  1.00  0.00    -0.276 C  
HETATM   11  C   UNL     1      -8.859  15.986  67.903  1.00  0.00    -0.180 C  
HETATM   12  C   UNL     1     -11.383  16.088  67.768  1.00  0.00    -0.167 C  
BRANCH  10  13
HETATM   13  O   UNL     1     -10.083  18.056  68.237  1.00  0.00    -0.342 OA 
BRANCH  13  14
HETATM   14  C   UNL     1      -9.363  19.070  67.685  1.00  0.00    -0.298 C  
HETATM   15  H   UNL     1      -8.916  17.711  66.186  1.00  0.00     0.000 HD 
HETATM   16  O   UNL     1      -9.377  20.225  68.080  1.00  0.00    -0.282 OA 
HETATM   17  N   UNL     1      -8.629  18.575  66.645  1.00  0.00    -0.279 N  
BRANCH  17  18
HETATM   18  C   UNL     1      -7.476  19.256  66.204  1.00  0.00    -0.278 A  
HETATM   19  C   UNL     1      -6.206  19.004  66.769  1.00  0.00    -0.192 A  
HETATM   20  C   UNL     1      -6.568  20.880  64.647  1.00  0.00    -0.187 A  
HETATM   21  C   UNL     1      -5.131  19.733  66.213  1.00  0.00    -0.164 A  
HETATM   22  C   UNL     1      -5.303  20.644  65.163  1.00  0.00    -0.222 A  
HETATM   23  C   UNL     1      -7.656  20.195  65.172  1.00  0.00     0.262 A  
BRANCH  19  24
HETATM   24  C   UNL     1      -5.939  18.028  67.869  1.00  0.00    -0.162 A  
HETATM   25  C   UNL     1      -5.744  18.422  69.206  1.00  0.00    -0.227 A  
HETATM   26  C   UNL     1      -5.475  17.495  70.221  1.00  0.00    -0.248 A  
HETATM   27  C   UNL     1      -5.359  16.143  69.921  1.00  0.00    -0.144 A  
HETATM   28  C   UNL     1      -5.535  15.718  68.610  1.00  0.00    -0.102 A  
HETATM   29  C   UNL     1      -5.836  16.645  67.606  1.00  0.00    -0.166 A  
ENDBRANCH  19  24
ENDBRANCH  17  18
ENDBRANCH  13  14
ENDBRANCH  10  13
ENDBRANCH   6   7
ENDBRANCH   5   6
ENDBRANCH   2   5
BRANCH   4  30
HETATM   30  C   UNL     1     -11.221  10.084  70.058  1.00  0.00    -0.345 A  
HETATM   31  C   UNL     1     -10.036   9.816  70.760  1.00  0.00    -0.151 A  
HETATM   32  C   UNL     1     -11.458   9.391  68.869  1.00  0.00     0.356 A  
HETATM   33  C   UNL     1     -10.629   8.339  68.477  1.00  0.00    -0.143 A  
HETATM   34  C   UNL     1      -9.165   8.806  70.333  1.00  0.00    -0.204 A  
HETATM   35  C   UNL     1      -9.476   8.033  69.208  1.00  0.00    -0.155 A  
BRANCH  35  36
HETATM   36  C   UNL     1      -8.573   6.905  68.752  1.00  0.00    -0.124 C  
BRANCH  36  37
HETATM   37  N   UNL     1      -8.185   6.009  69.853  1.00  0.00    -0.117 NA 
HETATM   38  C   UNL     1      -6.732   5.852  69.963  1.00  0.00    -0.052 C  
HETATM   39  C   UNL     1      -8.858   4.702  69.806  1.00  0.00    -0.089 C  
HETATM   40  C   UNL     1      -8.325   3.776  68.708  1.00  0.00    -0.088 C  
HETATM   41  C   UNL     1      -6.123   4.973  68.867  1.00  0.00    -0.029 C  
HETATM   42  C   UNL     1      -6.805   3.601  68.801  1.00  0.00    -0.046 C  
BRANCH  42  43
HETATM   43  C   UNL     1      -6.419   2.713  69.984  1.00  0.00    -0.029 C  
HETATM   44  N   UNL     1      -7.115   1.547  70.097  1.00  0.00    -0.033 N  
HETATM   45  H2  UNL     1      -7.846   1.284  69.436  1.00  0.00     0.000 HD 
HETATM   46  O   UNL     1      -5.572   2.999  70.824  1.00  0.00    -0.012 OA 
HETATM   47  H1  UNL     1      -6.857   0.954  70.886  1.00  0.00     0.000 HD 
ENDBRANCH  42  43
ENDBRANCH  36  37
ENDBRANCH  35  36
ENDBRANCH   4  30
TORSDOF 11
ENDMDL
MODEL      174
REMARK 921   NORMALIZED FREE ENERGY PREDICTED BY IDOCK:   -3.28 KCAL/MOL
REMARK 922        TOTAL FREE ENERGY PREDICTED BY IDOCK:   -7.03 KCAL/MOL
REMARK 923 INTER-LIGAND FREE ENERGY PREDICTED BY IDOCK:   -8.32 KCAL/MOL
REMARK 924 INTRA-LIGAND FREE ENERGY PREDICTED BY IDOCK:    1.30 KCAL/MOL
REMARK 927      BINDING AFFINITY PREDICTED BY RF-SCORE:    0.00 PKD
ROOT
HETATM    1  C   UNL     1      -5.286  10.663  70.838  1.00  0.00    -0.094 C  
HETATM    2  N   UNL     1      -6.320  11.253  70.001  1.00  0.00    -0.144 N  
HETATM    3  O   UNL     1      -5.343  13.319  70.333  1.00  0.00    -0.104 OA 
HETATM    4  C   UNL     1      -6.213  12.645  69.779  1.00  0.00    -0.111 C  
ENDROOT
BRANCH   2   5
HETATM    5  C   UNL     1      -7.200  10.396  69.204  1.00  0.00    -0.089 C  
BRANCH   5   6
HETATM    6  C   UNL     1      -6.632   9.343  68.239  1.00  0.00    -0.058 C  
BRANCH   6   7
HETATM    7  N   UNL     1      -6.533   8.016  68.893  1.00  0.00    -0.047 NA 
HETATM    8  C   UNL     1      -6.070   6.972  67.967  1.00  0.00    -0.034 C  
HETATM    9  C   UNL     1      -7.772   7.571  69.554  1.00  0.00    -0.104 C  
HETATM   10  C   UNL     1      -8.466   6.237  67.547  1.00  0.00    -0.108 C  
HETATM   11  C   UNL     1      -8.899   7.299  68.562  1.00  0.00    -0.129 C  
HETATM   12  C   UNL     1      -7.114   6.586  66.917  1.00  0.00    -0.073 C  
BRANCH  10  13
HETATM   13  O   UNL     1      -8.329   4.965  68.212  1.00  0.00    -0.092 OA 
BRANCH  13  14
HETATM   14  C   UNL     1      -9.325   4.670  69.092  1.00  0.00    -0.142 C  
HETATM   15  H   UNL     1      -7.909   5.043  70.558  1.00  0.00     0.000 HD 
HETATM   16  O   UNL     1     -10.494   4.505  68.785  1.00  0.00     0.148 OA 
HETATM   17  N   UNL     1      -8.792   4.581  70.346  1.00  0.00    -0.085 N  
BRANCH  17  18
HETATM   18  C   UNL     1      -9.461   3.851  71.350  1.00  0.00    -0.152 A  
HETATM   19  C   UNL     1     -10.381   4.469  72.226  1.00  0.00    -0.243 A  
HETATM   20  C   UNL     1      -9.813   1.675  72.363  1.00  0.00    -0.178 A  
HETATM   21  C   UNL     1     -11.004   3.616  73.165  1.00  0.00    -0.228 A  
HETATM   22  C   UNL     1     -10.737   2.242  73.226  1.00  0.00    -0.267 A  
HETATM   23  C   UNL     1      -9.168   2.479  71.432  1.00  0.00    -0.185 A  
BRANCH  19  24
HETATM   24  C   UNL     1     -10.739   5.921  72.204  1.00  0.00    -0.278 A  
HETATM   25  C   UNL     1      -9.870   6.926  72.666  1.00  0.00    -0.184 A  
HETATM   26  C   UNL     1     -10.230   8.280  72.655  1.00  0.00    -0.368 A  
HETATM   27  C   UNL     1     -11.489   8.666  72.213  1.00  0.00    -0.423 A  
HETATM   28  C   UNL     1     -12.378   7.699  71.759  1.00  0.00    -0.349 A  
HETATM   29  C   UNL     1     -12.001   6.352  71.741  1.00  0.00    -0.370 A  
ENDBRANCH  19  24
ENDBRANCH  17  18
ENDBRANCH  13  14
ENDBRANCH  10  13
ENDBRANCH   6   7
ENDBRANCH   5   6
ENDBRANCH   2   5
BRANCH   4  30
HETATM   30  C   UNL     1      -7.091  13.344  68.781  1.00  0.00    -0.101 A  
HETATM   31  C   UNL     1      -8.456  13.017  68.767  1.00  0.00     0.149 A  
HETATM   32  C   UNL     1      -6.628  14.297  67.870  1.00  0.00    -0.175 A  
HETATM   33  C   UNL     1      -7.521  15.030  67.088  1.00  0.00    -0.145 A  
HETATM   34  C   UNL     1      -9.347  13.704  67.933  1.00  0.00    -0.206 A  
HETATM   35  C   UNL     1      -8.890  14.744  67.114  1.00  0.00    -0.234 A  
BRANCH  35  36
HETATM   36  C   UNL     1      -9.842  15.531  66.237  1.00  0.00    -0.294 C  
BRANCH  36  37
HETATM   37  N   UNL     1      -9.318  16.860  65.884  1.00  0.00    -0.525 NA 
HETATM   38  C   UNL     1      -8.189  17.260  66.729  1.00  0.00    -0.247 C  
HETATM   39  C   UNL     1     -10.352  17.906  65.852  1.00  0.00    -0.259 C  
HETATM   40  C   UNL     1     -10.835  18.335  67.241  1.00  0.00    -0.269 C  
HETATM   41  C   UNL     1      -8.594  17.660  68.150  1.00  0.00    -0.261 C  
HETATM   42  C   UNL     1      -9.669  18.753  68.144  1.00  0.00    -0.384 C  
BRANCH  42  43
HETATM   43  C   UNL     1      -9.101  20.110  67.727  1.00  0.00    -0.298 C  
HETATM   44  N   UNL     1      -7.792  20.322  68.039  1.00  0.00    -0.209 N  
HETATM   45  H2  UNL     1      -7.228  19.621  68.520  1.00  0.00     0.000 HD 
HETATM   46  O   UNL     1      -9.746  20.998  67.178  1.00  0.00    -0.374 OA 
HETATM   47  H1  UNL     1      -7.413  21.228  67.761  1.00  0.00     0.000 HD 
ENDBRANCH  42  43
ENDBRANCH  36  37
ENDBRANCH  35  36
ENDBRANCH   4  30
TORSDOF 11
ENDMDL
MODEL      175
REMARK 921   NORMALIZED FREE ENERGY PREDICTED BY IDOCK:   -3.22 KCAL/MOL
REMARK 922        TOTAL FREE ENERGY PREDICTED BY IDOCK:   -6.92 KCAL/MOL
REMARK 923 INTER-LIGAND FREE ENERGY PREDICTED BY IDOCK:   -8.19 KCAL/MOL
REMARK 924 INTRA-LIGAND FREE ENERGY PREDICTED BY IDOCK:    1.27 KCAL/MOL
REMARK 927      BINDING AFFINITY PREDICTED BY RF-SCORE:    0.00 PKD
ROOT
HETATM    1  C   UNL     1      -5.768  16.944  69.566  1.00  0.00    -0.187 C  
HETATM    2  N   UNL     1      -6.734  16.175  68.796  1.00  0.00    -0.129 N  
HETATM    3  O   UNL     1      -8.266  17.875  69.113  1.00  0.00    -0.086 OA 
HETATM    4  C   UNL     1      -7.990  16.792  68.594  1.00  0.00    -0.246 C  
ENDROOT
BRANCH   2   5
HETATM    5  C   UNL     1      -6.303  15.004  68.032  1.00  0.00    -0.149 C  
BRANCH   5   6
HETATM    6  C   UNL     1      -7.249  13.817  67.784  1.00  0.00    -0.163 C  
BRANCH   6   7
HETATM    7  N   UNL     1      -7.457  13.031  69.024  1.00  0.00     0.023 NA 
HETATM    8  C   UNL     1      -6.215  12.408  69.502  1.00  0.00    -0.126 C  
HETATM    9  C   UNL     1      -8.513  12.009  68.925  1.00  0.00     0.177 C  
HETATM   10  C   UNL     1      -6.846  10.216  68.382  1.00  0.00    -0.061 C  
HETATM   11  C   UNL     1      -8.154  10.889  67.953  1.00  0.00    -0.113 C  
HETATM   12  C   UNL     1      -5.741  11.248  68.624  1.00  0.00    -0.042 C  
BRANCH  10  13
HETATM   13  O   UNL     1      -7.058   9.497  69.614  1.00  0.00    -0.061 OA 
BRANCH  13  14
HETATM   14  C   UNL     1      -8.263   8.873  69.711  1.00  0.00    -0.119 C  
HETATM   15  H   UNL     1      -8.789  10.448  70.950  1.00  0.00     0.000 HD 
HETATM   16  O   UNL     1      -8.602   7.912  69.039  1.00  0.00    -0.133 OA 
HETATM   17  N   UNL     1      -9.001   9.487  70.681  1.00  0.00    -0.223 N  
BRANCH  17  18
HETATM   18  C   UNL     1     -10.057   8.798  71.313  1.00  0.00    -0.266 A  
HETATM   19  C   UNL     1      -9.815   7.820  72.303  1.00  0.00    -0.248 A  
HETATM   20  C   UNL     1     -12.461   8.538  71.507  1.00  0.00    -0.353 A  
HETATM   21  C   UNL     1     -10.963   7.229  72.876  1.00  0.00    -0.381 A  
HETATM   22  C   UNL     1     -12.263   7.588  72.497  1.00  0.00    -0.096 A  
HETATM   23  C   UNL     1     -11.360   9.136  70.908  1.00  0.00    -0.359 A  
BRANCH  19  24
HETATM   24  C   UNL     1      -8.460   7.405  72.780  1.00  0.00    -0.141 A  
HETATM   25  C   UNL     1      -8.009   6.073  72.723  1.00  0.00    -0.107 A  
HETATM   26  C   UNL     1      -6.743   5.699  73.193  1.00  0.00    -0.074 A  
HETATM   27  C   UNL     1      -5.902   6.643  73.768  1.00  0.00    -0.058 A  
HETATM   28  C   UNL     1      -6.319   7.966  73.852  1.00  0.00    -0.100 A  
HETATM   29  C   UNL     1      -7.571   8.341  73.351  1.00  0.00    -0.176 A  
ENDBRANCH  19  24
ENDBRANCH  17  18
ENDBRANCH  13  14
ENDBRANCH  10  13
ENDBRANCH   6   7
ENDBRANCH   5   6
ENDBRANCH   2   5
BRANCH   4  30
HETATM   30  C   UNL     1      -9.005  16.203  67.657  1.00  0.00    -0.194 A  
HETATM   31  C   UNL     1      -9.982  15.354  68.200  1.00  0.00    -0.221 A  
HETATM   32  C   UNL     1      -9.032  16.450  66.282  1.00  0.00    -0.368 A  
HETATM   33  C   UNL     1     -10.098  16.009  65.498  1.00  0.00    -0.336 A  
HETATM   34  C   UNL     1     -11.018  14.853  67.401  1.00  0.00    -0.314 A  
HETATM   35  C   UNL     1     -11.104  15.209  66.050  1.00  0.00    -0.312 A  
BRANCH  35  36
HETATM   36  C   UNL     1     -12.240  14.716  65.176  1.00  0.00    -0.282 C  
BRANCH  36  37
HETATM   37  N   UNL     1     -11.822  13.649  64.254  1.00  0.00    -0.413 NA 
HETATM   38  C   UNL     1     -12.515  12.383  64.511  1.00  0.00    -0.435 C  
HETATM   39  C   UNL     1     -10.365  13.455  64.205  1.00  0.00    -0.226 C  
HETATM   40  C   UNL     1      -9.796  12.765  65.448  1.00  0.00    -0.143 C  
HETATM   41  C   UNL     1     -12.027  11.658  65.768  1.00  0.00     0.389 C  
HETATM   42  C   UNL     1     -10.509  11.440  65.739  1.00  0.00    -0.314 C  
BRANCH  42  43
HETATM   43  C   UNL     1     -10.106  10.359  64.736  1.00  0.00    -0.317 C  
HETATM   44  N   UNL     1      -9.899   9.118  65.260  1.00  0.00    -0.391 N  
HETATM   45  H2  UNL     1     -10.006   8.923  66.255  1.00  0.00     0.000 HD 
HETATM   46  O   UNL     1      -9.932  10.549  63.537  1.00  0.00    -0.317 OA 
HETATM   47  H1  UNL     1      -9.630   8.396  64.590  1.00  0.00     0.000 HD 
ENDBRANCH  42  43
ENDBRANCH  36  37
ENDBRANCH  35  36
ENDBRANCH   4  30
TORSDOF 11
ENDMDL
MODEL      176
REMARK 921   NORMALIZED FREE ENERGY PREDICTED BY IDOCK:   -3.20 KCAL/MOL
REMARK 922        TOTAL FREE ENERGY PREDICTED BY IDOCK:   -6.89 KCAL/MOL
REMARK 923 INTER-LIGAND FREE ENERGY PREDICTED BY IDOCK:   -8.61 KCAL/MOL
REMARK 924 INTRA-LIGAND FREE ENERGY PREDICTED BY IDOCK:    1.72 KCAL/MOL
REMARK 927      BINDING AFFINITY PREDICTED BY RF-SCORE:    0.00 PKD
ROOT
HETATM    1  C   UNL     1      -5.395   7.075  67.716  1.00  0.00    -0.016 C  
HETATM    2  N   UNL     1      -6.002   8.390  67.854  1.00  0.00    -0.046 N  
HETATM    3  O   UNL     1      -7.673   7.717  66.408  1.00  0.00    -0.086 OA 
HETATM    4  C   UNL     1      -7.214   8.585  67.153  1.00  0.00    -0.080 C  
ENDROOT
BRANCH   2   5
HETATM    5  C   UNL     1      -5.543   9.307  68.899  1.00  0.00    -0.037 C  
BRANCH   5   6
HETATM    6  C   UNL     1      -5.724   8.977  70.389  1.00  0.00    -0.030 C  
BRANCH   6   7
HETATM    7  N   UNL     1      -6.507   7.731  70.571  1.00  0.00    -0.038 NA 
HETATM    8  C   UNL     1      -7.794   7.974  71.237  1.00  0.00    -0.091 C  
HETATM    9  C   UNL     1      -5.785   6.657  71.273  1.00  0.00    -0.028 C  
HETATM   10  C   UNL     1      -6.798   7.300  73.476  1.00  0.00    -0.065 C  
HETATM   11  C   UNL     1      -5.493   7.005  72.730  1.00  0.00    -0.038 C  
HETATM   12  C   UNL     1      -7.652   8.323  72.721  1.00  0.00    -0.162 C  
BRANCH  10  13
HETATM   13  O   UNL     1      -7.565   6.086  73.598  1.00  0.00    -0.096 OA 
BRANCH  13  14
HETATM   14  C   UNL     1      -8.915   6.260  73.599  1.00  0.00    -0.124 C  
HETATM   15  H   UNL     1      -8.866   5.327  71.750  1.00  0.00     0.000 HD 
HETATM   16  O   UNL     1      -9.563   6.652  74.557  1.00  0.00    -0.244 OA 
HETATM   17  N   UNL     1      -9.402   5.940  72.364  1.00  0.00    -0.144 N  
BRANCH  17  18
HETATM   18  C   UNL     1     -10.643   6.453  71.936  1.00  0.00    -0.214 A  
HETATM   19  C   UNL     1     -11.142   6.198  70.639  1.00  0.00    -0.384 A  
HETATM   20  C   UNL     1     -12.608   7.739  72.543  1.00  0.00    -0.009 A  
HETATM   21  C   UNL     1     -12.411   6.747  70.350  1.00  0.00     0.055 A  
HETATM   22  C   UNL     1     -13.139   7.492  71.287  1.00  0.00    -0.316 A  
HETATM   23  C   UNL     1     -11.357   7.229  72.865  1.00  0.00    -0.290 A  
BRANCH  19  24
HETATM   24  C   UNL     1     -10.438   5.389  69.597  1.00  0.00    -0.361 A  
HETATM   25  C   UNL     1     -10.036   4.057  69.812  1.00  0.00     0.181 A  
HETATM   26  C   UNL     1      -9.360   3.320  68.830  1.00  0.00    -0.232 A  
HETATM   27  C   UNL     1      -9.035   3.907  67.614  1.00  0.00    -0.156 A  
HETATM   28  C   UNL     1      -9.406   5.224  67.371  1.00  0.00    -0.122 A  
HETATM   29  C   UNL     1     -10.110   5.945  68.342  1.00  0.00    -0.206 A  
ENDBRANCH  19  24
ENDBRANCH  17  18
ENDBRANCH  13  14
ENDBRANCH  10  13
ENDBRANCH   6   7
ENDBRANCH   5   6
ENDBRANCH   2   5
BRANCH   4  30
HETATM   30  C   UNL     1      -8.046   9.817  67.364  1.00  0.00    -0.114 A  
HETATM   31  C   UNL     1      -9.228   9.690  68.110  1.00  0.00    -0.130 A  
HETATM   32  C   UNL     1      -7.711  11.077  66.862  1.00  0.00    -0.140 A  
HETATM   33  C   UNL     1      -8.435  12.210  67.235  1.00  0.00    -0.178 A  
HETATM   34  C   UNL     1      -9.996  10.816  68.429  1.00  0.00    -0.174 A  
HETATM   35  C   UNL     1      -9.584  12.091  68.026  1.00  0.00    -0.199 A  
BRANCH  35  36
HETATM   36  C   UNL     1     -10.373  13.330  68.397  1.00  0.00    -0.251 C  
BRANCH  36  37
HETATM   37  N   UNL     1     -11.559  13.522  67.548  1.00  0.00    -0.329 NA 
HETATM   38  C   UNL     1     -11.758  12.417  66.605  1.00  0.00    -0.372 C  
HETATM   39  C   UNL     1     -11.577  14.819  66.855  1.00  0.00    -0.327 C  
HETATM   40  C   UNL     1     -10.584  14.908  65.693  1.00  0.00    -0.358 C  
HETATM   41  C   UNL     1     -10.767  12.417  65.438  1.00  0.00    -0.317 C  
HETATM   42  C   UNL     1     -10.771  13.759  64.696  1.00  0.00    -0.427 C  
BRANCH  42  43
HETATM   43  C   UNL     1     -12.038  13.947  63.861  1.00  0.00    -0.345 C  
HETATM   44  N   UNL     1     -12.375  15.238  63.586  1.00  0.00    -0.865 N  
HETATM   45  H2  UNL     1     -11.818  16.027  63.915  1.00  0.00     0.000 HD 
HETATM   46  O   UNL     1     -12.758  13.035  63.470  1.00  0.00    -0.708 OA 
HETATM   47  H1  UNL     1     -13.220  15.364  63.028  1.00  0.00     0.000 HD 
ENDBRANCH  42  43
ENDBRANCH  36  37
ENDBRANCH  35  36
ENDBRANCH   4  30
TORSDOF 11
ENDMDL
MODEL      177
REMARK 921   NORMALIZED FREE ENERGY PREDICTED BY IDOCK:   -3.20 KCAL/MOL
REMARK 922        TOTAL FREE ENERGY PREDICTED BY IDOCK:   -6.88 KCAL/MOL
REMARK 923 INTER-LIGAND FREE ENERGY PREDICTED BY IDOCK:   -8.07 KCAL/MOL
REMARK 924 INTRA-LIGAND FREE ENERGY PREDICTED BY IDOCK:    1.18 KCAL/MOL
REMARK 927      BINDING AFFINITY PREDICTED BY RF-SCORE:    0.00 PKD
ROOT
HETATM    1  C   UNL     1     -14.071  14.412  72.724  1.00  0.00     0.034 C  
HETATM    2  N   UNL     1     -13.061  13.648  72.006  1.00  0.00    -0.385 N  
HETATM    3  O   UNL     1     -14.277  11.731  72.436  1.00  0.00     0.412 OA 
HETATM    4  C   UNL     1     -13.308  12.261  71.888  1.00  0.00    -0.329 C  
ENDROOT
BRANCH   2   5
HETATM    5  C   UNL     1     -12.049  14.336  71.203  1.00  0.00    -0.336 C  
BRANCH   5   6
HETATM    6  C   UNL     1     -12.144  15.844  70.918  1.00  0.00    -0.374 C  
BRANCH   6   7
HETATM    7  N   UNL     1     -11.940  16.129  69.477  1.00  0.00    -0.174 NA 
HETATM    8  C   UNL     1     -11.772  14.902  68.685  1.00  0.00    -0.330 C  
HETATM    9  C   UNL     1     -10.830  17.054  69.192  1.00  0.00    -0.164 C  
HETATM   10  C   UNL     1      -9.245  15.156  68.769  1.00  0.00    -0.200 C  
HETATM   11  C   UNL     1      -9.469  16.459  69.543  1.00  0.00    -0.006 C  
HETATM   12  C   UNL     1     -10.433  14.202  68.927  1.00  0.00    -0.229 C  
BRANCH  10  13
HETATM   13  O   UNL     1      -9.098  15.452  67.365  1.00  0.00    -0.190 OA 
BRANCH  13  14
HETATM   14  C   UNL     1      -9.036  14.361  66.555  1.00  0.00    -0.205 C  
HETATM   15  H   UNL     1      -9.131  13.263  68.309  1.00  0.00     0.000 HD 
HETATM   16  O   UNL     1      -9.115  14.396  65.337  1.00  0.00     0.446 OA 
HETATM   17  N   UNL     1      -8.861  13.248  67.326  1.00  0.00    -0.207 N  
BRANCH  17  18
HETATM   18  C   UNL     1      -8.308  12.078  66.767  1.00  0.00    -0.135 A  
HETATM   19  C   UNL     1      -8.957  11.376  65.727  1.00  0.00    -0.159 A  
HETATM   20  C   UNL     1      -6.440  10.530  66.775  1.00  0.00    -0.081 A  
HETATM   21  C   UNL     1      -8.279  10.237  65.237  1.00  0.00    -0.161 A  
HETATM   22  C   UNL     1      -7.037   9.827  65.740  1.00  0.00    -0.104 A  
HETATM   23  C   UNL     1      -7.078  11.648  67.296  1.00  0.00    -0.134 A  
BRANCH  19  24
HETATM   24  C   UNL     1     -10.266  11.768  65.119  1.00  0.00    -0.309 A  
HETATM   25  C   UNL     1     -10.457  11.875  63.729  1.00  0.00    -0.468 A  
HETATM   26  C   UNL     1     -11.685  12.262  63.177  1.00  0.00    -0.309 A  
HETATM   27  C   UNL     1     -12.752  12.589  64.005  1.00  0.00    -0.416 A  
HETATM   28  C   UNL     1     -12.597  12.506  65.383  1.00  0.00    -0.157 A  
HETATM   29  C   UNL     1     -11.378  12.086  65.928  1.00  0.00    -0.391 A  
ENDBRANCH  19  24
ENDBRANCH  17  18
ENDBRANCH  13  14
ENDBRANCH  10  13
ENDBRANCH   6   7
ENDBRANCH   5   6
ENDBRANCH   2   5
BRANCH   4  30
HETATM   30  C   UNL     1     -12.458  11.391  71.008  1.00  0.00    -0.486 A  
HETATM   31  C   UNL     1     -11.891  10.240  71.577  1.00  0.00    -0.290 A  
HETATM   32  C   UNL     1     -12.200  11.661  69.662  1.00  0.00    -0.271 A  
HETATM   33  C   UNL     1     -11.543  10.728  68.859  1.00  0.00    -0.361 A  
HETATM   34  C   UNL     1     -11.172   9.333  70.788  1.00  0.00    -0.351 A  
HETATM   35  C   UNL     1     -11.026   9.552  69.413  1.00  0.00    -0.192 A  
BRANCH  35  36
HETATM   36  C   UNL     1     -10.292   8.563  68.531  1.00  0.00    -0.198 C  
BRANCH  36  37
HETATM   37  N   UNL     1      -9.820   7.383  69.273  1.00  0.00    -0.166 NA 
HETATM   38  C   UNL     1      -8.497   7.589  69.870  1.00  0.00    -0.138 C  
HETATM   39  C   UNL     1      -9.857   6.143  68.483  1.00  0.00    -0.137 C  
HETATM   40  C   UNL     1      -8.759   6.059  67.419  1.00  0.00    -0.104 C  
HETATM   41  C   UNL     1      -7.351   7.564  68.854  1.00  0.00    -0.094 C  
HETATM   42  C   UNL     1      -7.366   6.277  68.021  1.00  0.00    -0.089 C  
BRANCH  42  43
HETATM   43  C   UNL     1      -6.916   5.063  68.835  1.00  0.00    -0.052 C  
HETATM   44  N   UNL     1      -5.840   4.389  68.340  1.00  0.00    -0.024 N  
HETATM   45  H2  UNL     1      -5.366   4.675  67.484  1.00  0.00     0.000 HD 
HETATM   46  O   UNL     1      -7.472   4.659  69.851  1.00  0.00    -0.053 OA 
HETATM   47  H1  UNL     1      -5.540   3.579  68.883  1.00  0.00     0.000 HD 
ENDBRANCH  42  43
ENDBRANCH  36  37
ENDBRANCH  35  36
ENDBRANCH   4  30
TORSDOF 11
ENDMDL
MODEL      178
REMARK 921   NORMALIZED FREE ENERGY PREDICTED BY IDOCK:   -3.19 KCAL/MOL
REMARK 922        TOTAL FREE ENERGY PREDICTED BY IDOCK:   -6.87 KCAL/MOL
REMARK 923 INTER-LIGAND FREE ENERGY PREDICTED BY IDOCK:   -8.45 KCAL/MOL
REMARK 924 INTRA-LIGAND FREE ENERGY PREDICTED BY IDOCK:    1.58 KCAL/MOL
REMARK 927      BINDING AFFINITY PREDICTED BY RF-SCORE:    0.00 PKD
ROOT
HETATM    1  C   UNL     1     -12.549  15.127  64.229  1.00  0.00     0.127 C  
HETATM    2  N   UNL     1     -11.363  15.103  65.073  1.00  0.00    -0.384 N  
HETATM    3  O   UNL     1     -11.037  17.339  64.593  1.00  0.00    -1.052 OA 
HETATM    4  C   UNL     1     -10.685  16.335  65.216  1.00  0.00    -0.332 C  
ENDROOT
BRANCH   2   5
HETATM    5  C   UNL     1     -11.105  13.959  65.948  1.00  0.00    -0.291 C  
BRANCH   5   6
HETATM    6  C   UNL     1     -11.413  14.017  67.453  1.00  0.00    -0.348 C  
BRANCH   6   7
HETATM    7  N   UNL     1     -12.030  12.752  67.922  1.00  0.00    -0.324 NA 
HETATM    8  C   UNL     1     -11.322  12.183  69.077  1.00  0.00    -0.276 C  
HETATM    9  C   UNL     1     -12.175  11.724  66.879  1.00  0.00     0.846 C  
HETATM   10  C   UNL     1     -10.027  10.616  67.551  1.00  0.00    -0.171 C  
HETATM   11  C   UNL     1     -10.830  11.199  66.384  1.00  0.00    -0.284 C  
HETATM   12  C   UNL     1      -9.952  11.601  68.722  1.00  0.00    -0.147 C  
BRANCH  10  13
HETATM   13  O   UNL     1     -10.670   9.416  68.023  1.00  0.00    -0.234 OA 
BRANCH  13  14
HETATM   14  C   UNL     1      -9.909   8.291  67.945  1.00  0.00    -0.169 C  
HETATM   15  H   UNL     1     -11.602   7.405  67.143  1.00  0.00     0.000 HD 
HETATM   16  O   UNL     1      -8.707   8.251  68.156  1.00  0.00    -0.135 OA 
HETATM   17  N   UNL     1     -10.711   7.237  67.611  1.00  0.00    -0.237 N  
BRANCH  17  18
HETATM   18  C   UNL     1     -10.311   5.919  67.911  1.00  0.00    -0.211 A  
HETATM   19  C   UNL     1     -10.213   5.461  69.243  1.00  0.00    -0.315 A  
HETATM   20  C   UNL     1      -9.660   3.759  67.018  1.00  0.00    -0.213 A  
HETATM   21  C   UNL     1      -9.831   4.109  69.401  1.00  0.00    -0.163 A  
HETATM   22  C   UNL     1      -9.572   3.268  68.311  1.00  0.00    -0.141 A  
HETATM   23  C   UNL     1     -10.019   5.086  66.817  1.00  0.00    -0.242 A  
BRANCH  19  24
HETATM   24  C   UNL     1     -10.501   6.288  70.455  1.00  0.00    -0.274 A  
HETATM   25  C   UNL     1     -11.798   6.719  70.790  1.00  0.00    -0.446 A  
HETATM   26  C   UNL     1     -12.047   7.510  71.920  1.00  0.00    -0.338 A  
HETATM   27  C   UNL     1     -10.997   7.924  72.729  1.00  0.00    -0.456 A  
HETATM   28  C   UNL     1      -9.701   7.527  72.423  1.00  0.00    -0.208 A  
HETATM   29  C   UNL     1      -9.462   6.709  71.313  1.00  0.00    -0.166 A  
ENDBRANCH  19  24
ENDBRANCH  17  18
ENDBRANCH  13  14
ENDBRANCH  10  13
ENDBRANCH   6   7
ENDBRANCH   5   6
ENDBRANCH   2   5
BRANCH   4  30
HETATM   30  C   UNL     1      -9.570  16.499  66.207  1.00  0.00    -0.333 A  
HETATM   31  C   UNL     1      -8.298  16.826  65.715  1.00  0.00     0.273 A  
HETATM   32  C   UNL     1      -9.727  16.347  67.588  1.00  0.00    -0.238 A  
HETATM   33  C   UNL     1      -8.694  16.678  68.465  1.00  0.00    -0.242 A  
HETATM   34  C   UNL     1      -7.239  17.094  66.591  1.00  0.00    -0.282 A  
HETATM   35  C   UNL     1      -7.440  17.059  67.976  1.00  0.00    -0.185 A  
BRANCH  35  36
HETATM   36  C   UNL     1      -6.322  17.388  68.944  1.00  0.00    -0.202 C  
BRANCH  36  37
HETATM   37  N   UNL     1      -5.339  16.300  69.065  1.00  0.00    -0.109 NA 
HETATM   38  C   UNL     1      -5.533  15.254  68.056  1.00  0.00    -0.134 C  
HETATM   39  C   UNL     1      -5.269  15.725  70.417  1.00  0.00    -0.155 C  
HETATM   40  C   UNL     1      -6.468  14.841  70.772  1.00  0.00     0.122 C  
HETATM   41  C   UNL     1      -6.745  14.358  68.323  1.00  0.00    -0.114 C  
HETATM   42  C   UNL     1      -6.692  13.742  69.726  1.00  0.00     0.027 C  
BRANCH  42  43
HETATM   43  C   UNL     1      -5.628  12.649  69.832  1.00  0.00    -0.111 C  
HETATM   44  N   UNL     1      -5.215  12.114  68.649  1.00  0.00    -0.050 N  
HETATM   45  H2  UNL     1      -5.590  12.423  67.752  1.00  0.00     0.000 HD 
HETATM   46  O   UNL     1      -5.170  12.219  70.885  1.00  0.00    -0.129 OA 
HETATM   47  H1  UNL     1      -4.505  11.385  68.719  1.00  0.00     0.000 HD 
ENDBRANCH  42  43
ENDBRANCH  36  37
ENDBRANCH  35  36
ENDBRANCH   4  30
TORSDOF 11
ENDMDL
MODEL      179
REMARK 921   NORMALIZED FREE ENERGY PREDICTED BY IDOCK:   -3.17 KCAL/MOL
REMARK 922        TOTAL FREE ENERGY PREDICTED BY IDOCK:   -6.84 KCAL/MOL
REMARK 923 INTER-LIGAND FREE ENERGY PREDICTED BY IDOCK:   -8.58 KCAL/MOL
REMARK 924 INTRA-LIGAND FREE ENERGY PREDICTED BY IDOCK:    1.74 KCAL/MOL
REMARK 927      BINDING AFFINITY PREDICTED BY RF-SCORE:    0.00 PKD
ROOT
HETATM    1  C   UNL     1     -14.122  13.926  72.653  1.00  0.00    -0.196 C  
HETATM    2  N   UNL     1     -13.291  13.337  71.613  1.00  0.00    -0.354 N  
HETATM    3  O   UNL     1     -13.272  15.381  70.537  1.00  0.00    -0.362 OA 
HETATM    4  C   UNL     1     -12.877  14.214  70.585  1.00  0.00    -0.290 C  
ENDROOT
BRANCH   2   5
HETATM    5  C   UNL     1     -12.681  12.021  71.814  1.00  0.00    -0.168 C  
BRANCH   5   6
HETATM    6  C   UNL     1     -13.541  10.766  72.035  1.00  0.00    -0.064 C  
BRANCH   6   7
HETATM    7  N   UNL     1     -13.259   9.736  71.007  1.00  0.00    -0.326 NA 
HETATM    8  C   UNL     1     -13.886   8.445  71.325  1.00  0.00    -0.153 C  
HETATM    9  C   UNL     1     -11.827   9.532  70.728  1.00  0.00    -0.277 C  
HETATM   10  C   UNL     1     -11.707   7.596  72.319  1.00  0.00    -0.324 C  
HETATM   11  C   UNL     1     -11.080   8.935  71.917  1.00  0.00    -0.442 C  
HETATM   12  C   UNL     1     -13.223   7.722  72.499  1.00  0.00     0.226 C  
BRANCH  10  13
HETATM   13  O   UNL     1     -11.463   6.623  71.284  1.00  0.00    -0.280 OA 
BRANCH  13  14
HETATM   14  C   UNL     1     -10.155   6.291  71.108  1.00  0.00    -0.183 C  
HETATM   15  H   UNL     1     -10.721   5.777  69.182  1.00  0.00     0.000 HD 
HETATM   16  O   UNL     1      -9.265   6.530  71.908  1.00  0.00    -0.149 OA 
HETATM   17  N   UNL     1     -10.022   5.645  69.912  1.00  0.00    -0.187 N  
BRANCH  17  18
HETATM   18  C   UNL     1      -8.919   4.797  69.684  1.00  0.00    -0.092 A  
HETATM   19  C   UNL     1      -8.048   4.994  68.588  1.00  0.00    -0.085 A  
HETATM   20  C   UNL     1      -7.644   2.892  70.478  1.00  0.00    -0.043 A  
HETATM   21  C   UNL     1      -6.966   4.091  68.494  1.00  0.00    -0.048 A  
HETATM   22  C   UNL     1      -6.757   3.067  69.427  1.00  0.00    -0.034 A  
HETATM   23  C   UNL     1      -8.730   3.749  70.602  1.00  0.00    -0.121 A  
BRANCH  19  24
HETATM   24  C   UNL     1      -8.188   6.080  67.570  1.00  0.00    -0.106 A  
HETATM   25  C   UNL     1      -8.473   7.414  67.915  1.00  0.00    -0.122 A  
HETATM   26  C   UNL     1      -8.620   8.415  66.946  1.00  0.00    -0.129 A  
HETATM   27  C   UNL     1      -8.521   8.102  65.596  1.00  0.00    -0.170 A  
HETATM   28  C   UNL     1      -8.252   6.792  65.217  1.00  0.00    -0.127 A  
HETATM   29  C   UNL     1      -8.073   5.803  66.191  1.00  0.00    -0.108 A  
ENDBRANCH  19  24
ENDBRANCH  17  18
ENDBRANCH  13  14
ENDBRANCH  10  13
ENDBRANCH   6   7
ENDBRANCH   5   6
ENDBRANCH   2   5
BRANCH   4  30
HETATM   30  C   UNL     1     -11.862  13.792  69.563  1.00  0.00    -0.394 A  
HETATM   31  C   UNL     1     -10.882  14.725  69.189  1.00  0.00    -0.267 A  
HETATM   32  C   UNL     1     -11.836  12.529  68.966  1.00  0.00    -0.344 A  
HETATM   33  C   UNL     1     -10.770  12.144  68.153  1.00  0.00    -0.238 A  
HETATM   34  C   UNL     1      -9.846  14.363  68.318  1.00  0.00    -0.229 A  
HETATM   35  C   UNL     1      -9.761  13.057  67.824  1.00  0.00    -0.218 A  
BRANCH  35  36
HETATM   36  C   UNL     1      -8.625  12.629  66.917  1.00  0.00    -0.151 C  
BRANCH  36  37
HETATM   37  N   UNL     1      -8.960  12.758  65.490  1.00  0.00     0.547 NA 
HETATM   38  C   UNL     1      -9.767  13.949  65.209  1.00  0.00    -0.012 C  
HETATM   39  C   UNL     1      -9.584  11.551  64.926  1.00  0.00    -0.186 C  
HETATM   40  C   UNL     1     -11.035  11.344  65.369  1.00  0.00    -0.249 C  
HETATM   41  C   UNL     1     -11.223  13.830  65.668  1.00  0.00    -0.306 C  
HETATM   42  C   UNL     1     -11.896  12.581  65.088  1.00  0.00    -0.450 C  
BRANCH  42  43
HETATM   43  C   UNL     1     -12.187  12.729  63.594  1.00  0.00    -0.512 C  
HETATM   44  N   UNL     1     -12.616  13.959  63.198  1.00  0.00    -0.976 N  
HETATM   45  H2  UNL     1     -12.736  14.731  63.854  1.00  0.00     0.000 HD 
HETATM   46  O   UNL     1     -12.091  11.824  62.772  1.00  0.00     0.123 OA 
HETATM   47  H1  UNL     1     -12.810  14.059  62.201  1.00  0.00     0.000 HD 
ENDBRANCH  42  43
ENDBRANCH  36  37
ENDBRANCH  35  36
ENDBRANCH   4  30
TORSDOF 11
ENDMDL
MODEL      180
REMARK 921   NORMALIZED FREE ENERGY PREDICTED BY IDOCK:   -3.17 KCAL/MOL
REMARK 922        TOTAL FREE ENERGY PREDICTED BY IDOCK:   -6.84 KCAL/MOL
REMARK 923 INTER-LIGAND FREE ENERGY PREDICTED BY IDOCK:   -7.92 KCAL/MOL
REMARK 924 INTRA-LIGAND FREE ENERGY PREDICTED BY IDOCK:    1.08 KCAL/MOL
REMARK 927      BINDING AFFINITY PREDICTED BY RF-SCORE:    0.00 PKD
ROOT
HETATM    1  C   UNL     1      -9.259  10.929  62.518  1.00  0.00    -0.304 C  
HETATM    2  N   UNL     1      -9.003  10.116  63.698  1.00  0.00    -0.224 N  
HETATM    3  O   UNL     1      -7.931   8.579  62.346  1.00  0.00    -0.132 OA 
HETATM    4  C   UNL     1      -8.261   8.933  63.480  1.00  0.00    -0.177 C  
ENDROOT
BRANCH   2   5
HETATM    5  C   UNL     1      -9.226  10.668  65.035  1.00  0.00    -0.211 C  
BRANCH   5   6
HETATM    6  C   UNL     1     -10.580  10.517  65.747  1.00  0.00    -0.066 C  
BRANCH   6   7
HETATM    7  N   UNL     1     -10.501  10.985  67.152  1.00  0.00    -0.220 NA 
HETATM    8  C   UNL     1     -11.462  12.060  67.435  1.00  0.00    -0.336 C  
HETATM    9  C   UNL     1      -9.155  11.405  67.577  1.00  0.00    -0.157 C  
HETATM   10  C   UNL     1      -9.656  13.812  67.081  1.00  0.00    -0.244 C  
HETATM   11  C   UNL     1      -8.676  12.658  66.849  1.00  0.00    -0.175 C  
HETATM   12  C   UNL     1     -11.097  13.391  66.775  1.00  0.00    -0.308 C  
BRANCH  10  13
HETATM   13  O   UNL     1      -9.599  14.220  68.463  1.00  0.00    -0.216 OA 
BRANCH  13  14
HETATM   14  C   UNL     1      -8.399  14.721  68.862  1.00  0.00    -0.163 C  
HETATM   15  H   UNL     1      -9.467  16.426  69.357  1.00  0.00     0.000 HD 
HETATM   16  O   UNL     1      -7.368  14.072  68.943  1.00  0.00    -0.121 OA 
HETATM   17  N   UNL     1      -8.545  16.051  69.135  1.00  0.00    -0.247 N  
BRANCH  17  18
HETATM   18  C   UNL     1      -7.426  16.908  69.111  1.00  0.00    -0.180 A  
HETATM   19  C   UNL     1      -7.416  18.092  68.341  1.00  0.00    -0.287 A  
HETATM   20  C   UNL     1      -5.194  17.330  69.963  1.00  0.00    -0.207 A  
HETATM   21  C   UNL     1      -6.243  18.874  68.431  1.00  0.00    -0.236 A  
HETATM   22  C   UNL     1      -5.156  18.510  69.237  1.00  0.00    -0.194 A  
HETATM   23  C   UNL     1      -6.323  16.524  69.894  1.00  0.00    -0.111 A  
BRANCH  19  24
HETATM   24  C   UNL     1      -8.547  18.562  67.482  1.00  0.00    -0.272 A  
HETATM   25  C   UNL     1      -9.001  19.893  67.484  1.00  0.00    -0.422 A  
HETATM   26  C   UNL     1     -10.075  20.311  66.687  1.00  0.00    -0.538 A  
HETATM   27  C   UNL     1     -10.750  19.398  65.887  1.00  0.00    -0.501 A  
HETATM   28  C   UNL     1     -10.336  18.072  65.867  1.00  0.00    -0.274 A  
HETATM   29  C   UNL     1      -9.242  17.667  66.640  1.00  0.00    -0.284 A  
ENDBRANCH  19  24
ENDBRANCH  17  18
ENDBRANCH  13  14
ENDBRANCH  10  13
ENDBRANCH   6   7
ENDBRANCH   5   6
ENDBRANCH   2   5
BRANCH   4  30
HETATM   30  C   UNL     1      -7.757   8.108  64.629  1.00  0.00    -0.118 A  
HETATM   31  C   UNL     1      -8.469   6.945  64.963  1.00  0.00     0.011 A  
HETATM   32  C   UNL     1      -6.624   8.430  65.381  1.00  0.00    -0.056 A  
HETATM   33  C   UNL     1      -6.114   7.536  66.323  1.00  0.00    -0.041 A  
HETATM   34  C   UNL     1      -7.996   6.078  65.956  1.00  0.00    -0.109 A  
HETATM   35  C   UNL     1      -6.793   6.349  66.617  1.00  0.00    -0.066 A  
BRANCH  35  36
HETATM   36  C   UNL     1      -6.238   5.403  67.663  1.00  0.00    -0.034 C  
BRANCH  36  37
HETATM   37  N   UNL     1      -5.835   6.096  68.897  1.00  0.00    -0.019 NA 
HETATM   38  C   UNL     1      -6.084   5.292  70.098  1.00  0.00    -0.018 C  
HETATM   39  C   UNL     1      -6.418   7.440  69.029  1.00  0.00    -0.040 C  
HETATM   40  C   UNL     1      -7.909   7.431  69.380  1.00  0.00    -0.122 C  
HETATM   41  C   UNL     1      -7.563   5.202  70.482  1.00  0.00    -0.071 C  
HETATM   42  C   UNL     1      -8.193   6.592  70.631  1.00  0.00    -0.124 C  
BRANCH  42  43
HETATM   43  C   UNL     1      -7.717   7.303  71.898  1.00  0.00    -0.090 C  
HETATM   44  N   UNL     1      -7.481   6.498  72.971  1.00  0.00    -0.089 N  
HETATM   45  H2  UNL     1      -7.614   5.488  72.932  1.00  0.00     0.000 HD 
HETATM   46  O   UNL     1      -7.575   8.517  72.006  1.00  0.00    -0.130 OA 
HETATM   47  H1  UNL     1      -7.163   6.973  73.817  1.00  0.00     0.000 HD 
ENDBRANCH  42  43
ENDBRANCH  36  37
ENDBRANCH  35  36
ENDBRANCH   4  30
TORSDOF 11
ENDMDL
MODEL      181
REMARK 921   NORMALIZED FREE ENERGY PREDICTED BY IDOCK:   -3.14 KCAL/MOL
REMARK 922        TOTAL FREE ENERGY PREDICTED BY IDOCK:   -6.80 KCAL/MOL
REMARK 923 INTER-LIGAND FREE ENERGY PREDICTED BY IDOCK:   -7.85 KCAL/MOL
REMARK 924 INTRA-LIGAND FREE ENERGY PREDICTED BY IDOCK:    1.05 KCAL/MOL
REMARK 927      BINDING AFFINITY PREDICTED BY RF-SCORE:    0.00 PKD
ROOT
HETATM    1  C   UNL     1      -5.227   7.324  71.184  1.00  0.00    -0.027 C  
HETATM    2  N   UNL     1      -6.076   7.669  70.054  1.00  0.00    -0.027 N  
HETATM    3  O   UNL     1      -7.613   8.546  71.539  1.00  0.00    -0.092 OA 
HETATM    4  C   UNL     1      -7.278   8.344  70.370  1.00  0.00    -0.037 C  
ENDROOT
BRANCH   2   5
HETATM    5  C   UNL     1      -5.551   7.600  68.690  1.00  0.00    -0.027 C  
BRANCH   5   6
HETATM    6  C   UNL     1      -5.231   6.253  68.022  1.00  0.00    -0.004 C  
BRANCH   6   7
HETATM    7  N   UNL     1      -6.388   5.329  68.098  1.00  0.00    -0.034 NA 
HETATM    8  C   UNL     1      -6.657   4.885  69.473  1.00  0.00    -0.040 C  
HETATM    9  C   UNL     1      -6.288   4.156  67.213  1.00  0.00    -0.040 C  
HETATM   10  C   UNL     1      -5.370   2.733  69.063  1.00  0.00    -0.013 C  
HETATM   11  C   UNL     1      -5.163   3.210  67.622  1.00  0.00    -0.012 C  
HETATM   12  C   UNL     1      -5.607   3.912  70.012  1.00  0.00    -0.016 C  
BRANCH  10  13
HETATM   13  O   UNL     1      -6.528   1.876  69.123  1.00  0.00    -0.028 OA 
BRANCH  13  14
HETATM   14  C   UNL     1      -7.205   1.911  70.302  1.00  0.00    -0.033 C  
HETATM   15  H   UNL     1      -8.820   2.532  69.163  1.00  0.00     0.000 HD 
HETATM   16  O   UNL     1      -6.774   1.483  71.361  1.00  0.00    -0.022 OA 
HETATM   17  N   UNL     1      -8.416   2.508  70.099  1.00  0.00    -0.042 N  
BRANCH  17  18
HETATM   18  C   UNL     1      -9.109   3.091  71.179  1.00  0.00    -0.112 A  
HETATM   19  C   UNL     1      -9.992   4.178  70.992  1.00  0.00    -0.206 A  
HETATM   20  C   UNL     1      -9.553   3.017  73.563  1.00  0.00    -0.129 A  
HETATM   21  C   UNL     1     -10.645   4.646  72.154  1.00  0.00    -0.175 A  
HETATM   22  C   UNL     1     -10.442   4.070  73.415  1.00  0.00    -0.251 A  
HETATM   23  C   UNL     1      -8.879   2.533  72.449  1.00  0.00    -0.096 A  
BRANCH  19  24
HETATM   24  C   UNL     1     -10.282   4.826  69.676  1.00  0.00    -0.200 A  
HETATM   25  C   UNL     1      -9.738   4.362  68.464  1.00  0.00    -0.181 A  
HETATM   26  C   UNL     1     -10.005   4.993  67.241  1.00  0.00    -0.220 A  
HETATM   27  C   UNL     1     -10.800   6.132  67.201  1.00  0.00    -0.442 A  
HETATM   28  C   UNL     1     -11.346   6.625  68.380  1.00  0.00    -0.110 A  
HETATM   29  C   UNL     1     -11.102   5.971  69.593  1.00  0.00    -0.474 A  
ENDBRANCH  19  24
ENDBRANCH  17  18
ENDBRANCH  13  14
ENDBRANCH  10  13
ENDBRANCH   6   7
ENDBRANCH   5   6
ENDBRANCH   2   5
BRANCH   4  30
HETATM   30  C   UNL     1      -8.146   8.932  69.297  1.00  0.00    -0.109 A  
HETATM   31  C   UNL     1      -7.776   8.712  67.961  1.00  0.00    -0.102 A  
HETATM   32  C   UNL     1      -9.298   9.682  69.550  1.00  0.00    -0.211 A  
HETATM   33  C   UNL     1     -10.151  10.055  68.511  1.00  0.00    -0.187 A  
HETATM   34  C   UNL     1      -8.596   9.144  66.911  1.00  0.00    -0.129 A  
HETATM   35  C   UNL     1      -9.811   9.786  67.181  1.00  0.00    -0.238 A  
BRANCH  35  36
HETATM   36  C   UNL     1     -10.736  10.224  66.064  1.00  0.00     0.053 C  
BRANCH  36  37
HETATM   37  N   UNL     1     -10.295  11.469  65.417  1.00  0.00    -0.262 NA 
HETATM   38  C   UNL     1     -10.123  12.567  66.374  1.00  0.00    -0.243 C  
HETATM   39  C   UNL     1     -11.149  11.877  64.291  1.00  0.00    -0.356 C  
HETATM   40  C   UNL     1     -12.505  12.443  64.722  1.00  0.00    -0.480 C  
HETATM   41  C   UNL     1     -11.442  13.152  66.884  1.00  0.00    -0.384 C  
HETATM   42  C   UNL     1     -12.349  13.590  65.728  1.00  0.00    -0.516 C  
BRANCH  42  43
HETATM   43  C   UNL     1     -11.836  14.859  65.047  1.00  0.00    -0.299 C  
HETATM   44  N   UNL     1     -12.177  15.003  63.736  1.00  0.00    -1.008 N  
HETATM   45  H2  UNL     1     -12.738  14.310  63.241  1.00  0.00     0.000 HD 
HETATM   46  O   UNL     1     -11.133  15.706  65.588  1.00  0.00    -0.288 OA 
HETATM   47  H1  UNL     1     -11.836  15.851  63.282  1.00  0.00     0.000 HD 
ENDBRANCH  42  43
ENDBRANCH  36  37
ENDBRANCH  35  36
ENDBRANCH   4  30
TORSDOF 11
ENDMDL
MODEL      182
REMARK 921   NORMALIZED FREE ENERGY PREDICTED BY IDOCK:   -3.00 KCAL/MOL
REMARK 922        TOTAL FREE ENERGY PREDICTED BY IDOCK:   -6.57 KCAL/MOL
REMARK 923 INTER-LIGAND FREE ENERGY PREDICTED BY IDOCK:   -5.88 KCAL/MOL
REMARK 924 INTRA-LIGAND FREE ENERGY PREDICTED BY IDOCK:   -0.69 KCAL/MOL
REMARK 927      BINDING AFFINITY PREDICTED BY RF-SCORE:    0.00 PKD
ROOT
HETATM    1  C   UNL     1     -13.390  13.202  70.574  1.00  0.00     0.667 C  
HETATM    2  N   UNL     1     -12.312  12.372  70.059  1.00  0.00    -0.149 N  
HETATM    3  O   UNL     1     -12.886  10.753  71.604  1.00  0.00    -0.421 OA 
HETATM    4  C   UNL     1     -12.180  11.096  70.653  1.00  0.00    -0.397 C  
ENDROOT
BRANCH   2   5
HETATM    5  C   UNL     1     -11.642  12.727  68.807  1.00  0.00    -0.312 C  
BRANCH   5   6
HETATM    6  C   UNL     1     -10.245  13.368  68.801  1.00  0.00    -0.119 C  
BRANCH   6   7
HETATM    7  N   UNL     1     -10.247  14.663  69.525  1.00  0.00    -0.092 NA 
HETATM    8  C   UNL     1     -11.422  15.482  69.196  1.00  0.00    -0.348 C  
HETATM    9  C   UNL     1      -9.024  15.462  69.342  1.00  0.00    -0.258 C  
HETATM   10  C   UNL     1     -10.069  16.796  67.493  1.00  0.00    -0.276 C  
HETATM   11  C   UNL     1      -8.857  15.956  67.908  1.00  0.00    -0.179 C  
HETATM   12  C   UNL     1     -11.382  16.060  67.780  1.00  0.00    -0.167 C  
BRANCH  10  13
HETATM   13  O   UNL     1     -10.079  18.027  68.243  1.00  0.00    -0.342 OA 
BRANCH  13  14
HETATM   14  C   UNL     1      -9.358  19.039  67.689  1.00  0.00    -0.298 C  
HETATM   15  H   UNL     1      -8.917  17.679  66.190  1.00  0.00     0.000 HD 
HETATM   16  O   UNL     1      -9.368  20.194  68.084  1.00  0.00    -0.287 OA 
HETATM   17  N   UNL     1      -8.627  18.543  66.648  1.00  0.00    -0.279 N  
BRANCH  17  18
HETATM   18  C   UNL     1      -7.473  19.220  66.204  1.00  0.00    -0.278 A  
HETATM   19  C   UNL     1      -6.203  18.964  66.766  1.00  0.00    -0.194 A  
HETATM   20  C   UNL     1      -6.563  20.842  64.647  1.00  0.00    -0.187 A  
HETATM   21  C   UNL     1      -5.126  19.690  66.208  1.00  0.00    -0.161 A  
HETATM   22  C   UNL     1      -5.298  20.602  65.159  1.00  0.00    -0.222 A  
HETATM   23  C   UNL     1      -7.652  20.160  65.174  1.00  0.00     0.262 A  
BRANCH  19  24
HETATM   24  C   UNL     1      -5.936  17.986  67.865  1.00  0.00    -0.162 A  
HETATM   25  C   UNL     1      -5.731  18.379  69.200  1.00  0.00    -0.215 A  
HETATM   26  C   UNL     1      -5.462  17.450  70.214  1.00  0.00    -0.244 A  
HETATM   27  C   UNL     1      -5.357  16.098  69.914  1.00  0.00    -0.144 A  
HETATM   28  C   UNL     1      -5.543  15.673  68.604  1.00  0.00    -0.099 A  
HETATM   29  C   UNL     1      -5.843  16.602  67.601  1.00  0.00    -0.166 A  
ENDBRANCH  19  24
ENDBRANCH  17  18
ENDBRANCH  13  14
ENDBRANCH  10  13
ENDBRANCH   6   7
ENDBRANCH   5   6
ENDBRANCH   2   5
BRANCH   4  30
HETATM   30  C   UNL     1     -11.244  10.067  70.089  1.00  0.00    -0.367 A  
HETATM   31  C   UNL     1     -11.728   9.230  69.071  1.00  0.00     0.791 A  
HETATM   32  C   UNL     1      -9.925   9.895  70.516  1.00  0.00    -0.164 A  
HETATM   33  C   UNL     1      -9.059   9.038  69.837  1.00  0.00    -0.176 A  
HETATM   34  C   UNL     1     -10.879   8.319  68.431  1.00  0.00     0.036 A  
HETATM   35  C   UNL     1      -9.526   8.244  68.784  1.00  0.00    -0.148 A  
BRANCH  35  36
HETATM   36  C   UNL     1      -8.578   7.298  68.076  1.00  0.00    -0.125 C  
BRANCH  36  37
HETATM   37  N   UNL     1      -8.684   7.381  66.611  1.00  0.00    -0.129 NA 
HETATM   38  C   UNL     1      -8.930   6.076  65.991  1.00  0.00    -0.147 C  
HETATM   39  C   UNL     1      -7.541   8.059  65.980  1.00  0.00    -0.085 C  
HETATM   40  C   UNL     1      -6.263   7.216  65.958  1.00  0.00    -0.040 C  
HETATM   41  C   UNL     1      -7.703   5.160  65.976  1.00  0.00    -0.091 C  
HETATM   42  C   UNL     1      -6.499   5.843  65.318  1.00  0.00    -0.042 C  
BRANCH  42  43
HETATM   43  C   UNL     1      -6.662   5.956  63.802  1.00  0.00    -0.037 C  
HETATM   44  N   UNL     1      -7.630   5.170  63.254  1.00  0.00    -0.060 N  
HETATM   45  H2  UNL     1      -8.208   4.546  63.819  1.00  0.00     0.000 HD 
HETATM   46  O   UNL     1      -5.972   6.664  63.076  1.00  0.00    -0.036 OA 
HETATM   47  H1  UNL     1      -7.740   5.245  62.243  1.00  0.00     0.000 HD 
ENDBRANCH  42  43
ENDBRANCH  36  37
ENDBRANCH  35  36
ENDBRANCH   4  30
TORSDOF 11
ENDMDL
MODEL      183
REMARK 921   NORMALIZED FREE ENERGY PREDICTED BY IDOCK:   -2.96 KCAL/MOL
REMARK 922        TOTAL FREE ENERGY PREDICTED BY IDOCK:   -6.50 KCAL/MOL
REMARK 923 INTER-LIGAND FREE ENERGY PREDICTED BY IDOCK:   -5.34 KCAL/MOL
REMARK 924 INTRA-LIGAND FREE ENERGY PREDICTED BY IDOCK:   -1.16 KCAL/MOL
REMARK 927      BINDING AFFINITY PREDICTED BY RF-SCORE:    0.00 PKD
ROOT
HETATM    1  C   UNL     1      -5.359   7.391  63.294  1.00  0.00    -0.034 C  
HETATM    2  N   UNL     1      -6.442   7.692  64.218  1.00  0.00    -0.048 N  
HETATM    3  O   UNL     1      -5.141   9.374  65.120  1.00  0.00    -0.039 OA 
HETATM    4  C   UNL     1      -6.221   8.780  65.093  1.00  0.00    -0.060 C  
ENDROOT
BRANCH   2   5
HETATM    5  C   UNL     1      -7.768   7.106  64.014  1.00  0.00    -0.123 C  
BRANCH   5   6
HETATM    6  C   UNL     1      -8.033   5.614  64.278  1.00  0.00    -0.125 C  
BRANCH   6   7
HETATM    7  N   UNL     1      -7.237   5.124  65.429  1.00  0.00    -0.067 NA 
HETATM    8  C   UNL     1      -7.288   3.661  65.558  1.00  0.00    -0.076 C  
HETATM    9  C   UNL     1      -7.589   5.744  66.718  1.00  0.00    -0.096 C  
HETATM   10  C   UNL     1      -9.121   3.848  67.309  1.00  0.00    -0.156 C  
HETATM   11  C   UNL     1      -8.993   5.369  67.183  1.00  0.00    -0.112 C  
HETATM   12  C   UNL     1      -8.646   3.141  66.035  1.00  0.00    -0.119 C  
BRANCH  10  13
HETATM   13  O   UNL     1      -8.302   3.387  68.402  1.00  0.00    -0.078 OA 
BRANCH  13  14
HETATM   14  C   UNL     1      -8.637   3.893  69.620  1.00  0.00    -0.069 C  
HETATM   15  H   UNL     1      -6.641   4.431  69.757  1.00  0.00     0.000 HD 
HETATM   16  O   UNL     1      -9.779   3.996  70.038  1.00  0.00    -0.199 OA 
HETATM   17  N   UNL     1      -7.495   4.244  70.281  1.00  0.00    -0.045 N  
BRANCH  17  18
HETATM   18  C   UNL     1      -7.493   4.347  71.688  1.00  0.00    -0.069 A  
HETATM   19  C   UNL     1      -7.394   5.598  72.338  1.00  0.00    -0.095 A  
HETATM   20  C   UNL     1      -7.645   3.155  73.795  1.00  0.00    -0.057 A  
HETATM   21  C   UNL     1      -7.435   5.561  73.749  1.00  0.00    -0.091 A  
HETATM   22  C   UNL     1      -7.572   4.365  74.467  1.00  0.00    -0.080 A  
HETATM   23  C   UNL     1      -7.596   3.144  72.407  1.00  0.00    -0.057 A  
BRANCH  19  24
HETATM   24  C   UNL     1      -7.276   6.915  71.641  1.00  0.00    -0.079 A  
HETATM   25  C   UNL     1      -7.409   7.054  70.247  1.00  0.00    -0.084 A  
HETATM   26  C   UNL     1      -7.276   8.294  69.609  1.00  0.00    -0.061 A  
HETATM   27  C   UNL     1      -6.970   9.431  70.347  1.00  0.00    -0.100 A  
HETATM   28  C   UNL     1      -6.820   9.331  71.724  1.00  0.00     0.162 A  
HETATM   29  C   UNL     1      -6.987   8.095  72.360  1.00  0.00    -0.098 A  
ENDBRANCH  19  24
ENDBRANCH  17  18
ENDBRANCH  13  14
ENDBRANCH  10  13
ENDBRANCH   6   7
ENDBRANCH   5   6
ENDBRANCH   2   5
BRANCH   4  30
HETATM   30  C   UNL     1      -7.323   9.322  65.956  1.00  0.00    -0.095 A  
HETATM   31  C   UNL     1      -7.234  10.660  66.368  1.00  0.00    -0.134 A  
HETATM   32  C   UNL     1      -8.428   8.573  66.369  1.00  0.00    -0.122 A  
HETATM   33  C   UNL     1      -9.498   9.181  67.026  1.00  0.00    -0.201 A  
HETATM   34  C   UNL     1      -8.277  11.257  67.087  1.00  0.00    -0.149 A  
HETATM   35  C   UNL     1      -9.435  10.531  67.389  1.00  0.00    -0.172 A  
BRANCH  35  36
HETATM   36  C   UNL     1     -10.595  11.168  68.127  1.00  0.00    -0.193 C  
BRANCH  36  37
HETATM   37  N   UNL     1     -11.594  10.183  68.570  1.00  0.00    -0.103 NA 
HETATM   38  C   UNL     1     -12.673  10.792  69.353  1.00  0.00     0.435 C  
HETATM   39  C   UNL     1     -11.007   9.036  69.281  1.00  0.00    -0.032 C  
HETATM   40  C   UNL     1     -10.533   9.368  70.698  1.00  0.00    -0.354 C  
HETATM   41  C   UNL     1     -12.256  11.193  70.770  1.00  0.00    -0.484 C  
HETATM   42  C   UNL     1     -11.645  10.012  71.534  1.00  0.00    -0.300 C  
BRANCH  42  43
HETATM   43  C   UNL     1     -12.703   8.984  71.938  1.00  0.00    -0.382 C  
HETATM   44  N   UNL     1     -12.223   7.778  72.351  1.00  0.00    -0.513 N  
HETATM   45  H2  UNL     1     -11.225   7.574  72.388  1.00  0.00     0.000 HD 
HETATM   46  O   UNL     1     -13.914   9.169  71.879  1.00  0.00    -0.386 OA 
HETATM   47  H1  UNL     1     -12.929   7.092  72.621  1.00  0.00     0.000 HD 
ENDBRANCH  42  43
ENDBRANCH  36  37
ENDBRANCH  35  36
ENDBRANCH   4  30
TORSDOF 11
ENDMDL
MODEL      184
REMARK 921   NORMALIZED FREE ENERGY PREDICTED BY IDOCK:   -2.81 KCAL/MOL
REMARK 922        TOTAL FREE ENERGY PREDICTED BY IDOCK:   -6.25 KCAL/MOL
REMARK 923 INTER-LIGAND FREE ENERGY PREDICTED BY IDOCK:   -6.39 KCAL/MOL
REMARK 924 INTRA-LIGAND FREE ENERGY PREDICTED BY IDOCK:    0.14 KCAL/MOL
REMARK 927      BINDING AFFINITY PREDICTED BY RF-SCORE:    0.00 PKD
ROOT
HETATM    1  C   UNL     1      -7.843   9.076  71.731  1.00  0.00     0.152 C  
HETATM    2  N   UNL     1      -7.683   8.959  70.290  1.00  0.00    -0.079 N  
HETATM    3  O   UNL     1      -7.685   6.661  70.524  1.00  0.00    -0.100 OA 
HETATM    4  C   UNL     1      -7.658   7.641  69.778  1.00  0.00    -0.093 C  
ENDROOT
BRANCH   2   5
HETATM    5  C   UNL     1      -7.864  10.131  69.431  1.00  0.00    -0.150 C  
BRANCH   5   6
HETATM    6  C   UNL     1      -6.691  10.729  68.637  1.00  0.00    -0.058 C  
BRANCH   6   7
HETATM    7  N   UNL     1      -7.144  11.252  67.325  1.00  0.00    -0.105 NA 
HETATM    8  C   UNL     1      -6.820  12.675  67.151  1.00  0.00    -0.020 C  
HETATM    9  C   UNL     1      -8.574  11.035  67.047  1.00  0.00    -0.140 C  
HETATM   10  C   UNL     1      -9.169  13.329  67.868  1.00  0.00    -0.213 C  
HETATM   11  C   UNL     1      -9.479  11.833  67.981  1.00  0.00    -0.188 C  
HETATM   12  C   UNL     1      -7.669  13.601  68.024  1.00  0.00    -0.143 C  
BRANCH  10  13
HETATM   13  O   UNL     1      -9.572  13.806  66.569  1.00  0.00    -0.274 OA 
BRANCH  13  14
HETATM   14  C   UNL     1     -10.221  15.002  66.574  1.00  0.00    -0.275 C  
HETATM   15  H   UNL     1      -8.663  15.660  65.376  1.00  0.00     0.000 HD 
HETATM   16  O   UNL     1     -11.339  15.183  67.029  1.00  0.00    -0.336 OA 
HETATM   17  N   UNL     1      -9.412  15.945  66.008  1.00  0.00    -0.336 N  
BRANCH  17  18
HETATM   18  C   UNL     1      -9.608  17.312  66.292  1.00  0.00    -0.248 A  
HETATM   19  C   UNL     1      -8.710  18.034  67.111  1.00  0.00    -0.247 A  
HETATM   20  C   UNL     1     -10.987  19.271  65.912  1.00  0.00    -0.197 A  
HETATM   21  C   UNL     1      -9.008  19.403  67.290  1.00  0.00    -0.351 A  
HETATM   22  C   UNL     1     -10.117  20.016  66.692  1.00  0.00    -0.607 A  
HETATM   23  C   UNL     1     -10.740  17.918  65.719  1.00  0.00    -0.092 A  
BRANCH  19  24
HETATM   24  C   UNL     1      -7.492  17.457  67.757  1.00  0.00    -0.195 A  
HETATM   25  C   UNL     1      -7.373  17.300  69.150  1.00  0.00    -0.157 A  
HETATM   26  C   UNL     1      -6.215  16.776  69.741  1.00  0.00    -0.206 A  
HETATM   27  C   UNL     1      -5.126  16.425  68.954  1.00  0.00    -0.109 A  
HETATM   28  C   UNL     1      -5.203  16.578  67.575  1.00  0.00    -0.154 A  
HETATM   29  C   UNL     1      -6.374  17.070  66.988  1.00  0.00    -0.231 A  
ENDBRANCH  19  24
ENDBRANCH  17  18
ENDBRANCH  13  14
ENDBRANCH  10  13
ENDBRANCH   6   7
ENDBRANCH   5   6
ENDBRANCH   2   5
BRANCH   4  30
HETATM   30  C   UNL     1      -7.698   7.379  68.300  1.00  0.00    -0.120 A  
HETATM   31  C   UNL     1      -8.955   7.208  67.699  1.00  0.00    -0.125 A  
HETATM   32  C   UNL     1      -6.561   7.298  67.492  1.00  0.00    -0.057 A  
HETATM   33  C   UNL     1      -6.675   7.221  66.104  1.00  0.00    -0.053 A  
HETATM   34  C   UNL     1      -9.070   7.062  66.311  1.00  0.00    -0.178 A  
HETATM   35  C   UNL     1      -7.931   7.106  65.499  1.00  0.00    -0.122 A  
BRANCH  35  36
HETATM   36  C   UNL     1      -8.034   6.996  63.991  1.00  0.00    -0.075 C  
BRANCH  36  37
HETATM   37  N   UNL     1      -8.384   5.638  63.545  1.00  0.00    -0.092 NA 
HETATM   38  C   UNL     1      -8.666   4.735  64.665  1.00  0.00    -0.153 C  
HETATM   39  C   UNL     1      -7.395   5.052  62.628  1.00  0.00    -0.043 C  
HETATM   40  C   UNL     1      -6.099   4.617  63.318  1.00  0.00    -0.018 C  
HETATM   41  C   UNL     1      -7.416   4.295  65.431  1.00  0.00    -0.077 C  
HETATM   42  C   UNL     1      -6.371   3.676  64.496  1.00  0.00    -0.024 C  
BRANCH  42  43
HETATM   43  C   UNL     1      -6.788   2.286  64.013  1.00  0.00    -0.035 C  
HETATM   44  N   UNL     1      -7.418   1.507  64.936  1.00  0.00    -0.056 N  
HETATM   45  H2  UNL     1      -7.599   1.829  65.887  1.00  0.00     0.000 HD 
HETATM   46  O   UNL     1      -6.563   1.840  62.893  1.00  0.00    -0.013 OA 
HETATM   47  H1  UNL     1      -7.697   0.580  64.614  1.00  0.00     0.000 HD 
ENDBRANCH  42  43
ENDBRANCH  36  37
ENDBRANCH  35  36
ENDBRANCH   4  30
TORSDOF 11
ENDMDL
MODEL      185
REMARK 921   NORMALIZED FREE ENERGY PREDICTED BY IDOCK:   -2.81 KCAL/MOL
REMARK 922        TOTAL FREE ENERGY PREDICTED BY IDOCK:   -6.25 KCAL/MOL
REMARK 923 INTER-LIGAND FREE ENERGY PREDICTED BY IDOCK:   -6.89 KCAL/MOL
REMARK 924 INTRA-LIGAND FREE ENERGY PREDICTED BY IDOCK:    0.64 KCAL/MOL
REMARK 927      BINDING AFFINITY PREDICTED BY RF-SCORE:    0.00 PKD
ROOT
HETATM    1  C   UNL     1     -11.151   9.450  66.584  1.00  0.00     0.596 C  
HETATM    2  N   UNL     1     -10.713  10.819  66.358  1.00  0.00    -0.205 N  
HETATM    3  O   UNL     1     -12.275  11.522  67.908  1.00  0.00    -0.586 OA 
HETATM    4  C   UNL     1     -11.350  11.806  67.145  1.00  0.00    -0.322 C  
ENDROOT
BRANCH   2   5
HETATM    5  C   UNL     1      -9.485  11.086  65.607  1.00  0.00    -0.217 C  
BRANCH   5   6
HETATM    6  C   UNL     1      -8.349  10.052  65.538  1.00  0.00    -0.148 C  
BRANCH   6   7
HETATM    7  N   UNL     1      -7.430  10.190  66.694  1.00  0.00    -0.103 NA 
HETATM    8  C   UNL     1      -6.172   9.457  66.494  1.00  0.00    -0.065 C  
HETATM    9  C   UNL     1      -8.021   9.808  67.988  1.00  0.00    -0.097 C  
HETATM   10  C   UNL     1      -7.064   7.495  67.840  1.00  0.00    -0.085 C  
HETATM   11  C   UNL     1      -8.335   8.317  68.071  1.00  0.00    -0.129 C  
HETATM   12  C   UNL     1      -6.337   7.937  66.567  1.00  0.00    -0.050 C  
BRANCH  10  13
HETATM   13  O   UNL     1      -6.165   7.680  68.951  1.00  0.00    -0.034 OA 
BRANCH  13  14
HETATM   14  C   UNL     1      -6.229   6.714  69.907  1.00  0.00    -0.038 C  
HETATM   15  H   UNL     1      -7.044   5.530  68.414  1.00  0.00     0.000 HD 
HETATM   16  O   UNL     1      -5.727   6.801  71.016  1.00  0.00    -0.027 OA 
HETATM   17  N   UNL     1      -6.950   5.661  69.421  1.00  0.00    -0.061 N  
BRANCH  17  18
HETATM   18  C   UNL     1      -7.565   4.753  70.308  1.00  0.00    -0.057 A  
HETATM   19  C   UNL     1      -8.102   3.526  69.857  1.00  0.00    -0.060 A  
HETATM   20  C   UNL     1      -8.163   4.278  72.610  1.00  0.00    -0.097 A  
HETATM   21  C   UNL     1      -8.662   2.697  70.854  1.00  0.00    -0.121 A  
HETATM   22  C   UNL     1      -8.681   3.057  72.208  1.00  0.00    -0.097 A  
HETATM   23  C   UNL     1      -7.614   5.131  71.661  1.00  0.00    -0.101 A  
BRANCH  19  24
HETATM   24  C   UNL     1      -8.092   3.060  68.436  1.00  0.00    -0.074 A  
HETATM   25  C   UNL     1      -9.064   2.186  67.916  1.00  0.00    -0.218 A  
HETATM   26  C   UNL     1      -9.028   1.744  66.587  1.00  0.00    -0.110 A  
HETATM   27  C   UNL     1      -7.995   2.138  65.746  1.00  0.00    -0.082 A  
HETATM   28  C   UNL     1      -7.010   2.991  66.229  1.00  0.00    -0.053 A  
HETATM   29  C   UNL     1      -7.069   3.456  67.547  1.00  0.00    -0.058 A  
ENDBRANCH  19  24
ENDBRANCH  17  18
ENDBRANCH  13  14
ENDBRANCH  10  13
ENDBRANCH   6   7
ENDBRANCH   5   6
ENDBRANCH   2   5
BRANCH   4  30
HETATM   30  C   UNL     1     -10.861  13.225  67.158  1.00  0.00    -0.268 A  
HETATM   31  C   UNL     1     -10.455  13.791  65.939  1.00  0.00    -0.300 A  
HETATM   32  C   UNL     1     -10.787  14.012  68.311  1.00  0.00    -0.268 A  
HETATM   33  C   UNL     1     -10.485  15.372  68.229  1.00  0.00    -0.241 A  
HETATM   34  C   UNL     1     -10.085  15.139  65.865  1.00  0.00    -0.349 A  
HETATM   35  C   UNL     1     -10.135  15.951  67.004  1.00  0.00    -0.268 A  
BRANCH  35  36
HETATM   36  C   UNL     1      -9.783  17.423  66.940  1.00  0.00    -0.286 C  
BRANCH  36  37
HETATM   37  N   UNL     1      -8.339  17.654  66.774  1.00  0.00    -0.240 NA 
HETATM   38  C   UNL     1      -7.594  17.460  68.022  1.00  0.00    -0.206 C  
HETATM   39  C   UNL     1      -8.022  18.954  66.165  1.00  0.00    -0.235 C  
HETATM   40  C   UNL     1      -8.223  20.142  67.110  1.00  0.00    -0.378 C  
HETATM   41  C   UNL     1      -7.785  18.591  69.036  1.00  0.00    -0.175 C  
HETATM   42  C   UNL     1      -7.456  19.958  68.425  1.00  0.00    -0.312 C  
BRANCH  42  43
HETATM   43  C   UNL     1      -5.952  20.146  68.222  1.00  0.00    -0.254 C  
HETATM   44  N   UNL     1      -5.156  19.223  68.831  1.00  0.00    -0.189 N  
HETATM   45  H2  UNL     1      -5.538  18.457  69.386  1.00  0.00     0.000 HD 
HETATM   46  O   UNL     1      -5.442  21.067  67.593  1.00  0.00    -0.227 OA 
HETATM   47  H1  UNL     1      -4.153  19.348  68.696  1.00  0.00     0.000 HD 
ENDBRANCH  42  43
ENDBRANCH  36  37
ENDBRANCH  35  36
ENDBRANCH   4  30
TORSDOF 11
ENDMDL
MODEL      186
REMARK 921   NORMALIZED FREE ENERGY PREDICTED BY IDOCK:   -2.71 KCAL/MOL
REMARK 922        TOTAL FREE ENERGY PREDICTED BY IDOCK:   -6.08 KCAL/MOL
REMARK 923 INTER-LIGAND FREE ENERGY PREDICTED BY IDOCK:   -6.60 KCAL/MOL
REMARK 924 INTRA-LIGAND FREE ENERGY PREDICTED BY IDOCK:    0.52 KCAL/MOL
REMARK 927      BINDING AFFINITY PREDICTED BY RF-SCORE:    0.00 PKD
ROOT
HETATM    1  C   UNL     1     -12.403  13.951  63.363  1.00  0.00     0.114 C  
HETATM    2  N   UNL     1     -11.553  13.094  64.175  1.00  0.00    -0.388 N  
HETATM    3  O   UNL     1     -12.260  11.287  62.921  1.00  0.00     0.209 OA 
HETATM    4  C   UNL     1     -11.534  11.727  63.815  1.00  0.00    -0.420 C  
ENDROOT
BRANCH   2   5
HETATM    5  C   UNL     1     -10.561  13.681  65.077  1.00  0.00    -0.383 C  
BRANCH   5   6
HETATM    6  C   UNL     1      -9.637  14.821  64.618  1.00  0.00     1.329 C  
BRANCH   6   7
HETATM    7  N   UNL     1      -9.134  15.601  65.774  1.00  0.00    -0.242 NA 
HETATM    8  C   UNL     1      -9.196  14.838  67.029  1.00  0.00    -0.233 C  
HETATM    9  C   UNL     1      -9.791  16.906  65.958  1.00  0.00    -0.258 C  
HETATM   10  C   UNL     1     -11.396  15.956  67.636  1.00  0.00    -0.151 C  
HETATM   11  C   UNL     1     -11.261  16.771  66.345  1.00  0.00     0.509 C  
HETATM   12  C   UNL     1     -10.622  14.637  67.546  1.00  0.00    -0.257 C  
BRANCH  10  13
HETATM   13  O   UNL     1     -10.857  16.713  68.738  1.00  0.00    -0.314 OA 
BRANCH  13  14
HETATM   14  C   UNL     1     -10.755  16.025  69.908  1.00  0.00    -0.334 C  
HETATM   15  H   UNL     1     -12.821  15.894  69.814  1.00  0.00     0.000 HD 
HETATM   16  O   UNL     1      -9.704  15.649  70.402  1.00  0.00     0.084 OA 
HETATM   17  N   UNL     1     -12.006  15.848  70.426  1.00  0.00    -0.348 N  
BRANCH  17  18
HETATM   18  C   UNL     1     -12.175  15.601  71.803  1.00  0.00    -0.421 A  
HETATM   19  C   UNL     1     -12.385  14.296  72.301  1.00  0.00    -0.216 A  
HETATM   20  C   UNL     1     -12.235  16.563  74.030  1.00  0.00    -0.472 A  
HETATM   21  C   UNL     1     -12.508  14.186  73.705  1.00  0.00     0.537 A  
HETATM   22  C   UNL     1     -12.421  15.295  74.556  1.00  0.00    -0.564 A  
HETATM   23  C   UNL     1     -12.121  16.719  72.654  1.00  0.00     0.006 A  
BRANCH  19  24
HETATM   24  C   UNL     1     -12.459  13.062  71.460  1.00  0.00    -0.174 A  
HETATM   25  C   UNL     1     -12.937  11.834  71.952  1.00  0.00    -0.435 A  
HETATM   26  C   UNL     1     -12.982  10.682  71.154  1.00  0.00    -0.483 A  
HETATM   27  C   UNL     1     -12.514  10.719  69.847  1.00  0.00    -0.277 A  
HETATM   28  C   UNL     1     -12.024  11.912  69.330  1.00  0.00    -0.350 A  
HETATM   29  C   UNL     1     -12.013  13.066  70.121  1.00  0.00    -0.374 A  
ENDBRANCH  19  24
ENDBRANCH  17  18
ENDBRANCH  13  14
ENDBRANCH  10  13
ENDBRANCH   6   7
ENDBRANCH   5   6
ENDBRANCH   2   5
BRANCH   4  30
HETATM   30  C   UNL     1     -10.556  10.772  64.435  1.00  0.00    -0.246 A  
HETATM   31  C   UNL     1      -9.520  10.278  63.628  1.00  0.00    -0.348 A  
HETATM   32  C   UNL     1     -10.618  10.349  65.766  1.00  0.00    -0.100 A  
HETATM   33  C   UNL     1      -9.585   9.596  66.325  1.00  0.00    -0.281 A  
HETATM   34  C   UNL     1      -8.517   9.465  64.170  1.00  0.00    -0.199 A  
HETATM   35  C   UNL     1      -8.521   9.149  65.534  1.00  0.00    -0.160 A  
BRANCH  35  36
HETATM   36  C   UNL     1      -7.423   8.309  66.152  1.00  0.00    -0.081 C  
BRANCH  36  37
HETATM   37  N   UNL     1      -7.947   7.182  66.939  1.00  0.00    -0.113 NA 
HETATM   38  C   UNL     1      -6.891   6.258  67.366  1.00  0.00    -0.063 C  
HETATM   39  C   UNL     1      -9.041   6.462  66.270  1.00  0.00    -0.151 C  
HETATM   40  C   UNL     1      -8.578   5.586  65.103  1.00  0.00    -0.141 C  
HETATM   41  C   UNL     1      -6.347   5.380  66.237  1.00  0.00    -0.039 C  
HETATM   42  C   UNL     1      -7.470   4.614  65.527  1.00  0.00    -0.081 C  
BRANCH  42  43
HETATM   43  C   UNL     1      -8.024   3.481  66.390  1.00  0.00    -0.088 C  
HETATM   44  N   UNL     1      -7.114   2.551  66.795  1.00  0.00    -0.048 N  
HETATM   45  H2  UNL     1      -6.128   2.608  66.539  1.00  0.00     0.000 HD 
HETATM   46  O   UNL     1      -9.204   3.349  66.697  1.00  0.00    -0.155 OA 
HETATM   47  H1  UNL     1      -7.483   1.794  67.371  1.00  0.00     0.000 HD 
ENDBRANCH  42  43
ENDBRANCH  36  37
ENDBRANCH  35  36
ENDBRANCH   4  30
TORSDOF 11
ENDMDL
MODEL      187
REMARK 921   NORMALIZED FREE ENERGY PREDICTED BY IDOCK:   -2.69 KCAL/MOL
REMARK 922        TOTAL FREE ENERGY PREDICTED BY IDOCK:   -6.05 KCAL/MOL
REMARK 923 INTER-LIGAND FREE ENERGY PREDICTED BY IDOCK:   -6.86 KCAL/MOL
REMARK 924 INTRA-LIGAND FREE ENERGY PREDICTED BY IDOCK:    0.81 KCAL/MOL
REMARK 927      BINDING AFFINITY PREDICTED BY RF-SCORE:    0.00 PKD
ROOT
HETATM    1  C   UNL     1     -11.017   9.908  69.955  1.00  0.00    -0.281 C  
HETATM    2  N   UNL     1     -10.369  10.792  68.997  1.00  0.00    -0.207 N  
HETATM    3  O   UNL     1     -11.793  12.483  69.667  1.00  0.00    -0.309 OA 
HETATM    4  C   UNL     1     -10.838  12.125  68.975  1.00  0.00    -0.162 C  
ENDROOT
BRANCH   2   5
HETATM    5  C   UNL     1      -9.117  10.390  68.353  1.00  0.00    -0.147 C  
BRANCH   5   6
HETATM    6  C   UNL     1      -7.780  10.427  69.110  1.00  0.00    -0.126 C  
BRANCH   6   7
HETATM    7  N   UNL     1      -7.180   9.074  69.205  1.00  0.00    -0.066 NA 
HETATM    8  C   UNL     1      -5.838   9.017  68.609  1.00  0.00    -0.041 C  
HETATM    9  C   UNL     1      -8.014   7.999  68.640  1.00  0.00    -0.123 C  
HETATM   10  C   UNL     1      -6.802   8.095  66.446  1.00  0.00    -0.066 C  
HETATM   11  C   UNL     1      -8.174   8.117  67.127  1.00  0.00    -0.120 C  
HETATM   12  C   UNL     1      -5.848   9.111  67.082  1.00  0.00    -0.046 C  
BRANCH  10  13
HETATM   13  O   UNL     1      -6.216   6.786  66.591  1.00  0.00    -0.040 OA 
BRANCH  13  14
HETATM   14  C   UNL     1      -6.939   5.772  66.044  1.00  0.00    -0.059 C  
HETATM   15  H   UNL     1      -5.298   4.588  66.489  1.00  0.00     0.000 HD 
HETATM   16  O   UNL     1      -8.113   5.854  65.720  1.00  0.00    -0.110 OA 
HETATM   17  N   UNL     1      -6.134   4.677  65.911  1.00  0.00    -0.026 N  
BRANCH  17  18
HETATM   18  C   UNL     1      -6.454   3.670  64.978  1.00  0.00    -0.035 A  
HETATM   19  C   UNL     1      -7.177   2.516  65.354  1.00  0.00    -0.062 A  
HETATM   20  C   UNL     1      -6.328   2.954  62.664  1.00  0.00    -0.014 A  
HETATM   21  C   UNL     1      -7.458   1.601  64.315  1.00  0.00    -0.058 A  
HETATM   22  C   UNL     1      -7.053   1.819  62.991  1.00  0.00    -0.028 A  
HETATM   23  C   UNL     1      -6.019   3.874  63.657  1.00  0.00    -0.014 A  
BRANCH  19  24
HETATM   24  C   UNL     1      -7.667   2.227  66.737  1.00  0.00    -0.070 A  
HETATM   25  C   UNL     1      -6.802   1.906  67.799  1.00  0.00    -0.035 A  
HETATM   26  C   UNL     1      -7.280   1.619  69.084  1.00  0.00    -0.036 A  
HETATM   27  C   UNL     1      -8.646   1.611  69.337  1.00  0.00    -0.092 A  
HETATM   28  C   UNL     1      -9.531   1.913  68.310  1.00  0.00    -0.230 A  
HETATM   29  C   UNL     1      -9.047   2.231  67.036  1.00  0.00    -0.132 A  
ENDBRANCH  19  24
ENDBRANCH  17  18
ENDBRANCH  13  14
ENDBRANCH  10  13
ENDBRANCH   6   7
ENDBRANCH   5   6
ENDBRANCH   2   5
BRANCH   4  30
HETATM   30  C   UNL     1     -10.131  13.186  68.183  1.00  0.00    -0.237 A  
HETATM   31  C   UNL     1     -10.652  13.522  66.924  1.00  0.00    -0.270 A  
HETATM   32  C   UNL     1      -8.987  13.857  68.626  1.00  0.00    -0.079 A  
HETATM   33  C   UNL     1      -8.479  14.947  67.919  1.00  0.00    -0.154 A  
HETATM   34  C   UNL     1     -10.102  14.572  66.179  1.00  0.00    -0.319 A  
HETATM   35  C   UNL     1      -9.034  15.318  66.689  1.00  0.00    -0.324 A  
BRANCH  35  36
HETATM   36  C   UNL     1      -8.451  16.487  65.922  1.00  0.00     0.019 C  
BRANCH  36  37
HETATM   37  N   UNL     1      -9.316  17.676  65.958  1.00  0.00    -0.519 NA 
HETATM   38  C   UNL     1      -8.554  18.919  66.113  1.00  0.00    -0.172 C  
HETATM   39  C   UNL     1     -10.391  17.587  66.958  1.00  0.00    -0.324 C  
HETATM   40  C   UNL     1      -9.904  17.752  68.401  1.00  0.00    -0.347 C  
HETATM   41  C   UNL     1      -7.996  19.128  67.523  1.00  0.00    -0.284 C  
HETATM   42  C   UNL     1      -9.099  19.044  68.584  1.00  0.00    -0.401 C  
BRANCH  42  43
HETATM   43  C   UNL     1     -10.009  20.273  68.563  1.00  0.00    -0.146 C  
HETATM   44  N   UNL     1     -10.635  20.562  69.738  1.00  0.00    -0.384 N  
HETATM   45  H2  UNL     1     -10.506  19.996  70.576  1.00  0.00     0.000 HD 
HETATM   46  O   UNL     1     -10.223  20.966  67.574  1.00  0.00    -0.185 OA 
HETATM   47  H1  UNL     1     -11.242  21.382  69.724  1.00  0.00     0.000 HD 
ENDBRANCH  42  43
ENDBRANCH  36  37
ENDBRANCH  35  36
ENDBRANCH   4  30
TORSDOF 11
ENDMDL
MODEL      188
REMARK 921   NORMALIZED FREE ENERGY PREDICTED BY IDOCK:   -2.63 KCAL/MOL
REMARK 922        TOTAL FREE ENERGY PREDICTED BY IDOCK:   -5.95 KCAL/MOL
REMARK 923 INTER-LIGAND FREE ENERGY PREDICTED BY IDOCK:   -8.69 KCAL/MOL
REMARK 924 INTRA-LIGAND FREE ENERGY PREDICTED BY IDOCK:    2.74 KCAL/MOL
REMARK 927      BINDING AFFINITY PREDICTED BY RF-SCORE:    0.00 PKD
ROOT
HETATM    1  C   UNL     1      -6.379  14.426  67.573  1.00  0.00    -0.005 C  
HETATM    2  N   UNL     1      -7.139  13.187  67.493  1.00  0.00    -0.159 N  
HETATM    3  O   UNL     1      -5.368  12.094  68.497  1.00  0.00    -0.053 OA 
HETATM    4  C   UNL     1      -6.516  12.047  68.051  1.00  0.00    -0.061 C  
ENDROOT
BRANCH   2   5
HETATM    5  C   UNL     1      -8.561  13.215  67.151  1.00  0.00    -0.192 C  
BRANCH   5   6
HETATM    6  C   UNL     1      -9.646  13.258  68.239  1.00  0.00    -0.221 C  
BRANCH   6   7
HETATM    7  N   UNL     1     -10.434  14.511  68.161  1.00  0.00    -0.235 NA 
HETATM    8  C   UNL     1     -10.902  14.791  66.796  1.00  0.00    -0.316 C  
HETATM    9  C   UNL     1      -9.744  15.697  68.697  1.00  0.00    -0.204 C  
HETATM   10  C   UNL     1      -8.946  16.368  66.415  1.00  0.00    -0.305 C  
HETATM   11  C   UNL     1      -8.528  16.092  67.863  1.00  0.00    -0.165 C  
HETATM   12  C   UNL     1      -9.780  15.216  65.846  1.00  0.00    -0.385 C  
BRANCH  10  13
HETATM   13  O   UNL     1      -9.751  17.563  66.369  1.00  0.00    -0.278 OA 
BRANCH  13  14
HETATM   14  C   UNL     1      -9.061  18.724  66.530  1.00  0.00    -0.323 C  
HETATM   15  H   UNL     1      -7.368  17.532  66.442  1.00  0.00     0.000 HD 
HETATM   16  O   UNL     1      -9.559  19.838  66.493  1.00  0.00    -0.353 OA 
HETATM   17  N   UNL     1      -7.745  18.429  66.748  1.00  0.00    -0.221 N  
BRANCH  17  18
HETATM   18  C   UNL     1      -6.908  19.360  67.395  1.00  0.00    -0.205 A  
HETATM   19  C   UNL     1      -6.025  20.191  66.670  1.00  0.00    -0.196 A  
HETATM   20  C   UNL     1      -6.240  20.338  69.513  1.00  0.00    -0.355 A  
HETATM   21  C   UNL     1      -5.265  21.100  67.439  1.00  0.00    -0.306 A  
HETATM   22  C   UNL     1      -5.378  21.184  68.833  1.00  0.00    -0.301 A  
HETATM   23  C   UNL     1      -6.998  19.420  68.797  1.00  0.00    -0.368 A  
BRANCH  19  24
HETATM   24  C   UNL     1      -5.870  20.180  65.182  1.00  0.00    -0.235 A  
HETATM   25  C   UNL     1      -6.181  21.291  64.378  1.00  0.00    -0.109 A  
HETATM   26  C   UNL     1      -6.049  21.257  62.983  1.00  0.00    -0.340 A  
HETATM   27  C   UNL     1      -5.632  20.094  62.348  1.00  0.00    -0.309 A  
HETATM   28  C   UNL     1      -5.327  18.973  63.110  1.00  0.00    -0.263 A  
HETATM   29  C   UNL     1      -5.429  19.023  64.505  1.00  0.00    -0.283 A  
ENDBRANCH  19  24
ENDBRANCH  17  18
ENDBRANCH  13  14
ENDBRANCH  10  13
ENDBRANCH   6   7
ENDBRANCH   5   6
ENDBRANCH   2   5
BRANCH   4  30
HETATM   30  C   UNL     1      -7.262  10.754  68.215  1.00  0.00    -0.084 A  
HETATM   31  C   UNL     1      -7.978  10.557  69.406  1.00  0.00    -0.146 A  
HETATM   32  C   UNL     1      -7.285   9.741  67.253  1.00  0.00    -0.086 A  
HETATM   33  C   UNL     1      -8.132   8.641  67.394  1.00  0.00    -0.102 A  
HETATM   34  C   UNL     1      -8.776   9.421  69.581  1.00  0.00    -0.172 A  
HETATM   35  C   UNL     1      -8.889   8.471  68.558  1.00  0.00    -0.139 A  
BRANCH  35  36
HETATM   36  C   UNL     1      -9.782   7.256  68.706  1.00  0.00    -0.151 C  
BRANCH  36  37
HETATM   37  N   UNL     1      -9.020   6.003  68.812  1.00  0.00    -0.119 NA 
HETATM   38  C   UNL     1      -9.764   4.951  69.511  1.00  0.00    -0.195 C  
HETATM   39  C   UNL     1      -7.681   6.180  69.394  1.00  0.00    -0.099 C  
HETATM   40  C   UNL     1      -7.697   6.436  70.904  1.00  0.00    -0.101 C  
HETATM   41  C   UNL     1      -9.860   5.167  71.024  1.00  0.00    -0.261 C  
HETATM   42  C   UNL     1      -8.475   5.350  71.656  1.00  0.00    -0.127 C  
BRANCH  42  43
HETATM   43  C   UNL     1      -7.692   4.038  71.707  1.00  0.00    -0.070 C  
HETATM   44  N   UNL     1      -7.778   3.347  72.878  1.00  0.00    -0.060 N  
HETATM   45  H2  UNL     1      -8.329   3.682  73.668  1.00  0.00     0.000 HD 
HETATM   46  O   UNL     1      -6.988   3.609  70.799  1.00  0.00    -0.032 OA 
HETATM   47  H1  UNL     1      -7.255   2.471  72.912  1.00  0.00     0.000 HD 
ENDBRANCH  42  43
ENDBRANCH  36  37
ENDBRANCH  35  36
ENDBRANCH   4  30
TORSDOF 11
ENDMDL
MODEL      189
REMARK 921   NORMALIZED FREE ENERGY PREDICTED BY IDOCK:   -2.48 KCAL/MOL
REMARK 922        TOTAL FREE ENERGY PREDICTED BY IDOCK:   -5.71 KCAL/MOL
REMARK 923 INTER-LIGAND FREE ENERGY PREDICTED BY IDOCK:   -6.07 KCAL/MOL
REMARK 924 INTRA-LIGAND FREE ENERGY PREDICTED BY IDOCK:    0.36 KCAL/MOL
REMARK 927      BINDING AFFINITY PREDICTED BY RF-SCORE:    0.00 PKD
ROOT
HETATM    1  C   UNL     1      -6.631  16.008  70.248  1.00  0.00     0.290 C  
HETATM    2  N   UNL     1      -7.509  15.276  69.348  1.00  0.00    -0.199 N  
HETATM    3  O   UNL     1      -9.199  16.764  69.864  1.00  0.00     0.523 OA 
HETATM    4  C   UNL     1      -8.815  15.798  69.202  1.00  0.00    -0.250 C  
ENDROOT
BRANCH   2   5
HETATM    5  C   UNL     1      -6.958  14.273  68.435  1.00  0.00    -0.100 C  
BRANCH   5   6
HETATM    6  C   UNL     1      -7.575  12.870  68.320  1.00  0.00    -0.134 C  
BRANCH   6   7
HETATM    7  N   UNL     1      -6.566  11.818  68.590  1.00  0.00    -0.060 NA 
HETATM    8  C   UNL     1      -6.303  10.982  67.409  1.00  0.00    -0.063 C  
HETATM    9  C   UNL     1      -6.880  10.956  69.742  1.00  0.00    -0.134 C  
HETATM   10  C   UNL     1      -7.915   9.213  68.264  1.00  0.00    -0.103 C  
HETATM   11  C   UNL     1      -8.114  10.090  69.505  1.00  0.00    -0.166 C  
HETATM   12  C   UNL     1      -7.461  10.045  67.061  1.00  0.00    -0.092 C  
BRANCH  10  13
HETATM   13  O   UNL     1      -6.896   8.229  68.532  1.00  0.00    -0.061 OA 
BRANCH  13  14
HETATM   14  C   UNL     1      -7.320   6.937  68.478  1.00  0.00    -0.090 C  
HETATM   15  H   UNL     1      -8.872   7.574  69.693  1.00  0.00     0.000 HD 
HETATM   16  O   UNL     1      -6.848   6.082  67.745  1.00  0.00    -0.056 OA 
HETATM   17  N   UNL     1      -8.334   6.768  69.376  1.00  0.00    -0.130 N  
BRANCH  17  18
HETATM   18  C   UNL     1      -8.639   5.482  69.867  1.00  0.00    -0.120 A  
HETATM   19  C   UNL     1      -8.384   5.122  71.209  1.00  0.00    -0.118 A  
HETATM   20  C   UNL     1      -9.584   3.305  69.363  1.00  0.00    -0.119 A  
HETATM   21  C   UNL     1      -8.766   3.813  71.578  1.00  0.00    -0.128 A  
HETATM   22  C   UNL     1      -9.367   2.923  70.678  1.00  0.00    -0.220 A  
HETATM   23  C   UNL     1      -9.212   4.579  68.954  1.00  0.00    -0.190 A  
BRANCH  19  24
HETATM   24  C   UNL     1      -7.773   6.024  72.234  1.00  0.00    -0.101 A  
HETATM   25  C   UNL     1      -6.459   5.858  72.707  1.00  0.00    -0.063 A  
HETATM   26  C   UNL     1      -5.909   6.701  73.682  1.00  0.00    -0.058 A  
HETATM   27  C   UNL     1      -6.675   7.716  74.240  1.00  0.00    -0.108 A  
HETATM   28  C   UNL     1      -7.982   7.903  73.806  1.00  0.00    -0.240 A  
HETATM   29  C   UNL     1      -8.514   7.079  72.808  1.00  0.00    -0.129 A  
ENDBRANCH  19  24
ENDBRANCH  17  18
ENDBRANCH  13  14
ENDBRANCH  10  13
ENDBRANCH   6   7
ENDBRANCH   5   6
ENDBRANCH   2   5
BRANCH   4  30
HETATM   30  C   UNL     1      -9.755  15.262  68.162  1.00  0.00    -0.212 A  
HETATM   31  C   UNL     1     -10.477  14.098  68.468  1.00  0.00    -0.252 A  
HETATM   32  C   UNL     1      -9.953  15.854  66.911  1.00  0.00    -0.253 A  
HETATM   33  C   UNL     1     -10.963  15.405  66.060  1.00  0.00    -0.286 A  
HETATM   34  C   UNL     1     -11.445  13.604  67.585  1.00  0.00    -0.357 A  
HETATM   35  C   UNL     1     -11.722  14.277  66.390  1.00  0.00    -0.403 A  
BRANCH  35  36
HETATM   36  C   UNL     1     -12.795  13.787  65.440  1.00  0.00    -0.410 C  
BRANCH  36  37
HETATM   37  N   UNL     1     -12.259  13.420  64.120  1.00  0.00    -0.567 NA 
HETATM   38  C   UNL     1     -12.547  12.026  63.766  1.00  0.00    -0.454 C  
HETATM   39  C   UNL     1     -10.828  13.720  63.967  1.00  0.00     0.103 C  
HETATM   40  C   UNL     1      -9.913  12.762  64.735  1.00  0.00    -0.158 C  
HETATM   41  C   UNL     1     -11.699  11.008  64.532  1.00  0.00     0.776 C  
HETATM   42  C   UNL     1     -10.200  11.298  64.384  1.00  0.00    -0.377 C  
BRANCH  42  43
HETATM   43  C   UNL     1      -9.686  10.950  62.987  1.00  0.00    -0.350 C  
HETATM   44  N   UNL     1     -10.137   9.773  62.470  1.00  0.00    -0.180 N  
HETATM   45  H2  UNL     1     -10.775   9.164  62.982  1.00  0.00     0.000 HD 
HETATM   46  O   UNL     1      -8.893  11.631  62.345  1.00  0.00    -0.265 OA 
HETATM   47  H1  UNL     1      -9.794   9.541  61.537  1.00  0.00     0.000 HD 
ENDBRANCH  42  43
ENDBRANCH  36  37
ENDBRANCH  35  36
ENDBRANCH   4  30
TORSDOF 11
ENDMDL
MODEL      190
REMARK 921   NORMALIZED FREE ENERGY PREDICTED BY IDOCK:   -2.45 KCAL/MOL
REMARK 922        TOTAL FREE ENERGY PREDICTED BY IDOCK:   -5.66 KCAL/MOL
REMARK 923 INTER-LIGAND FREE ENERGY PREDICTED BY IDOCK:   -9.30 KCAL/MOL
REMARK 924 INTRA-LIGAND FREE ENERGY PREDICTED BY IDOCK:    3.65 KCAL/MOL
REMARK 927      BINDING AFFINITY PREDICTED BY RF-SCORE:    0.00 PKD
ROOT
HETATM    1  C   UNL     1      -5.796   7.499  68.433  1.00  0.00    -0.027 C  
HETATM    2  N   UNL     1      -6.217   8.884  68.580  1.00  0.00    -0.052 N  
HETATM    3  O   UNL     1      -7.340   8.704  66.569  1.00  0.00    -0.079 OA 
HETATM    4  C   UNL     1      -7.058   9.383  67.559  1.00  0.00    -0.078 C  
ENDROOT
BRANCH   2   5
HETATM    5  C   UNL     1      -6.035   9.578  69.855  1.00  0.00    -0.036 C  
BRANCH   5   6
HETATM    6  C   UNL     1      -6.958   9.306  71.054  1.00  0.00    -0.084 C  
BRANCH   6   7
HETATM    7  N   UNL     1      -7.557   7.952  70.972  1.00  0.00    -0.080 NA 
HETATM    8  C   UNL     1      -8.741   7.920  70.101  1.00  0.00    -0.136 C  
HETATM    9  C   UNL     1      -7.889   7.355  72.276  1.00  0.00    -0.096 C  
HETATM   10  C   UNL     1     -10.270   8.129  72.121  1.00  0.00    -0.262 C  
HETATM   11  C   UNL     1      -9.011   8.101  72.992  1.00  0.00    -0.335 C  
HETATM   12  C   UNL     1      -9.957   8.625  70.705  1.00  0.00    -0.241 C  
BRANCH  10  13
HETATM   13  O   UNL     1     -10.809   6.796  72.014  1.00  0.00    -0.219 OA 
BRANCH  13  14
HETATM   14  C   UNL     1     -11.246   6.454  70.772  1.00  0.00    -0.327 C  
HETATM   15  H   UNL     1      -9.999   4.811  70.971  1.00  0.00     0.000 HD 
HETATM   16  O   UNL     1     -12.156   7.011  70.179  1.00  0.00    -0.166 OA 
HETATM   17  N   UNL     1     -10.494   5.411  70.311  1.00  0.00    -0.288 N  
BRANCH  17  18
HETATM   18  C   UNL     1     -10.400   5.161  68.927  1.00  0.00    -0.116 A  
HETATM   19  C   UNL     1      -9.588   4.124  68.416  1.00  0.00    -0.190 A  
HETATM   20  C   UNL     1     -11.156   5.792  66.710  1.00  0.00    -0.091 A  
HETATM   21  C   UNL     1      -9.608   3.963  67.012  1.00  0.00    -0.227 A  
HETATM   22  C   UNL     1     -10.387   4.772  66.174  1.00  0.00    -0.337 A  
HETATM   23  C   UNL     1     -11.155   5.995  68.084  1.00  0.00    -0.246 A  
BRANCH  19  24
HETATM   24  C   UNL     1      -8.753   3.203  69.247  1.00  0.00    -0.133 A  
HETATM   25  C   UNL     1      -9.218   2.630  70.445  1.00  0.00    -0.200 A  
HETATM   26  C   UNL     1      -8.415   1.784  71.223  1.00  0.00    -0.074 A  
HETATM   27  C   UNL     1      -7.107   1.515  70.840  1.00  0.00    -0.032 A  
HETATM   28  C   UNL     1      -6.610   2.073  69.668  1.00  0.00    -0.029 A  
HETATM   29  C   UNL     1      -7.427   2.890  68.879  1.00  0.00    -0.048 A  
ENDBRANCH  19  24
ENDBRANCH  17  18
ENDBRANCH  13  14
ENDBRANCH  10  13
ENDBRANCH   6   7
ENDBRANCH   5   6
ENDBRANCH   2   5
BRANCH   4  30
HETATM   30  C   UNL     1      -7.724  10.722  67.684  1.00  0.00    -0.104 A  
HETATM   31  C   UNL     1      -8.979  10.774  68.311  1.00  0.00    -0.143 A  
HETATM   32  C   UNL     1      -7.168  11.915  67.215  1.00  0.00    -0.147 A  
HETATM   33  C   UNL     1      -7.758  13.144  67.512  1.00  0.00    -0.168 A  
HETATM   34  C   UNL     1      -9.608  12.002  68.551  1.00  0.00    -0.146 A  
HETATM   35  C   UNL     1      -8.982  13.200  68.187  1.00  0.00    -0.195 A  
BRANCH  35  36
HETATM   36  C   UNL     1      -9.622  14.543  68.477  1.00  0.00    -0.220 C  
BRANCH  36  37
HETATM   37  N   UNL     1     -10.927  14.703  67.817  1.00  0.00    -0.278 NA 
HETATM   38  C   UNL     1     -11.494  13.424  67.378  1.00  0.00    -0.333 C  
HETATM   39  C   UNL     1     -10.910  15.680  66.718  1.00  0.00    -0.277 C  
HETATM   40  C   UNL     1     -10.203  15.174  65.457  1.00  0.00    -0.405 C  
HETATM   41  C   UNL     1     -10.803  12.835  66.145  1.00  0.00    -0.303 C  
HETATM   42  C   UNL     1     -10.776  13.834  64.982  1.00  0.00    -0.391 C  
BRANCH  42  43
HETATM   43  C   UNL     1     -12.157  14.013  64.350  1.00  0.00    -0.458 C  
HETATM   44  N   UNL     1     -12.874  12.869  64.170  1.00  0.00    -0.688 N  
HETATM   45  H2  UNL     1     -12.514  11.953  64.439  1.00  0.00     0.000 HD 
HETATM   46  O   UNL     1     -12.621  15.086  63.979  1.00  0.00    -0.817 OA 
HETATM   47  H1  UNL     1     -13.796  12.988  63.749  1.00  0.00     0.000 HD 
ENDBRANCH  42  43
ENDBRANCH  36  37
ENDBRANCH  35  36
ENDBRANCH   4  30
TORSDOF 11
ENDMDL
MODEL      191
REMARK 921   NORMALIZED FREE ENERGY PREDICTED BY IDOCK:   -2.44 KCAL/MOL
REMARK 922        TOTAL FREE ENERGY PREDICTED BY IDOCK:   -5.64 KCAL/MOL
REMARK 923 INTER-LIGAND FREE ENERGY PREDICTED BY IDOCK:   -7.06 KCAL/MOL
REMARK 924 INTRA-LIGAND FREE ENERGY PREDICTED BY IDOCK:    1.43 KCAL/MOL
REMARK 927      BINDING AFFINITY PREDICTED BY RF-SCORE:    0.00 PKD
ROOT
HETATM    1  C   UNL     1      -5.627   8.261  64.962  1.00  0.00    -0.044 C  
HETATM    2  N   UNL     1      -7.021   8.672  64.914  1.00  0.00    -0.072 N  
HETATM    3  O   UNL     1      -6.417  10.664  65.916  1.00  0.00    -0.119 OA 
HETATM    4  C   UNL     1      -7.297   9.969  65.405  1.00  0.00    -0.139 C  
ENDROOT
BRANCH   2   5
HETATM    5  C   UNL     1      -7.987   7.912  64.119  1.00  0.00    -0.125 C  
BRANCH   5   6
HETATM    6  C   UNL     1      -8.711   6.686  64.698  1.00  0.00     0.371 C  
BRANCH   6   7
HETATM    7  N   UNL     1      -8.001   6.157  65.888  1.00  0.00    -0.107 NA 
HETATM    8  C   UNL     1      -7.971   4.688  65.910  1.00  0.00    -0.099 C  
HETATM    9  C   UNL     1      -8.514   6.658  67.174  1.00  0.00    -0.113 C  
HETATM   10  C   UNL     1      -9.972   4.639  67.476  1.00  0.00    -0.121 C  
HETATM   11  C   UNL     1      -9.930   6.171  67.468  1.00  0.00    -0.159 C  
HETATM   12  C   UNL     1      -9.332   4.058  66.211  1.00  0.00    -0.180 C  
BRANCH  10  13
HETATM   13  O   UNL     1      -9.235   4.145  68.612  1.00  0.00    -0.123 OA 
BRANCH  13  14
HETATM   14  C   UNL     1      -9.720   4.537  69.822  1.00  0.00    -0.215 C  
HETATM   15  H   UNL     1      -9.956   6.395  68.936  1.00  0.00     0.000 HD 
HETATM   16  O   UNL     1      -9.964   3.780  70.748  1.00  0.00    -0.161 OA 
HETATM   17  N   UNL     1      -9.867   5.894  69.820  1.00  0.00    -0.161 N  
BRANCH  17  18
HETATM   18  C   UNL     1      -9.895   6.606  71.037  1.00  0.00    -0.182 A  
HETATM   19  C   UNL     1      -8.908   7.565  71.356  1.00  0.00    -0.138 A  
HETATM   20  C   UNL     1     -11.084   6.998  73.115  1.00  0.00    -0.260 A  
HETATM   21  C   UNL     1      -9.072   8.228  72.593  1.00  0.00    -0.327 A  
HETATM   22  C   UNL     1     -10.146   7.961  73.452  1.00  0.00    -0.249 A  
HETATM   23  C   UNL     1     -10.954   6.313  71.913  1.00  0.00    -0.302 A  
BRANCH  19  24
HETATM   24  C   UNL     1      -7.751   7.925  70.479  1.00  0.00    -0.086 A  
HETATM   25  C   UNL     1      -6.775   6.991  70.086  1.00  0.00    -0.052 A  
HETATM   26  C   UNL     1      -5.687   7.350  69.280  1.00  0.00    -0.026 A  
HETATM   27  C   UNL     1      -5.524   8.668  68.871  1.00  0.00    -0.036 A  
HETATM   28  C   UNL     1      -6.462   9.620  69.249  1.00  0.00    -0.044 A  
HETATM   29  C   UNL     1      -7.565   9.249  70.027  1.00  0.00    -0.099 A  
ENDBRANCH  19  24
ENDBRANCH  17  18
ENDBRANCH  13  14
ENDBRANCH  10  13
ENDBRANCH   6   7
ENDBRANCH   5   6
ENDBRANCH   2   5
BRANCH   4  30
HETATM   30  C   UNL     1      -8.651  10.594  65.234  1.00  0.00    -0.175 A  
HETATM   31  C   UNL     1      -9.660  10.232  66.141  1.00  0.00    -0.248 A  
HETATM   32  C   UNL     1      -8.964  11.513  64.229  1.00  0.00     0.295 A  
HETATM   33  C   UNL     1     -10.188  12.183  64.227  1.00  0.00    -0.351 A  
HETATM   34  C   UNL     1     -10.914  10.853  66.100  1.00  0.00    -0.099 A  
HETATM   35  C   UNL     1     -11.175  11.862  65.166  1.00  0.00    -0.346 A  
BRANCH  35  36
HETATM   36  C   UNL     1     -12.508  12.580  65.132  1.00  0.00    -0.379 C  
BRANCH  36  37
HETATM   37  N   UNL     1     -12.524  13.787  65.973  1.00  0.00    -0.459 NA 
HETATM   38  C   UNL     1     -12.635  15.018  65.185  1.00  0.00     0.194 C  
HETATM   39  C   UNL     1     -11.393  13.859  66.912  1.00  0.00    -0.328 C  
HETATM   40  C   UNL     1     -10.059  14.200  66.241  1.00  0.00    -0.308 C  
HETATM   41  C   UNL     1     -11.347  15.396  64.448  1.00  0.00    -0.246 C  
HETATM   42  C   UNL     1     -10.154  15.483  65.407  1.00  0.00    -0.387 C  
BRANCH  42  43
HETATM   43  C   UNL     1     -10.225  16.723  66.299  1.00  0.00    -0.332 C  
HETATM   44  N   UNL     1      -9.684  16.586  67.541  1.00  0.00    -0.239 N  
HETATM   45  H2  UNL     1      -9.259  15.713  67.856  1.00  0.00     0.000 HD 
HETATM   46  O   UNL     1     -10.755  17.782  65.980  1.00  0.00    -0.287 OA 
HETATM   47  H1  UNL     1      -9.731  17.413  68.137  1.00  0.00     0.000 HD 
ENDBRANCH  42  43
ENDBRANCH  36  37
ENDBRANCH  35  36
ENDBRANCH   4  30
TORSDOF 11
ENDMDL
MODEL      192
REMARK 921   NORMALIZED FREE ENERGY PREDICTED BY IDOCK:   -2.33 KCAL/MOL
REMARK 922        TOTAL FREE ENERGY PREDICTED BY IDOCK:   -5.47 KCAL/MOL
REMARK 923 INTER-LIGAND FREE ENERGY PREDICTED BY IDOCK:   -6.40 KCAL/MOL
REMARK 924 INTRA-LIGAND FREE ENERGY PREDICTED BY IDOCK:    0.93 KCAL/MOL
REMARK 927      BINDING AFFINITY PREDICTED BY RF-SCORE:    0.00 PKD
ROOT
HETATM    1  C   UNL     1      -8.761   8.706  72.218  1.00  0.00    -0.123 C  
HETATM    2  N   UNL     1      -8.320   8.652  70.832  1.00  0.00    -0.140 N  
HETATM    3  O   UNL     1      -8.575   6.357  70.892  1.00  0.00    -0.133 OA 
HETATM    4  C   UNL     1      -8.308   7.368  70.240  1.00  0.00    -0.134 C  
ENDROOT
BRANCH   2   5
HETATM    5  C   UNL     1      -8.214   9.880  70.043  1.00  0.00    -0.168 C  
BRANCH   5   6
HETATM    6  C   UNL     1      -6.866  10.594  69.850  1.00  0.00    -0.149 C  
BRANCH   6   7
HETATM    7  N   UNL     1      -6.718  11.091  68.461  1.00  0.00    -0.059 NA 
HETATM    8  C   UNL     1      -6.398  12.525  68.414  1.00  0.00    -0.064 C  
HETATM    9  C   UNL     1      -7.875  10.817  67.591  1.00  0.00    -0.109 C  
HETATM   10  C   UNL     1      -8.844  13.091  68.020  1.00  0.00    -0.191 C  
HETATM   11  C   UNL     1      -9.123  11.584  68.019  1.00  0.00    -0.174 C  
HETATM   12  C   UNL     1      -7.573  13.422  68.809  1.00  0.00    -0.047 C  
BRANCH  10  13
HETATM   13  O   UNL     1      -8.655  13.544  66.665  1.00  0.00    -0.090 OA 
BRANCH  13  14
HETATM   14  C   UNL     1      -9.349  14.667  66.336  1.00  0.00    -0.284 C  
HETATM   15  H   UNL     1      -7.569  15.666  66.687  1.00  0.00     0.000 HD 
HETATM   16  O   UNL     1     -10.479  14.673  65.873  1.00  0.00    -0.287 OA 
HETATM   17  N   UNL     1      -8.582  15.760  66.621  1.00  0.00    -0.262 N  
BRANCH  17  18
HETATM   18  C   UNL     1      -9.186  17.017  66.826  1.00  0.00    -0.252 A  
HETATM   19  C   UNL     1     -10.230  17.192  67.763  1.00  0.00    -0.324 A  
HETATM   20  C   UNL     1      -9.205  19.366  66.220  1.00  0.00    -0.388 A  
HETATM   21  C   UNL     1     -10.725  18.510  67.891  1.00  0.00    -0.337 A  
HETATM   22  C   UNL     1     -10.215  19.581  67.145  1.00  0.00    -0.542 A  
HETATM   23  C   UNL     1      -8.697  18.084  66.053  1.00  0.00    -0.009 A  
BRANCH  19  24
HETATM   24  C   UNL     1     -10.805  16.107  68.615  1.00  0.00    -0.311 A  
HETATM   25  C   UNL     1     -12.000  15.439  68.291  1.00  0.00    -0.109 A  
HETATM   26  C   UNL     1     -12.535  14.436  69.111  1.00  0.00    -0.010 A  
HETATM   27  C   UNL     1     -11.905  14.097  70.302  1.00  0.00    -0.373 A  
HETATM   28  C   UNL     1     -10.729  14.744  70.660  1.00  0.00     0.149 A  
HETATM   29  C   UNL     1     -10.181  15.720  69.821  1.00  0.00    -0.291 A  
ENDBRANCH  19  24
ENDBRANCH  17  18
ENDBRANCH  13  14
ENDBRANCH  10  13
ENDBRANCH   6   7
ENDBRANCH   5   6
ENDBRANCH   2   5
BRANCH   4  30
HETATM   30  C   UNL     1      -8.068   7.191  68.769  1.00  0.00    -0.121 A  
HETATM   31  C   UNL     1      -9.187   7.139  67.924  1.00  0.00    -0.129 A  
HETATM   32  C   UNL     1      -6.798   7.077  68.195  1.00  0.00    -0.074 A  
HETATM   33  C   UNL     1      -6.637   7.085  66.810  1.00  0.00    -0.055 A  
HETATM   34  C   UNL     1      -9.030   7.078  66.533  1.00  0.00    -0.165 A  
HETATM   35  C   UNL     1      -7.752   7.090  65.964  1.00  0.00    -0.099 A  
BRANCH  35  36
HETATM   36  C   UNL     1      -7.557   7.070  64.462  1.00  0.00    -0.107 C  
BRANCH  36  37
HETATM   37  N   UNL     1      -7.777   5.737  63.879  1.00  0.00    -0.087 NA 
HETATM   38  C   UNL     1      -8.288   4.774  64.860  1.00  0.00    -0.134 C  
HETATM   39  C   UNL     1      -6.598   5.204  63.179  1.00  0.00    -0.026 C  
HETATM   40  C   UNL     1      -5.483   4.739  64.120  1.00  0.00    -0.013 C  
HETATM   41  C   UNL     1      -7.235   4.299  65.864  1.00  0.00    -0.072 C  
HETATM   42  C   UNL     1      -5.997   3.734  65.158  1.00  0.00    -0.023 C  
BRANCH  42  43
HETATM   43  C   UNL     1      -6.273   2.371  64.523  1.00  0.00    -0.019 C  
HETATM   44  N   UNL     1      -5.315   1.915  63.668  1.00  0.00    -0.007 N  
HETATM   45  H2  UNL     1      -4.469   2.449  63.465  1.00  0.00     0.000 HD 
HETATM   46  O   UNL     1      -7.287   1.707  64.708  1.00  0.00    -0.051 OA 
HETATM   47  H1  UNL     1      -5.498   1.005  63.245  1.00  0.00     0.000 HD 
ENDBRANCH  42  43
ENDBRANCH  36  37
ENDBRANCH  35  36
ENDBRANCH   4  30
TORSDOF 11
ENDMDL
MODEL      193
REMARK 921   NORMALIZED FREE ENERGY PREDICTED BY IDOCK:   -2.25 KCAL/MOL
REMARK 922        TOTAL FREE ENERGY PREDICTED BY IDOCK:   -5.33 KCAL/MOL
REMARK 923 INTER-LIGAND FREE ENERGY PREDICTED BY IDOCK:   -8.27 KCAL/MOL
REMARK 924 INTRA-LIGAND FREE ENERGY PREDICTED BY IDOCK:    2.94 KCAL/MOL
REMARK 927      BINDING AFFINITY PREDICTED BY RF-SCORE:    0.00 PKD
ROOT
HETATM    1  C   UNL     1     -13.399   9.660  70.873  1.00  0.00    -0.127 C  
HETATM    2  N   UNL     1     -12.108   9.008  70.711  1.00  0.00    -0.191 N  
HETATM    3  O   UNL     1     -13.001   7.107  71.672  1.00  0.00    -0.365 OA 
HETATM    4  C   UNL     1     -12.042   7.659  71.128  1.00  0.00    -0.298 C  
ENDROOT
BRANCH   2   5
HETATM    5  C   UNL     1     -11.071   9.623  69.881  1.00  0.00    -0.235 C  
BRANCH   5   6
HETATM    6  C   UNL     1     -11.135   9.566  68.346  1.00  0.00     0.017 C  
BRANCH   6   7
HETATM    7  N   UNL     1     -10.544  10.783  67.740  1.00  0.00    -0.211 NA 
HETATM    8  C   UNL     1      -9.803  10.486  66.505  1.00  0.00    -0.206 C  
HETATM    9  C   UNL     1      -9.688  11.561  68.651  1.00  0.00    -0.165 C  
HETATM   10  C   UNL     1      -7.612  10.446  67.793  1.00  0.00    -0.089 C  
HETATM   11  C   UNL     1      -8.418  10.812  69.043  1.00  0.00    -0.137 C  
HETATM   12  C   UNL     1      -8.488   9.743  66.751  1.00  0.00    -0.125 C  
BRANCH  10  13
HETATM   13  O   UNL     1      -7.087  11.646  67.192  1.00  0.00    -0.123 OA 
BRANCH  13  14
HETATM   14  C   UNL     1      -7.293  12.783  67.911  1.00  0.00    -0.120 C  
HETATM   15  H   UNL     1      -8.628  13.288  66.408  1.00  0.00     0.000 HD 
HETATM   16  O   UNL     1      -6.857  12.983  69.033  1.00  0.00    -0.097 OA 
HETATM   17  N   UNL     1      -8.046  13.645  67.165  1.00  0.00    -0.128 N  
BRANCH  17  18
HETATM   18  C   UNL     1      -8.021  15.028  67.440  1.00  0.00    -0.194 A  
HETATM   19  C   UNL     1      -9.092  15.874  67.075  1.00  0.00    -0.236 A  
HETATM   20  C   UNL     1      -6.788  16.860  68.444  1.00  0.00    -0.167 A  
HETATM   21  C   UNL     1      -8.951  17.233  67.437  1.00  0.00    -0.224 A  
HETATM   22  C   UNL     1      -7.828  17.717  68.121  1.00  0.00    -0.257 A  
HETATM   23  C   UNL     1      -6.878  15.518  68.096  1.00  0.00    -0.132 A  
BRANCH  19  24
HETATM   24  C   UNL     1     -10.333  15.427  66.373  1.00  0.00    -0.303 A  
HETATM   25  C   UNL     1     -11.288  14.588  66.976  1.00  0.00    -0.359 A  
HETATM   26  C   UNL     1     -12.437  14.162  66.296  1.00  0.00    -0.395 A  
HETATM   27  C   UNL     1     -12.647  14.537  64.975  1.00  0.00    -0.250 A  
HETATM   28  C   UNL     1     -11.719  15.356  64.342  1.00  0.00    -0.261 A  
HETATM   29  C   UNL     1     -10.591  15.805  65.038  1.00  0.00    -0.397 A  
ENDBRANCH  19  24
ENDBRANCH  17  18
ENDBRANCH  13  14
ENDBRANCH  10  13
ENDBRANCH   6   7
ENDBRANCH   5   6
ENDBRANCH   2   5
BRANCH   4  30
HETATM   30  C   UNL     1     -10.838   6.812  70.838  1.00  0.00    -0.289 A  
HETATM   31  C   UNL     1     -10.799   5.519  71.384  1.00  0.00    -0.256 A  
HETATM   32  C   UNL     1      -9.759   7.234  70.057  1.00  0.00    -0.175 A  
HETATM   33  C   UNL     1      -8.752   6.341  69.686  1.00  0.00    -0.136 A  
HETATM   34  C   UNL     1      -9.754   4.641  71.069  1.00  0.00    -0.258 A  
HETATM   35  C   UNL     1      -8.742   5.034  70.186  1.00  0.00    -0.130 A  
BRANCH  35  36
HETATM   36  C   UNL     1      -7.626   4.087  69.795  1.00  0.00    -0.052 C  
BRANCH  36  37
HETATM   37  N   UNL     1      -8.070   3.044  68.858  1.00  0.00    -0.056 NA 
HETATM   38  C   UNL     1      -7.106   2.811  67.778  1.00  0.00    -0.049 C  
HETATM   39  C   UNL     1      -9.420   3.277  68.321  1.00  0.00    -0.152 C  
HETATM   40  C   UNL     1      -9.482   4.401  67.283  1.00  0.00    -0.197 C  
HETATM   41  C   UNL     1      -7.081   3.922  66.725  1.00  0.00    -0.063 C  
HETATM   42  C   UNL     1      -8.477   4.181  66.146  1.00  0.00    -0.109 C  
BRANCH  42  43
HETATM   43  C   UNL     1      -8.928   3.055  65.215  1.00  0.00    -0.142 C  
HETATM   44  N   UNL     1     -10.156   3.218  64.647  1.00  0.00    -0.358 N  
HETATM   45  H2  UNL     1     -10.735   4.037  64.830  1.00  0.00     0.000 HD 
HETATM   46  O   UNL     1      -8.284   2.036  64.989  1.00  0.00    -0.078 OA 
HETATM   47  H1  UNL     1     -10.457   2.467  64.025  1.00  0.00     0.000 HD 
ENDBRANCH  42  43
ENDBRANCH  36  37
ENDBRANCH  35  36
ENDBRANCH   4  30
TORSDOF 11
ENDMDL
MODEL      194
REMARK 921   NORMALIZED FREE ENERGY PREDICTED BY IDOCK:   -2.12 KCAL/MOL
REMARK 922        TOTAL FREE ENERGY PREDICTED BY IDOCK:   -5.11 KCAL/MOL
REMARK 923 INTER-LIGAND FREE ENERGY PREDICTED BY IDOCK:   -7.18 KCAL/MOL
REMARK 924 INTRA-LIGAND FREE ENERGY PREDICTED BY IDOCK:    2.07 KCAL/MOL
REMARK 927      BINDING AFFINITY PREDICTED BY RF-SCORE:    0.00 PKD
ROOT
HETATM    1  C   UNL     1     -10.052   5.867  65.224  1.00  0.00     1.113 C  
HETATM    2  N   UNL     1      -9.314   6.299  66.401  1.00  0.00    -0.159 N  
HETATM    3  O   UNL     1     -10.992   5.415  67.719  1.00  0.00    -0.034 OA 
HETATM    4  C   UNL     1      -9.891   5.964  67.648  1.00  0.00    -0.121 C  
ENDROOT
BRANCH   2   5
HETATM    5  C   UNL     1      -7.929   6.755  66.276  1.00  0.00    -0.108 C  
BRANCH   5   6
HETATM    6  C   UNL     1      -7.443   8.038  66.969  1.00  0.00    -0.092 C  
BRANCH   6   7
HETATM    7  N   UNL     1      -7.505   9.200  66.050  1.00  0.00    -0.094 NA 
HETATM    8  C   UNL     1      -6.996  10.430  66.672  1.00  0.00    -0.111 C  
HETATM    9  C   UNL     1      -8.840   9.453  65.482  1.00  0.00    -0.184 C  
HETATM   10  C   UNL     1      -9.362  11.158  67.246  1.00  0.00    -0.160 C  
HETATM   11  C   UNL     1      -9.851   9.891  66.537  1.00  0.00    -0.274 C  
HETATM   12  C   UNL     1      -7.924  10.995  67.750  1.00  0.00    -0.115 C  
BRANCH  10  13
HETATM   13  O   UNL     1      -9.385  12.264  66.322  1.00  0.00    -0.232 OA 
BRANCH  13  14
HETATM   14  C   UNL     1      -9.055  13.468  66.863  1.00  0.00    -0.239 C  
HETATM   15  H   UNL     1     -11.091  13.694  67.176  1.00  0.00     0.000 HD 
HETATM   16  O   UNL     1      -7.914  13.836  67.093  1.00  0.00    -0.145 OA 
HETATM   17  N   UNL     1     -10.199  14.180  67.085  1.00  0.00    -0.256 N  
BRANCH  17  18
HETATM   18  C   UNL     1     -10.151  15.585  67.188  1.00  0.00    -0.254 A  
HETATM   19  C   UNL     1     -10.624  16.260  68.336  1.00  0.00    -0.301 A  
HETATM   20  C   UNL     1      -9.481  17.661  66.127  1.00  0.00    -0.178 A  
HETATM   21  C   UNL     1     -10.488  17.666  68.322  1.00  0.00    -0.376 A  
HETATM   22  C   UNL     1      -9.915  18.356  67.245  1.00  0.00    -0.347 A  
HETATM   23  C   UNL     1      -9.607  16.279  66.093  1.00  0.00    -0.362 A  
BRANCH  19  24
HETATM   24  C   UNL     1     -11.219  15.592  69.534  1.00  0.00    -0.313 A  
HETATM   25  C   UNL     1     -11.931  14.382  69.455  1.00  0.00    -0.370 A  
HETATM   26  C   UNL     1     -12.499  13.780  70.586  1.00  0.00    -0.429 A  
HETATM   27  C   UNL     1     -12.400  14.393  71.828  1.00  0.00    -0.390 A  
HETATM   28  C   UNL     1     -11.714  15.596  71.943  1.00  0.00    -0.544 A  
HETATM   29  C   UNL     1     -11.120  16.175  70.816  1.00  0.00    -0.281 A  
ENDBRANCH  19  24
ENDBRANCH  17  18
ENDBRANCH  13  14
ENDBRANCH  10  13
ENDBRANCH   6   7
ENDBRANCH   5   6
ENDBRANCH   2   5
BRANCH   4  30
HETATM   30  C   UNL     1      -9.143   6.170  68.933  1.00  0.00    -0.123 A  
HETATM   31  C   UNL     1      -9.569   7.205  69.780  1.00  0.00    -0.155 A  
HETATM   32  C   UNL     1      -8.052   5.394  69.332  1.00  0.00    -0.093 A  
HETATM   33  C   UNL     1      -7.510   5.528  70.611  1.00  0.00    -0.084 A  
HETATM   34  C   UNL     1      -8.982   7.387  71.038  1.00  0.00    -0.151 A  
HETATM   35  C   UNL     1      -7.972   6.524  71.478  1.00  0.00    -0.104 A  
BRANCH  35  36
HETATM   36  C   UNL     1      -7.353   6.672  72.853  1.00  0.00    -0.081 C  
BRANCH  36  37
HETATM   37  N   UNL     1      -8.024   5.848  73.869  1.00  0.00    -0.102 NA 
HETATM   38  C   UNL     1      -7.374   4.547  74.055  1.00  0.00    -0.073 C  
HETATM   39  C   UNL     1      -9.467   5.689  73.633  1.00  0.00    -0.138 C  
HETATM   40  C   UNL     1      -9.800   4.743  72.475  1.00  0.00    -0.204 C  
HETATM   41  C   UNL     1      -7.626   3.563  72.910  1.00  0.00    -0.060 C  
HETATM   42  C   UNL     1      -9.126   3.377  72.647  1.00  0.00    -0.119 C  
BRANCH  42  43
HETATM   43  C   UNL     1      -9.802   2.557  73.745  1.00  0.00    -0.096 C  
HETATM   44  N   UNL     1      -8.965   1.821  74.530  1.00  0.00    -0.060 N  
HETATM   45  H2  UNL     1      -7.955   1.818  74.394  1.00  0.00     0.000 HD 
HETATM   46  O   UNL     1     -11.013   2.500  73.929  1.00  0.00    -0.178 OA 
HETATM   47  H1  UNL     1      -9.417   1.274  75.264  1.00  0.00     0.000 HD 
ENDBRANCH  42  43
ENDBRANCH  36  37
ENDBRANCH  35  36
ENDBRANCH   4  30
TORSDOF 11
ENDMDL
MODEL      195
REMARK 921   NORMALIZED FREE ENERGY PREDICTED BY IDOCK:   -2.08 KCAL/MOL
REMARK 922        TOTAL FREE ENERGY PREDICTED BY IDOCK:   -5.05 KCAL/MOL
REMARK 923 INTER-LIGAND FREE ENERGY PREDICTED BY IDOCK:   -8.24 KCAL/MOL
REMARK 924 INTRA-LIGAND FREE ENERGY PREDICTED BY IDOCK:    3.19 KCAL/MOL
REMARK 927      BINDING AFFINITY PREDICTED BY RF-SCORE:    0.00 PKD
ROOT
HETATM    1  C   UNL     1     -13.238  15.613  71.525  1.00  0.00    -0.475 C  
HETATM    2  N   UNL     1     -12.627  14.378  71.055  1.00  0.00    -0.326 N  
HETATM    3  O   UNL     1     -13.380  13.333  72.973  1.00  0.00    -0.467 OA 
HETATM    4  C   UNL     1     -12.809  13.247  71.883  1.00  0.00    -0.234 C  
ENDROOT
BRANCH   2   5
HETATM    5  C   UNL     1     -12.146  14.272  69.677  1.00  0.00    -0.346 C  
BRANCH   5   6
HETATM    6  C   UNL     1     -11.899  15.522  68.817  1.00  0.00    -0.317 C  
BRANCH   6   7
HETATM    7  N   UNL     1     -10.644  15.396  68.037  1.00  0.00    -0.257 NA 
HETATM    8  C   UNL     1      -9.645  16.403  68.422  1.00  0.00    -0.219 C  
HETATM    9  C   UNL     1     -10.832  15.424  66.576  1.00  0.00    -0.298 C  
HETATM   10  C   UNL     1     -10.337  17.881  66.474  1.00  0.00    -0.362 C  
HETATM   11  C   UNL     1     -11.324  16.779  66.076  1.00  0.00     0.709 C  
HETATM   12  C   UNL     1     -10.005  17.819  67.968  1.00  0.00    -0.333 C  
BRANCH  10  13
HETATM   13  O   UNL     1      -9.107  17.711  65.740  1.00  0.00    -0.503 OA 
BRANCH  13  14
HETATM   14  C   UNL     1      -8.088  18.520  66.137  1.00  0.00    -0.176 C  
HETATM   15  H   UNL     1      -7.492  16.914  67.302  1.00  0.00     0.000 HD 
HETATM   16  O   UNL     1      -7.831  19.605  65.640  1.00  0.00    -0.408 OA 
HETATM   17  N   UNL     1      -7.429  17.924  67.173  1.00  0.00    -0.192 N  
BRANCH  17  18
HETATM   18  C   UNL     1      -6.662  18.700  68.066  1.00  0.00    -0.221 A  
HETATM   19  C   UNL     1      -6.058  18.132  69.210  1.00  0.00    -0.245 A  
HETATM   20  C   UNL     1      -5.755  20.895  68.559  1.00  0.00    -0.386 A  
HETATM   21  C   UNL     1      -5.292  19.015  70.003  1.00  0.00    -0.226 A  
HETATM   22  C   UNL     1      -5.130  20.369  69.679  1.00  0.00    -0.281 A  
HETATM   23  C   UNL     1      -6.528  20.065  67.758  1.00  0.00    -0.268 A  
BRANCH  19  24
HETATM   24  C   UNL     1      -6.160  16.693  69.604  1.00  0.00    -0.220 A  
HETATM   25  C   UNL     1      -5.142  16.024  70.308  1.00  0.00    -0.151 A  
HETATM   26  C   UNL     1      -5.246  14.669  70.652  1.00  0.00    -0.124 A  
HETATM   27  C   UNL     1      -6.361  13.934  70.270  1.00  0.00    -0.067 A  
HETATM   28  C   UNL     1      -7.382  14.559  69.565  1.00  0.00    -0.063 A  
HETATM   29  C   UNL     1      -7.287  15.920  69.252  1.00  0.00    -0.221 A  
ENDBRANCH  19  24
ENDBRANCH  17  18
ENDBRANCH  13  14
ENDBRANCH  10  13
ENDBRANCH   6   7
ENDBRANCH   5   6
ENDBRANCH   2   5
BRANCH   4  30
HETATM   30  C   UNL     1     -12.406  11.875  71.427  1.00  0.00    -0.120 A  
HETATM   31  C   UNL     1     -13.222  10.795  71.797  1.00  0.00    -0.523 A  
HETATM   32  C   UNL     1     -11.269  11.613  70.659  1.00  0.00     0.894 A  
HETATM   33  C   UNL     1     -11.042  10.343  70.127  1.00  0.00    -0.383 A  
HETATM   34  C   UNL     1     -12.960   9.505  71.320  1.00  0.00    -0.407 A  
HETATM   35  C   UNL     1     -11.888   9.277  70.449  1.00  0.00    -0.097 A  
BRANCH  35  36
HETATM   36  C   UNL     1     -11.611   7.898  69.885  1.00  0.00     0.251 C  
BRANCH  36  37
HETATM   37  N   UNL     1     -11.401   6.888  70.934  1.00  0.00    -0.286 NA 
HETATM   38  C   UNL     1     -10.337   7.265  71.870  1.00  0.00    -0.188 C  
HETATM   39  C   UNL     1     -11.184   5.533  70.404  1.00  0.00     0.151 C  
HETATM   40  C   UNL     1      -9.805   5.334  69.771  1.00  0.00    -0.282 C  
HETATM   41  C   UNL     1      -8.928   7.134  71.286  1.00  0.00    -0.147 C  
HETATM   42  C   UNL     1      -8.676   5.727  70.731  1.00  0.00    -0.131 C  
BRANCH  42  43
HETATM   43  C   UNL     1      -8.509   4.694  71.846  1.00  0.00    -0.117 C  
HETATM   44  N   UNL     1      -7.475   3.821  71.689  1.00  0.00    -0.054 N  
HETATM   45  H2  UNL     1      -6.853   3.854  70.882  1.00  0.00     0.000 HD 
HETATM   46  O   UNL     1      -9.249   4.591  72.819  1.00  0.00    -0.126 OA 
HETATM   47  H1  UNL     1      -7.363   3.132  72.434  1.00  0.00     0.000 HD 
ENDBRANCH  42  43
ENDBRANCH  36  37
ENDBRANCH  35  36
ENDBRANCH   4  30
TORSDOF 11
ENDMDL
MODEL      196
REMARK 921   NORMALIZED FREE ENERGY PREDICTED BY IDOCK:   -1.99 KCAL/MOL
REMARK 922        TOTAL FREE ENERGY PREDICTED BY IDOCK:   -4.90 KCAL/MOL
REMARK 923 INTER-LIGAND FREE ENERGY PREDICTED BY IDOCK:   -7.12 KCAL/MOL
REMARK 924 INTRA-LIGAND FREE ENERGY PREDICTED BY IDOCK:    2.22 KCAL/MOL
REMARK 927      BINDING AFFINITY PREDICTED BY RF-SCORE:    0.00 PKD
ROOT
HETATM    1  C   UNL     1     -11.473   6.066  71.704  1.00  0.00    -0.230 C  
HETATM    2  N   UNL     1     -10.462   6.631  70.823  1.00  0.00    -0.212 N  
HETATM    3  O   UNL     1     -10.222   4.553  69.844  1.00  0.00    -0.208 OA 
HETATM    4  C   UNL     1      -9.915   5.746  69.866  1.00  0.00    -0.194 C  
ENDROOT
BRANCH   2   5
HETATM    5  C   UNL     1     -10.281   8.082  70.744  1.00  0.00    -0.194 C  
BRANCH   5   6
HETATM    6  C   UNL     1     -11.198   9.046  71.514  1.00  0.00    -0.348 C  
BRANCH   6   7
HETATM    7  N   UNL     1     -11.728  10.107  70.623  1.00  0.00    -0.312 NA 
HETATM    8  C   UNL     1     -12.211   9.569  69.344  1.00  0.00     1.096 C  
HETATM    9  C   UNL     1     -10.787  11.211  70.368  1.00  0.00     0.598 C  
HETATM   10  C   UNL     1     -10.010  10.167  68.224  1.00  0.00    -0.148 C  
HETATM   11  C   UNL     1      -9.569  10.767  69.563  1.00  0.00     0.023 C  
HETATM   12  C   UNL     1     -11.086   9.095  68.421  1.00  0.00     0.119 C  
BRANCH  10  13
HETATM   13  O   UNL     1     -10.565  11.206  67.393  1.00  0.00    -0.208 OA 
BRANCH  13  14
HETATM   14  C   UNL     1     -10.116  12.460  67.668  1.00  0.00    -0.198 C  
HETATM   15  H   UNL     1     -12.121  12.977  67.751  1.00  0.00     0.000 HD 
HETATM   16  O   UNL     1      -8.952  12.744  67.900  1.00  0.00    -0.170 OA 
HETATM   17  N   UNL     1     -11.171  13.326  67.625  1.00  0.00    -0.269 N  
BRANCH  17  18
HETATM   18  C   UNL     1     -10.951  14.701  67.406  1.00  0.00    -0.308 A  
HETATM   19  C   UNL     1     -11.199  15.660  68.414  1.00  0.00    -0.352 A  
HETATM   20  C   UNL     1     -10.186  16.396  65.848  1.00  0.00    -0.379 A  
HETATM   21  C   UNL     1     -10.907  16.999  68.073  1.00  0.00    -0.330 A  
HETATM   22  C   UNL     1     -10.397  17.362  66.819  1.00  0.00    -0.305 A  
HETATM   23  C   UNL     1     -10.471  15.068  66.136  1.00  0.00    -0.313 A  
BRANCH  19  24
HETATM   24  C   UNL     1     -11.714  15.347  69.783  1.00  0.00    -0.352 A  
HETATM   25  C   UNL     1     -11.131  15.870  70.952  1.00  0.00    -0.317 A  
HETATM   26  C   UNL     1     -11.614  15.550  72.228  1.00  0.00    -0.554 A  
HETATM   27  C   UNL     1     -12.677  14.667  72.372  1.00  0.00    -0.429 A  
HETATM   28  C   UNL     1     -13.270  14.122  71.240  1.00  0.00    -0.399 A  
HETATM   29  C   UNL     1     -12.804  14.470  69.967  1.00  0.00    -0.067 A  
ENDBRANCH  19  24
ENDBRANCH  17  18
ENDBRANCH  13  14
ENDBRANCH  10  13
ENDBRANCH   6   7
ENDBRANCH   5   6
ENDBRANCH   2   5
BRANCH   4  30
HETATM   30  C   UNL     1      -9.014   6.242  68.772  1.00  0.00    -0.125 A  
HETATM   31  C   UNL     1      -7.964   7.102  69.128  1.00  0.00    -0.119 A  
HETATM   32  C   UNL     1      -9.161   5.897  67.426  1.00  0.00    -0.108 A  
HETATM   33  C   UNL     1      -8.193   6.254  66.487  1.00  0.00    -0.112 A  
HETATM   34  C   UNL     1      -7.027   7.519  68.174  1.00  0.00    -0.072 A  
HETATM   35  C   UNL     1      -7.114   7.066  66.852  1.00  0.00    -0.075 A  
BRANCH  35  36
HETATM   36  C   UNL     1      -6.087   7.467  65.813  1.00  0.00    -0.038 C  
BRANCH  36  37
HETATM   37  N   UNL     1      -6.287   8.838  65.318  1.00  0.00    -0.060 NA 
HETATM   38  C   UNL     1      -7.601   9.379  65.681  1.00  0.00    -0.095 C  
HETATM   39  C   UNL     1      -6.034   8.982  63.877  1.00  0.00    -0.072 C  
HETATM   40  C   UNL     1      -7.134   8.379  62.997  1.00  0.00    -0.091 C  
HETATM   41  C   UNL     1      -8.756   8.785  64.870  1.00  0.00    -0.161 C  
HETATM   42  C   UNL     1      -8.518   8.927  63.362  1.00  0.00    -0.150 C  
BRANCH  42  43
HETATM   43  C   UNL     1      -8.687  10.372  62.890  1.00  0.00    -0.209 C  
HETATM   44  N   UNL     1      -7.582  10.941  62.331  1.00  0.00    -0.356 N  
HETATM   45  H2  UNL     1      -6.701  10.437  62.234  1.00  0.00     0.000 HD 
HETATM   46  O   UNL     1      -9.713  11.032  63.014  1.00  0.00    -0.314 OA 
HETATM   47  H1  UNL     1      -7.694  11.905  62.016  1.00  0.00     0.000 HD 
ENDBRANCH  42  43
ENDBRANCH  36  37
ENDBRANCH  35  36
ENDBRANCH   4  30
TORSDOF 11
ENDMDL
MODEL      197
REMARK 921   NORMALIZED FREE ENERGY PREDICTED BY IDOCK:   -1.95 KCAL/MOL
REMARK 922        TOTAL FREE ENERGY PREDICTED BY IDOCK:   -4.83 KCAL/MOL
REMARK 923 INTER-LIGAND FREE ENERGY PREDICTED BY IDOCK:   -7.20 KCAL/MOL
REMARK 924 INTRA-LIGAND FREE ENERGY PREDICTED BY IDOCK:    2.36 KCAL/MOL
REMARK 927      BINDING AFFINITY PREDICTED BY RF-SCORE:    0.00 PKD
ROOT
HETATM    1  C   UNL     1     -12.866  15.709  70.575  1.00  0.00    -0.287 C  
HETATM    2  N   UNL     1     -12.039  14.520  70.725  1.00  0.00    -0.308 N  
HETATM    3  O   UNL     1     -13.888  13.230  70.220  1.00  0.00     1.466 OA 
HETATM    4  C   UNL     1     -12.682  13.287  70.470  1.00  0.00    -0.099 C  
ENDROOT
BRANCH   2   5
HETATM    5  C   UNL     1     -10.584  14.642  70.817  1.00  0.00     0.566 C  
BRANCH   5   6
HETATM    6  C   UNL     1      -9.839  15.831  70.187  1.00  0.00     0.108 C  
BRANCH   6   7
HETATM    7  N   UNL     1     -10.427  16.197  68.876  1.00  0.00    -0.241 NA 
HETATM    8  C   UNL     1     -10.443  15.066  67.937  1.00  0.00    -0.247 C  
HETATM    9  C   UNL     1      -9.797  17.362  68.232  1.00  0.00    -0.310 C  
HETATM   10  C   UNL     1      -8.300  15.897  66.852  1.00  0.00    -0.246 C  
HETATM   11  C   UNL     1      -8.356  17.089  67.812  1.00  0.00    -0.199 C  
HETATM   12  C   UNL     1      -9.053  14.689  67.419  1.00  0.00    -0.203 C  
BRANCH  10  13
HETATM   13  O   UNL     1      -8.920  16.258  65.602  1.00  0.00    -0.403 OA 
BRANCH  13  14
HETATM   14  C   UNL     1     -10.088  15.614  65.336  1.00  0.00    -0.335 C  
HETATM   15  H   UNL     1      -9.037  13.883  65.774  1.00  0.00     0.000 HD 
HETATM   16  O   UNL     1     -11.159  16.169  65.151  1.00  0.00    -0.330 OA 
HETATM   17  N   UNL     1      -9.852  14.270  65.298  1.00  0.00    -0.253 N  
BRANCH  17  18
HETATM   18  C   UNL     1     -10.731  13.414  64.604  1.00  0.00    -0.411 A  
HETATM   19  C   UNL     1     -10.430  12.048  64.402  1.00  0.00    -0.353 A  
HETATM   20  C   UNL     1     -12.865  13.210  63.468  1.00  0.00     0.188 A  
HETATM   21  C   UNL     1     -11.411  11.297  63.717  1.00  0.00    -0.055 A  
HETATM   22  C   UNL     1     -12.613  11.861  63.269  1.00  0.00    -0.473 A  
HETATM   23  C   UNL     1     -11.922  13.989  64.125  1.00  0.00    -0.439 A  
BRANCH  19  24
HETATM   24  C   UNL     1      -9.185  11.369  64.876  1.00  0.00    -0.074 A  
HETATM   25  C   UNL     1      -8.301  10.708  64.004  1.00  0.00    -0.020 A  
HETATM   26  C   UNL     1      -7.148  10.060  64.467  1.00  0.00    -0.139 A  
HETATM   27  C   UNL     1      -6.864  10.025  65.826  1.00  0.00    -0.111 A  
HETATM   28  C   UNL     1      -7.721  10.658  66.719  1.00  0.00    -0.127 A  
HETATM   29  C   UNL     1      -8.853  11.332  66.247  1.00  0.00    -0.194 A  
ENDBRANCH  19  24
ENDBRANCH  17  18
ENDBRANCH  13  14
ENDBRANCH  10  13
ENDBRANCH   6   7
ENDBRANCH   5   6
ENDBRANCH   2   5
BRANCH   4  30
HETATM   30  C   UNL     1     -11.905  12.006  70.394  1.00  0.00    -0.302 A  
HETATM   31  C   UNL     1     -12.194  11.006  71.336  1.00  0.00    -0.292 A  
HETATM   32  C   UNL     1     -10.913  11.751  69.442  1.00  0.00    -0.185 A  
HETATM   33  C   UNL     1     -10.349  10.481  69.320  1.00  0.00    -0.248 A  
HETATM   34  C   UNL     1     -11.579   9.751  71.258  1.00  0.00    -0.465 A  
HETATM   35  C   UNL     1     -10.679   9.466  70.225  1.00  0.00    -0.299 A  
BRANCH  35  36
HETATM   36  C   UNL     1     -10.035   8.101  70.094  1.00  0.00    -0.187 C  
BRANCH  36  37
HETATM   37  N   UNL     1      -9.435   7.883  68.769  1.00  0.00    -0.147 NA 
HETATM   38  C   UNL     1     -10.442   7.731  67.714  1.00  0.00    -0.211 C  
HETATM   39  C   UNL     1      -8.468   6.774  68.741  1.00  0.00    -0.124 C  
HETATM   40  C   UNL     1      -9.120   5.390  68.804  1.00  0.00    -0.135 C  
HETATM   41  C   UNL     1     -11.168   6.384  67.746  1.00  0.00    -0.258 C  
HETATM   42  C   UNL     1     -10.181   5.211  67.713  1.00  0.00    -0.190 C  
BRANCH  42  43
HETATM   43  C   UNL     1      -9.540   5.042  66.335  1.00  0.00    -0.164 C  
HETATM   44  N   UNL     1     -10.389   5.144  65.274  1.00  0.00    -0.349 N  
HETATM   45  H2  UNL     1     -11.386   5.321  65.392  1.00  0.00     0.000 HD 
HETATM   46  O   UNL     1      -8.354   4.794  66.143  1.00  0.00    -0.110 OA 
HETATM   47  H1  UNL     1      -9.961   5.031  64.355  1.00  0.00     0.000 HD 
ENDBRANCH  42  43
ENDBRANCH  36  37
ENDBRANCH  35  36
ENDBRANCH   4  30
TORSDOF 11
ENDMDL
MODEL      198
REMARK 921   NORMALIZED FREE ENERGY PREDICTED BY IDOCK:   -1.95 KCAL/MOL
REMARK 922        TOTAL FREE ENERGY PREDICTED BY IDOCK:   -4.83 KCAL/MOL
REMARK 923 INTER-LIGAND FREE ENERGY PREDICTED BY IDOCK:   -5.55 KCAL/MOL
REMARK 924 INTRA-LIGAND FREE ENERGY PREDICTED BY IDOCK:    0.72 KCAL/MOL
REMARK 927      BINDING AFFINITY PREDICTED BY RF-SCORE:    0.00 PKD
ROOT
HETATM    1  C   UNL     1      -7.070  13.458  69.018  1.00  0.00    -0.053 C  
HETATM    2  N   UNL     1      -7.509  12.153  68.545  1.00  0.00    -0.113 N  
HETATM    3  O   UNL     1      -5.455  11.293  69.159  1.00  0.00    -0.041 OA 
HETATM    4  C   UNL     1      -6.588  11.095  68.715  1.00  0.00    -0.059 C  
ENDROOT
BRANCH   2   5
HETATM    5  C   UNL     1      -8.918  11.923  68.223  1.00  0.00    -0.178 C  
BRANCH   5   6
HETATM    6  C   UNL     1      -9.462  12.150  66.803  1.00  0.00    -0.212 C  
BRANCH   6   7
HETATM    7  N   UNL     1     -10.559  13.148  66.802  1.00  0.00    -0.262 NA 
HETATM    8  C   UNL     1     -11.066  13.416  65.450  1.00  0.00    -0.287 C  
HETATM    9  C   UNL     1     -10.222  14.420  67.463  1.00  0.00    -0.240 C  
HETATM   10  C   UNL     1      -9.606  15.489  65.278  1.00  0.00     0.033 C  
HETATM   11  C   UNL     1      -9.148  15.202  66.712  1.00  0.00    -0.282 C  
HETATM   12  C   UNL     1     -10.090  14.213  64.582  1.00  0.00    -0.047 C  
BRANCH  10  13
HETATM   13  O   UNL     1     -10.704  16.423  65.304  1.00  0.00    -0.501 OA 
BRANCH  13  14
HETATM   14  C   UNL     1     -10.711  17.268  66.370  1.00  0.00    -0.072 C  
HETATM   15  H   UNL     1      -9.413  18.427  65.245  1.00  0.00     0.000 HD 
HETATM   16  O   UNL     1     -11.457  17.165  67.331  1.00  0.00     0.248 OA 
HETATM   17  N   UNL     1      -9.749  18.220  66.185  1.00  0.00    -0.273 N  
BRANCH  17  18
HETATM   18  C   UNL     1      -9.220  18.917  67.291  1.00  0.00    -0.283 A  
HETATM   19  C   UNL     1      -7.945  19.523  67.242  1.00  0.00    -0.304 A  
HETATM   20  C   UNL     1      -9.603  19.683  69.561  1.00  0.00    -0.021 A  
HETATM   21  C   UNL     1      -7.549  20.216  68.408  1.00  0.00    -0.170 A  
HETATM   22  C   UNL     1      -8.366  20.307  69.542  1.00  0.00     0.838 A  
HETATM   23  C   UNL     1     -10.027  18.979  68.440  1.00  0.00    -0.473 A  
BRANCH  19  24
HETATM   24  C   UNL     1      -7.030  19.494  66.059  1.00  0.00    -0.280 A  
HETATM   25  C   UNL     1      -7.176  20.364  64.963  1.00  0.00     0.027 A  
HETATM   26  C   UNL     1      -6.321  20.310  63.854  1.00  0.00    -0.124 A  
HETATM   27  C   UNL     1      -5.313  19.356  63.795  1.00  0.00    -0.306 A  
HETATM   28  C   UNL     1      -5.146  18.473  64.854  1.00  0.00    -0.196 A  
HETATM   29  C   UNL     1      -5.981  18.553  65.973  1.00  0.00    -0.212 A  
ENDBRANCH  19  24
ENDBRANCH  17  18
ENDBRANCH  13  14
ENDBRANCH  10  13
ENDBRANCH   6   7
ENDBRANCH   5   6
ENDBRANCH   2   5
BRANCH   4  30
HETATM   30  C   UNL     1      -6.982   9.670  68.456  1.00  0.00    -0.065 A  
HETATM   31  C   UNL     1      -6.556   9.079  67.257  1.00  0.00    -0.061 A  
HETATM   32  C   UNL     1      -7.747   8.901  69.338  1.00  0.00    -0.093 A  
HETATM   33  C   UNL     1      -7.935   7.537  69.118  1.00  0.00    -0.121 A  
HETATM   34  C   UNL     1      -6.802   7.725  67.000  1.00  0.00    -0.069 A  
HETATM   35  C   UNL     1      -7.461   6.933  67.948  1.00  0.00    -0.099 A  
BRANCH  35  36
HETATM   36  C   UNL     1      -7.700   5.456  67.712  1.00  0.00    -0.092 C  
BRANCH  36  37
HETATM   37  N   UNL     1      -8.899   5.198  66.900  1.00  0.00    -0.110 NA 
HETATM   38  C   UNL     1      -9.148   3.766  66.708  1.00  0.00    -0.159 C  
HETATM   39  C   UNL     1      -8.899   5.913  65.615  1.00  0.00    -0.118 C  
HETATM   40  C   UNL     1      -7.931   5.324  64.585  1.00  0.00    -0.109 C  
HETATM   41  C   UNL     1      -8.184   3.100  65.722  1.00  0.00    -0.094 C  
HETATM   42  C   UNL     1      -8.170   3.825  64.371  1.00  0.00    -0.090 C  
BRANCH  42  43
HETATM   43  C   UNL     1      -9.450   3.574  63.574  1.00  0.00    -0.121 C  
HETATM   44  N   UNL     1      -9.312   2.787  62.470  1.00  0.00    -0.090 N  
HETATM   45  H2  UNL     1      -8.413   2.392  62.194  1.00  0.00     0.000 HD 
HETATM   46  O   UNL     1     -10.546   4.053  63.844  1.00  0.00    -0.216 OA 
HETATM   47  H1  UNL     1     -10.166   2.620  61.938  1.00  0.00     0.000 HD 
ENDBRANCH  42  43
ENDBRANCH  36  37
ENDBRANCH  35  36
ENDBRANCH   4  30
TORSDOF 11
ENDMDL
MODEL      199
REMARK 921   NORMALIZED FREE ENERGY PREDICTED BY IDOCK:   -1.73 KCAL/MOL
REMARK 922        TOTAL FREE ENERGY PREDICTED BY IDOCK:   -4.47 KCAL/MOL
REMARK 923 INTER-LIGAND FREE ENERGY PREDICTED BY IDOCK:   -7.37 KCAL/MOL
REMARK 924 INTRA-LIGAND FREE ENERGY PREDICTED BY IDOCK:    2.90 KCAL/MOL
REMARK 927      BINDING AFFINITY PREDICTED BY RF-SCORE:    0.00 PKD
ROOT
HETATM    1  C   UNL     1      -9.732  11.407  62.704  1.00  0.00    -0.084 C  
HETATM    2  N   UNL     1      -9.614  10.954  64.082  1.00  0.00    -0.253 N  
HETATM    3  O   UNL     1      -9.034   8.862  63.294  1.00  0.00    -0.035 OA 
HETATM    4  C   UNL     1      -9.200   9.614  64.257  1.00  0.00    -0.178 C  
ENDROOT
BRANCH   2   5
HETATM    5  C   UNL     1      -9.616  11.924  65.179  1.00  0.00    -0.114 C  
BRANCH   5   6
HETATM    6  C   UNL     1     -10.914  12.297  65.915  1.00  0.00    -0.302 C  
BRANCH   6   7
HETATM    7  N   UNL     1     -10.644  12.648  67.330  1.00  0.00    -0.223 NA 
HETATM    8  C   UNL     1     -11.061  14.021  67.652  1.00  0.00    -0.282 C  
HETATM    9  C   UNL     1      -9.247  12.447  67.751  1.00  0.00    -0.193 C  
HETATM   10  C   UNL     1      -8.682  14.853  67.322  1.00  0.00    -0.207 C  
HETATM   11  C   UNL     1      -8.283  13.399  67.049  1.00  0.00    -0.051 C  
HETATM   12  C   UNL     1     -10.165  15.089  67.021  1.00  0.00    -0.257 C  
BRANCH  10  13
HETATM   13  O   UNL     1      -8.458  15.158  68.713  1.00  0.00    -0.159 OA 
BRANCH  13  14
HETATM   14  C   UNL     1      -7.406  15.987  68.954  1.00  0.00    -0.176 C  
HETATM   15  H   UNL     1      -8.758  17.106  70.055  1.00  0.00     0.000 HD 
HETATM   16  O   UNL     1      -6.248  15.741  68.657  1.00  0.00    -0.101 OA 
HETATM   17  N   UNL     1      -7.867  17.121  69.560  1.00  0.00     0.241 N  
BRANCH  17  18
HETATM   18  C   UNL     1      -7.115  18.312  69.501  1.00  0.00     0.072 A  
HETATM   19  C   UNL     1      -7.546  19.422  68.742  1.00  0.00    -0.398 A  
HETATM   20  C   UNL     1      -5.137  19.485  70.273  1.00  0.00    -0.213 A  
HETATM   21  C   UNL     1      -6.714  20.563  68.795  1.00  0.00    -0.160 A  
HETATM   22  C   UNL     1      -5.538  20.601  69.556  1.00  0.00    -0.406 A  
HETATM   23  C   UNL     1      -5.919  18.337  70.238  1.00  0.00    -0.073 A  
BRANCH  19  24
HETATM   24  C   UNL     1      -8.801  19.467  67.930  1.00  0.00    -0.372 A  
HETATM   25  C   UNL     1      -8.821  19.216  66.546  1.00  0.00    -0.348 A  
HETATM   26  C   UNL     1     -10.004  19.282  65.797  1.00  0.00    -0.127 A  
HETATM   27  C   UNL     1     -11.199  19.636  66.408  1.00  0.00     0.102 A  
HETATM   28  C   UNL     1     -11.216  19.903  67.772  1.00  0.00     0.320 A  
HETATM   29  C   UNL     1     -10.038  19.803  68.521  1.00  0.00    -0.555 A  
ENDBRANCH  19  24
ENDBRANCH  17  18
ENDBRANCH  13  14
ENDBRANCH  10  13
ENDBRANCH   6   7
ENDBRANCH   5   6
ENDBRANCH   2   5
BRANCH   4  30
HETATM   30  C   UNL     1      -8.848   9.078  65.614  1.00  0.00    -0.224 A  
HETATM   31  C   UNL     1      -9.875   8.977  66.565  1.00  0.00    -0.338 A  
HETATM   32  C   UNL     1      -7.562   8.676  65.982  1.00  0.00    -0.093 A  
HETATM   33  C   UNL     1      -7.336   8.031  67.199  1.00  0.00    -0.091 A  
HETATM   34  C   UNL     1      -9.637   8.391  67.815  1.00  0.00    -0.185 A  
HETATM   35  C   UNL     1      -8.372   7.879  68.126  1.00  0.00    -0.124 A  
BRANCH  35  36
HETATM   36  C   UNL     1      -8.102   7.200  69.454  1.00  0.00    -0.130 C  
BRANCH  36  37
HETATM   37  N   UNL     1      -8.652   7.949  70.595  1.00  0.00    -0.128 NA 
HETATM   38  C   UNL     1      -9.281   7.073  71.588  1.00  0.00    -0.142 C  
HETATM   39  C   UNL     1      -9.559   9.036  70.197  1.00  0.00    -0.193 C  
HETATM   40  C   UNL     1     -10.925   8.549  69.707  1.00  0.00    -0.131 C  
HETATM   41  C   UNL     1     -10.634   6.511  71.144  1.00  0.00    -0.271 C  
HETATM   42  C   UNL     1     -11.600   7.627  70.729  1.00  0.00    -0.284 C  
BRANCH  42  43
HETATM   43  C   UNL     1     -12.115   8.415  71.934  1.00  0.00    -0.342 C  
HETATM   44  N   UNL     1     -13.470   8.514  72.036  1.00  0.00    -0.371 N  
HETATM   45  H2  UNL     1     -14.099   8.090  71.354  1.00  0.00     0.000 HD 
HETATM   46  O   UNL     1     -11.402   8.970  72.762  1.00  0.00     0.212 OA 
HETATM   47  H1  UNL     1     -13.815   9.039  72.840  1.00  0.00     0.000 HD 
ENDBRANCH  42  43
ENDBRANCH  36  37
ENDBRANCH  35  36
ENDBRANCH   4  30
TORSDOF 11
ENDMDL
MODEL      200
REMARK 921   NORMALIZED FREE ENERGY PREDICTED BY IDOCK:   -1.58 KCAL/MOL
REMARK 922        TOTAL FREE ENERGY PREDICTED BY IDOCK:   -4.23 KCAL/MOL
REMARK 923 INTER-LIGAND FREE ENERGY PREDICTED BY IDOCK:   -4.20 KCAL/MOL
REMARK 924 INTRA-LIGAND FREE ENERGY PREDICTED BY IDOCK:   -0.03 KCAL/MOL
REMARK 927      BINDING AFFINITY PREDICTED BY RF-SCORE:    0.00 PKD
ROOT
HETATM    1  C   UNL     1      -8.149   8.506  73.839  1.00  0.00    -0.009 C  
HETATM    2  N   UNL     1      -7.671   7.720  72.711  1.00  0.00    -0.098 N  
HETATM    3  O   UNL     1      -9.832   6.975  72.375  1.00  0.00    -0.154 OA 
HETATM    4  C   UNL     1      -8.657   6.997  72.002  1.00  0.00    -0.119 C  
ENDROOT
BRANCH   2   5
HETATM    5  C   UNL     1      -6.324   7.936  72.181  1.00  0.00    -0.050 C  
BRANCH   5   6
HETATM    6  C   UNL     1      -6.085   8.793  70.928  1.00  0.00    -0.040 C  
BRANCH   6   7
HETATM    7  N   UNL     1      -6.967   9.986  70.919  1.00  0.00    -0.336 NA 
HETATM    8  C   UNL     1      -8.005   9.902  69.881  1.00  0.00    -0.182 C  
HETATM    9  C   UNL     1      -6.253  11.268  70.798  1.00  0.00     0.262 C  
HETATM   10  C   UNL     1      -6.597  11.322  68.314  1.00  0.00    -0.058 C  
HETATM   11  C   UNL     1      -5.568  11.430  69.444  1.00  0.00    -0.051 C  
HETATM   12  C   UNL     1      -7.457  10.064  68.461  1.00  0.00    -0.086 C  
BRANCH  10  13
HETATM   13  O   UNL     1      -7.473  12.466  68.353  1.00  0.00    -0.110 OA 
BRANCH  13  14
HETATM   14  C   UNL     1      -6.959  13.600  67.805  1.00  0.00    -0.162 C  
HETATM   15  H   UNL     1      -6.918  14.317  69.748  1.00  0.00     0.000 HD 
HETATM   16  O   UNL     1      -6.607  13.710  66.641  1.00  0.00     0.765 OA 
HETATM   17  N   UNL     1      -6.921  14.574  68.761  1.00  0.00    -0.098 N  
BRANCH  17  18
HETATM   18  C   UNL     1      -6.886  15.933  68.388  1.00  0.00    -0.116 A  
HETATM   19  C   UNL     1      -8.069  16.689  68.233  1.00  0.00    -0.198 A  
HETATM   20  C   UNL     1      -5.484  17.840  67.854  1.00  0.00    -0.137 A  
HETATM   21  C   UNL     1      -7.890  18.047  67.886  1.00  0.00    -0.235 A  
HETATM   22  C   UNL     1      -6.623  18.618  67.713  1.00  0.00    -0.216 A  
HETATM   23  C   UNL     1      -5.614  16.497  68.182  1.00  0.00    -0.118 A  
BRANCH  19  24
HETATM   24  C   UNL     1      -9.454  16.158  68.429  1.00  0.00    -0.210 A  
HETATM   25  C   UNL     1     -10.177  16.345  69.621  1.00  0.00    -0.198 A  
HETATM   26  C   UNL     1     -11.466  15.824  69.796  1.00  0.00    -0.350 A  
HETATM   27  C   UNL     1     -12.057  15.068  68.791  1.00  0.00    -0.215 A  
HETATM   28  C   UNL     1     -11.367  14.853  67.604  1.00  0.00    -0.348 A  
HETATM   29  C   UNL     1     -10.094  15.404  67.423  1.00  0.00    -0.233 A  
ENDBRANCH  19  24
ENDBRANCH  17  18
ENDBRANCH  13  14
ENDBRANCH  10  13
ENDBRANCH   6   7
ENDBRANCH   5   6
ENDBRANCH   2   5
BRANCH   4  30
HETATM   30  C   UNL     1      -8.337   6.308  70.707  1.00  0.00    -0.126 A  
HETATM   31  C   UNL     1      -7.944   4.962  70.761  1.00  0.00    -0.083 A  
HETATM   32  C   UNL     1      -8.407   6.928  69.457  1.00  0.00    -0.133 A  
HETATM   33  C   UNL     1      -8.261   6.188  68.283  1.00  0.00    -0.114 A  
HETATM   34  C   UNL     1      -7.730   4.232  69.585  1.00  0.00    -0.053 A  
HETATM   35  C   UNL     1      -7.925   4.831  68.335  1.00  0.00    -0.084 A  
BRANCH  35  36
HETATM   36  C   UNL     1      -7.743   4.050  67.050  1.00  0.00    -0.085 C  
BRANCH  36  37
HETATM   37  N   UNL     1      -8.255   4.769  65.873  1.00  0.00    -0.111 NA 
HETATM   38  C   UNL     1      -9.712   4.924  65.900  1.00  0.00    -0.184 C  
HETATM   39  C   UNL     1      -7.808   4.191  64.596  1.00  0.00    -0.085 C  
HETATM   40  C   UNL     1      -8.503   2.874  64.241  1.00  0.00    -0.086 C  
HETATM   41  C   UNL     1     -10.475   3.632  65.598  1.00  0.00     0.550 C  
HETATM   42  C   UNL     1     -10.030   3.012  64.268  1.00  0.00    -0.125 C  
BRANCH  42  43
HETATM   43  C   UNL     1     -10.538   3.810  63.067  1.00  0.00    -0.204 C  
HETATM   44  N   UNL     1      -9.829   4.933  62.764  1.00  0.00    -0.338 N  
HETATM   45  H2  UNL     1      -9.012   5.222  63.303  1.00  0.00     0.000 HD 
HETATM   46  O   UNL     1     -11.532   3.523  62.409  1.00  0.00     0.158 OA 
HETATM   47  H1  UNL     1     -10.167   5.465  61.962  1.00  0.00     0.000 HD 
ENDBRANCH  42  43
ENDBRANCH  36  37
ENDBRANCH  35  36
ENDBRANCH   4  30
TORSDOF 11
ENDMDL
MODEL      201
REMARK 921   NORMALIZED FREE ENERGY PREDICTED BY IDOCK:   -1.58 KCAL/MOL
REMARK 922        TOTAL FREE ENERGY PREDICTED BY IDOCK:   -4.22 KCAL/MOL
REMARK 923 INTER-LIGAND FREE ENERGY PREDICTED BY IDOCK:   -5.73 KCAL/MOL
REMARK 924 INTRA-LIGAND FREE ENERGY PREDICTED BY IDOCK:    1.50 KCAL/MOL
REMARK 927      BINDING AFFINITY PREDICTED BY RF-SCORE:    0.00 PKD
ROOT
HETATM    1  C   UNL     1     -12.408  13.688  63.409  1.00  0.00    -0.101 C  
HETATM    2  N   UNL     1     -11.514  12.884  64.229  1.00  0.00    -0.354 N  
HETATM    3  O   UNL     1     -12.051  11.051  62.929  1.00  0.00     0.678 OA 
HETATM    4  C   UNL     1     -11.382  11.529  63.847  1.00  0.00    -0.312 C  
ENDROOT
BRANCH   2   5
HETATM    5  C   UNL     1     -10.592  13.529  65.165  1.00  0.00    -0.355 C  
BRANCH   5   6
HETATM    6  C   UNL     1      -9.553  14.555  64.685  1.00  0.00     1.231 C  
BRANCH   6   7
HETATM    7  N   UNL     1      -9.216  15.518  65.762  1.00  0.00    -0.273 NA 
HETATM    8  C   UNL     1      -9.157  14.877  67.083  1.00  0.00    -0.222 C  
HETATM    9  C   UNL     1     -10.100  16.694  65.824  1.00  0.00    -0.277 C  
HETATM   10  C   UNL     1     -11.531  15.630  67.588  1.00  0.00    -0.167 C  
HETATM   11  C   UNL     1     -11.527  16.331  66.226  1.00  0.00     0.646 C  
HETATM   12  C   UNL     1     -10.531  14.470  67.621  1.00  0.00    -0.246 C  
BRANCH  10  13
HETATM   13  O   UNL     1     -11.154  16.570  68.613  1.00  0.00    -0.345 OA 
BRANCH  13  14
HETATM   14  C   UNL     1     -10.955  16.026  69.844  1.00  0.00    -0.353 C  
HETATM   15  H   UNL     1     -12.960  15.509  69.752  1.00  0.00     0.000 HD 
HETATM   16  O   UNL     1      -9.865  15.897  70.377  1.00  0.00     0.155 OA 
HETATM   17  N   UNL     1     -12.165  15.671  70.369  1.00  0.00    -0.398 N  
BRANCH  17  18
HETATM   18  C   UNL     1     -12.317  15.528  71.764  1.00  0.00    -0.402 A  
HETATM   19  C   UNL     1     -12.519  14.263  72.360  1.00  0.00    -0.261 A  
HETATM   20  C   UNL     1     -12.353  16.654  73.912  1.00  0.00    -0.397 A  
HETATM   21  C   UNL     1     -12.626  14.258  73.769  1.00  0.00     0.473 A  
HETATM   22  C   UNL     1     -12.531  15.428  74.535  1.00  0.00    -0.647 A  
HETATM   23  C   UNL     1     -12.256  16.706  72.528  1.00  0.00    -0.043 A  
BRANCH  19  24
HETATM   24  C   UNL     1     -12.601  12.970  71.614  1.00  0.00    -0.222 A  
HETATM   25  C   UNL     1     -12.054  12.797  70.329  1.00  0.00    -0.373 A  
HETATM   26  C   UNL     1     -12.157  11.584  69.636  1.00  0.00    -0.363 A  
HETATM   27  C   UNL     1     -12.844  10.515  70.197  1.00  0.00    -0.122 A  
HETATM   28  C   UNL     1     -13.408  10.652  71.459  1.00  0.00    -0.359 A  
HETATM   29  C   UNL     1     -13.273  11.856  72.160  1.00  0.00    -0.366 A  
ENDBRANCH  19  24
ENDBRANCH  17  18
ENDBRANCH  13  14
ENDBRANCH  10  13
ENDBRANCH   6   7
ENDBRANCH   5   6
ENDBRANCH   2   5
BRANCH   4  30
HETATM   30  C   UNL     1     -10.349  10.640  64.477  1.00  0.00    -0.352 A  
HETATM   31  C   UNL     1      -9.235  10.280  63.703  1.00  0.00    -0.315 A  
HETATM   32  C   UNL     1     -10.433  10.154  65.784  1.00  0.00    -0.128 A  
HETATM   33  C   UNL     1      -9.361   9.474  66.364  1.00  0.00    -0.231 A  
HETATM   34  C   UNL     1      -8.186   9.539  64.261  1.00  0.00    -0.157 A  
HETATM   35  C   UNL     1      -8.225   9.163  65.609  1.00  0.00    -0.121 A  
BRANCH  35  36
HETATM   36  C   UNL     1      -7.082   8.399  66.248  1.00  0.00    -0.077 C  
BRANCH  36  37
HETATM   37  N   UNL     1      -7.516   7.583  67.392  1.00  0.00    -0.101 NA 
HETATM   38  C   UNL     1      -8.217   8.373  68.410  1.00  0.00    -0.124 C  
HETATM   39  C   UNL     1      -6.429   6.793  67.991  1.00  0.00    -0.053 C  
HETATM   40  C   UNL     1      -5.441   7.629  68.810  1.00  0.00    -0.026 C  
HETATM   41  C   UNL     1      -7.293   9.269  69.239  1.00  0.00    -0.070 C  
HETATM   42  C   UNL     1      -6.153   8.467  69.878  1.00  0.00    -0.031 C  
BRANCH  42  43
HETATM   43  C   UNL     1      -6.646   7.594  71.032  1.00  0.00    -0.038 C  
HETATM   44  N   UNL     1      -5.791   7.475  72.086  1.00  0.00    -0.036 N  
HETATM   45  H2  UNL     1      -4.882   7.937  72.104  1.00  0.00     0.000 HD 
HETATM   46  O   UNL     1      -7.714   6.991  71.045  1.00  0.00    -0.089 OA 
HETATM   47  H1  UNL     1      -6.119   6.892  72.857  1.00  0.00     0.000 HD 
ENDBRANCH  42  43
ENDBRANCH  36  37
ENDBRANCH  35  36
ENDBRANCH   4  30
TORSDOF 11
ENDMDL
MODEL      202
REMARK 921   NORMALIZED FREE ENERGY PREDICTED BY IDOCK:   -1.49 KCAL/MOL
REMARK 922        TOTAL FREE ENERGY PREDICTED BY IDOCK:   -4.08 KCAL/MOL
REMARK 923 INTER-LIGAND FREE ENERGY PREDICTED BY IDOCK:   -6.38 KCAL/MOL
REMARK 924 INTRA-LIGAND FREE ENERGY PREDICTED BY IDOCK:    2.30 KCAL/MOL
REMARK 927      BINDING AFFINITY PREDICTED BY RF-SCORE:    0.00 PKD
ROOT
HETATM    1  C   UNL     1      -5.150   6.717  71.531  1.00  0.00    -0.027 C  
HETATM    2  N   UNL     1      -6.007   7.367  70.550  1.00  0.00    -0.030 N  
HETATM    3  O   UNL     1      -6.899   8.650  72.252  1.00  0.00    -0.148 OA 
HETATM    4  C   UNL     1      -6.845   8.391  71.048  1.00  0.00    -0.050 C  
ENDROOT
BRANCH   2   5
HETATM    5  C   UNL     1      -5.764   7.177  69.119  1.00  0.00    -0.019 C  
BRANCH   5   6
HETATM    6  C   UNL     1      -5.525   5.779  68.526  1.00  0.00    -0.007 C  
BRANCH   6   7
HETATM    7  N   UNL     1      -6.787   5.004  68.457  1.00  0.00    -0.054 NA 
HETATM    8  C   UNL     1      -7.669   5.273  69.601  1.00  0.00    -0.073 C  
HETATM    9  C   UNL     1      -6.600   3.551  68.312  1.00  0.00    -0.038 C  
HETATM   10  C   UNL     1      -6.824   3.189  70.784  1.00  0.00    -0.033 C  
HETATM   11  C   UNL     1      -5.963   2.917  69.545  1.00  0.00    -0.024 C  
HETATM   12  C   UNL     1      -7.157   4.678  70.915  1.00  0.00    -0.037 C  
BRANCH  10  13
HETATM   13  O   UNL     1      -8.065   2.465  70.673  1.00  0.00    -0.045 OA 
BRANCH  13  14
HETATM   14  C   UNL     1      -9.103   3.000  71.371  1.00  0.00    -0.106 C  
HETATM   15  H   UNL     1      -9.866   3.513  69.514  1.00  0.00     0.000 HD 
HETATM   16  O   UNL     1      -9.276   2.861  72.572  1.00  0.00    -0.091 OA 
HETATM   17  N   UNL     1      -9.890   3.714  70.514  1.00  0.00    -0.128 N  
BRANCH  17  18
HETATM   18  C   UNL     1     -10.734   4.730  71.006  1.00  0.00     0.189 A  
HETATM   19  C   UNL     1     -11.146   5.809  70.192  1.00  0.00    -0.323 A  
HETATM   20  C   UNL     1     -12.013   5.546  72.899  1.00  0.00    -0.046 A  
HETATM   21  C   UNL     1     -12.017   6.741  70.801  1.00  0.00    -0.433 A  
HETATM   22  C   UNL     1     -12.455   6.607  72.125  1.00  0.00    -0.207 A  
HETATM   23  C   UNL     1     -11.146   4.613  72.345  1.00  0.00     0.000 A  
BRANCH  19  24
HETATM   24  C   UNL     1     -10.746   6.004  68.764  1.00  0.00    -0.375 A  
HETATM   25  C   UNL     1     -10.762   7.262  68.135  1.00  0.00    -0.191 A  
HETATM   26  C   UNL     1     -10.402   7.424  66.790  1.00  0.00    -0.321 A  
HETATM   27  C   UNL     1     -10.048   6.320  66.024  1.00  0.00     0.236 A  
HETATM   28  C   UNL     1     -10.031   5.060  66.609  1.00  0.00    -0.246 A  
HETATM   29  C   UNL     1     -10.359   4.910  67.961  1.00  0.00    -0.044 A  
ENDBRANCH  19  24
ENDBRANCH  17  18
ENDBRANCH  13  14
ENDBRANCH  10  13
ENDBRANCH   6   7
ENDBRANCH   5   6
ENDBRANCH   2   5
BRANCH   4  30
HETATM   30  C   UNL     1      -7.630   9.273  70.121  1.00  0.00    -0.111 A  
HETATM   31  C   UNL     1      -9.010   9.396  70.346  1.00  0.00    -0.294 A  
HETATM   32  C   UNL     1      -7.068   9.976  69.053  1.00  0.00    -0.069 A  
HETATM   33  C   UNL     1      -7.819  10.908  68.336  1.00  0.00    -0.123 A  
HETATM   34  C   UNL     1      -9.783  10.281  69.583  1.00  0.00    -0.216 A  
HETATM   35  C   UNL     1      -9.184  11.073  68.596  1.00  0.00    -0.186 A  
BRANCH  35  36
HETATM   36  C   UNL     1      -9.990  12.069  67.789  1.00  0.00    -0.195 C  
BRANCH  36  37
HETATM   37  N   UNL     1      -9.288  13.349  67.605  1.00  0.00    -0.208 NA 
HETATM   38  C   UNL     1      -9.698  14.360  68.585  1.00  0.00    -0.216 C  
HETATM   39  C   UNL     1      -9.380  13.874  66.234  1.00  0.00    -0.156 C  
HETATM   40  C   UNL     1     -10.758  14.444  65.885  1.00  0.00    -0.308 C  
HETATM   41  C   UNL     1     -11.090  14.942  68.324  1.00  0.00    -0.290 C  
HETATM   42  C   UNL     1     -11.209  15.500  66.901  1.00  0.00    -0.159 C  
BRANCH  42  43
HETATM   43  C   UNL     1     -10.430  16.804  66.731  1.00  0.00    -0.258 C  
HETATM   44  N   UNL     1     -10.425  17.632  67.813  1.00  0.00    -0.367 N  
HETATM   45  H2  UNL     1     -10.909  17.397  68.679  1.00  0.00     0.000 HD 
HETATM   46  O   UNL     1      -9.860  17.148  65.700  1.00  0.00    -0.552 OA 
HETATM   47  H1  UNL     1      -9.904  18.503  67.700  1.00  0.00     0.000 HD 
ENDBRANCH  42  43
ENDBRANCH  36  37
ENDBRANCH  35  36
ENDBRANCH   4  30
TORSDOF 11
ENDMDL
MODEL      203
REMARK 921   NORMALIZED FREE ENERGY PREDICTED BY IDOCK:   -1.42 KCAL/MOL
REMARK 922        TOTAL FREE ENERGY PREDICTED BY IDOCK:   -3.97 KCAL/MOL
REMARK 923 INTER-LIGAND FREE ENERGY PREDICTED BY IDOCK:   -5.37 KCAL/MOL
REMARK 924 INTRA-LIGAND FREE ENERGY PREDICTED BY IDOCK:    1.40 KCAL/MOL
REMARK 927      BINDING AFFINITY PREDICTED BY RF-SCORE:    0.00 PKD
ROOT
HETATM    1  C   UNL     1     -12.743  14.272  63.746  1.00  0.00     0.520 C  
HETATM    2  N   UNL     1     -11.696  13.429  64.303  1.00  0.00    -0.393 N  
HETATM    3  O   UNL     1     -12.947  11.576  63.724  1.00  0.00    -0.181 OA 
HETATM    4  C   UNL     1     -11.903  12.035  64.190  1.00  0.00    -0.373 C  
ENDROOT
BRANCH   2   5
HETATM    5  C   UNL     1     -10.396  14.004  64.654  1.00  0.00    -0.309 C  
BRANCH   5   6
HETATM    6  C   UNL     1     -10.212  15.520  64.830  1.00  0.00    -0.074 C  
BRANCH   6   7
HETATM    7  N   UNL     1     -10.320  15.909  66.257  1.00  0.00    -0.301 NA 
HETATM    8  C   UNL     1      -9.699  14.921  67.152  1.00  0.00    -0.228 C  
HETATM    9  C   UNL     1     -11.693  16.187  66.709  1.00  0.00     0.830 C  
HETATM   10  C   UNL     1     -11.964  13.858  67.598  1.00  0.00    -0.368 C  
HETATM   11  C   UNL     1     -12.574  14.941  66.704  1.00  0.00     0.658 C  
HETATM   12  C   UNL     1     -10.491  13.616  67.255  1.00  0.00    -0.260 C  
BRANCH  10  13
HETATM   13  O   UNL     1     -12.034  14.277  68.976  1.00  0.00    -0.319 OA 
BRANCH  13  14
HETATM   14  C   UNL     1     -11.680  13.326  69.882  1.00  0.00    -0.259 C  
HETATM   15  H   UNL     1     -11.404  12.100  68.235  1.00  0.00     0.000 HD 
HETATM   16  O   UNL     1     -11.509  13.533  71.073  1.00  0.00     0.396 OA 
HETATM   17  N   UNL     1     -11.568  12.126  69.241  1.00  0.00    -0.297 N  
BRANCH  17  18
HETATM   18  C   UNL     1     -11.677  10.921  69.966  1.00  0.00    -0.345 A  
HETATM   19  C   UNL     1     -10.590  10.026  70.080  1.00  0.00    -0.350 A  
HETATM   20  C   UNL     1     -13.102   9.518  71.338  1.00  0.00    -0.449 A  
HETATM   21  C   UNL     1     -10.825   8.871  70.860  1.00  0.00    -0.308 A  
HETATM   22  C   UNL     1     -12.052   8.626  71.490  1.00  0.00    -0.369 A  
HETATM   23  C   UNL     1     -12.919  10.660  70.569  1.00  0.00    -0.277 A  
BRANCH  19  24
HETATM   24  C   UNL     1      -9.243  10.233  69.464  1.00  0.00    -0.191 A  
HETATM   25  C   UNL     1      -8.329   9.182  69.264  1.00  0.00    -0.123 A  
HETATM   26  C   UNL     1      -7.063   9.397  68.702  1.00  0.00    -0.070 A  
HETATM   27  C   UNL     1      -6.662  10.681  68.355  1.00  0.00    -0.060 A  
HETATM   28  C   UNL     1      -7.534  11.745  68.548  1.00  0.00    -0.110 A  
HETATM   29  C   UNL     1      -8.809  11.519  69.079  1.00  0.00     0.139 A  
ENDBRANCH  19  24
ENDBRANCH  17  18
ENDBRANCH  13  14
ENDBRANCH  10  13
ENDBRANCH   6   7
ENDBRANCH   5   6
ENDBRANCH   2   5
BRANCH   4  30
HETATM   30  C   UNL     1     -10.820  11.057  64.541  1.00  0.00    -0.257 A  
HETATM   31  C   UNL     1      -9.817  10.819  63.588  1.00  0.00    -0.406 A  
HETATM   32  C   UNL     1     -10.753  10.372  65.757  1.00  0.00    -0.010 A  
HETATM   33  C   UNL     1      -9.633   9.607  66.086  1.00  0.00    -0.295 A  
HETATM   34  C   UNL     1      -8.724   9.997  63.889  1.00  0.00    -0.219 A  
HETATM   35  C   UNL     1      -8.605   9.415  65.157  1.00  0.00    -0.188 A  
BRANCH  35  36
HETATM   36  C   UNL     1      -7.410   8.559  65.521  1.00  0.00    -0.084 C  
BRANCH  36  37
HETATM   37  N   UNL     1      -7.196   7.452  64.576  1.00  0.00    -0.068 NA 
HETATM   38  C   UNL     1      -8.219   6.409  64.694  1.00  0.00    -0.069 C  
HETATM   39  C   UNL     1      -5.843   6.878  64.646  1.00  0.00    -0.036 C  
HETATM   40  C   UNL     1      -5.604   6.018  65.890  1.00  0.00    -0.016 C  
HETATM   41  C   UNL     1      -8.068   5.536  65.943  1.00  0.00    -0.110 C  
HETATM   42  C   UNL     1      -6.667   4.922  66.036  1.00  0.00    -0.053 C  
BRANCH  42  43
HETATM   43  C   UNL     1      -6.462   3.808  65.008  1.00  0.00    -0.031 C  
HETATM   44  N   UNL     1      -6.718   4.147  63.714  1.00  0.00    -0.042 N  
HETATM   45  H2  UNL     1      -7.026   5.082  63.448  1.00  0.00     0.000 HD 
HETATM   46  O   UNL     1      -6.125   2.661  65.281  1.00  0.00    -0.018 OA 
HETATM   47  H1  UNL     1      -6.581   3.404  63.028  1.00  0.00     0.000 HD 
ENDBRANCH  42  43
ENDBRANCH  36  37
ENDBRANCH  35  36
ENDBRANCH   4  30
TORSDOF 11
ENDMDL
MODEL      204
REMARK 921   NORMALIZED FREE ENERGY PREDICTED BY IDOCK:   -1.41 KCAL/MOL
REMARK 922        TOTAL FREE ENERGY PREDICTED BY IDOCK:   -3.96 KCAL/MOL
REMARK 923 INTER-LIGAND FREE ENERGY PREDICTED BY IDOCK:   -4.14 KCAL/MOL
REMARK 924 INTRA-LIGAND FREE ENERGY PREDICTED BY IDOCK:    0.18 KCAL/MOL
REMARK 927      BINDING AFFINITY PREDICTED BY RF-SCORE:    0.00 PKD
ROOT
HETATM    1  C   UNL     1      -5.185  14.306  72.061  1.00  0.00    -0.191 C  
HETATM    2  N   UNL     1      -6.132  14.518  70.977  1.00  0.00    -0.133 N  
HETATM    3  O   UNL     1      -5.467  16.728  70.892  1.00  0.00    -0.153 OA 
HETATM    4  C   UNL     1      -6.152  15.818  70.422  1.00  0.00     0.015 C  
ENDROOT
BRANCH   2   5
HETATM    5  C   UNL     1      -6.767  13.374  70.320  1.00  0.00     0.452 C  
BRANCH   5   6
HETATM    6  C   UNL     1      -5.961  12.413  69.431  1.00  0.00    -0.100 C  
BRANCH   6   7
HETATM    7  N   UNL     1      -6.653  12.167  68.143  1.00  0.00    -0.056 NA 
HETATM    8  C   UNL     1      -7.914  11.433  68.320  1.00  0.00    -0.136 C  
HETATM    9  C   UNL     1      -5.827  11.490  67.130  1.00  0.00    -0.110 C  
HETATM   10  C   UNL     1      -6.755   9.244  67.752  1.00  0.00    -0.068 C  
HETATM   11  C   UNL     1      -5.477  10.057  67.523  1.00  0.00    -0.038 C  
HETATM   12  C   UNL     1      -7.712   9.966  68.705  1.00  0.00    -0.086 C  
BRANCH  10  13
HETATM   13  O   UNL     1      -7.436   9.058  66.496  1.00  0.00    -0.087 OA 
BRANCH  13  14
HETATM   14  C   UNL     1      -7.261   7.836  65.925  1.00  0.00    -0.072 C  
HETATM   15  H   UNL     1      -8.034   7.086  67.695  1.00  0.00     0.000 HD 
HETATM   16  O   UNL     1      -6.950   7.653  64.759  1.00  0.00    -0.053 OA 
HETATM   17  N   UNL     1      -7.475   6.873  66.869  1.00  0.00    -0.082 N  
BRANCH  17  18
HETATM   18  C   UNL     1      -6.925   5.585  66.707  1.00  0.00    -0.065 A  
HETATM   19  C   UNL     1      -6.619   4.765  67.816  1.00  0.00    -0.047 A  
HETATM   20  C   UNL     1      -6.199   3.889  65.131  1.00  0.00    -0.027 A  
HETATM   21  C   UNL     1      -6.102   3.486  67.511  1.00  0.00    -0.028 A  
HETATM   22  C   UNL     1      -5.907   3.049  66.194  1.00  0.00    -0.023 A  
HETATM   23  C   UNL     1      -6.698   5.160  65.386  1.00  0.00    -0.052 A  
BRANCH  19  24
HETATM   24  C   UNL     1      -6.827   5.150  69.246  1.00  0.00    -0.054 A  
HETATM   25  C   UNL     1      -5.954   6.011  69.936  1.00  0.00    -0.025 A  
HETATM   26  C   UNL     1      -6.153   6.346  71.282  1.00  0.00    -0.039 A  
HETATM   27  C   UNL     1      -7.216   5.799  71.989  1.00  0.00    -0.089 A  
HETATM   28  C   UNL     1      -8.092   4.935  71.343  1.00  0.00    -0.110 A  
HETATM   29  C   UNL     1      -7.908   4.631  69.990  1.00  0.00    -0.060 A  
ENDBRANCH  19  24
ENDBRANCH  17  18
ENDBRANCH  13  14
ENDBRANCH  10  13
ENDBRANCH   6   7
ENDBRANCH   5   6
ENDBRANCH   2   5
BRANCH   4  30
HETATM   30  C   UNL     1      -6.933  16.120  69.176  1.00  0.00    -0.201 A  
HETATM   31  C   UNL     1      -6.640  15.376  68.023  1.00  0.00    -0.160 A  
HETATM   32  C   UNL     1      -7.930  17.096  69.100  1.00  0.00    -0.041 A  
HETATM   33  C   UNL     1      -8.731  17.212  67.963  1.00  0.00    -0.221 A  
HETATM   34  C   UNL     1      -7.399  15.537  66.857  1.00  0.00    -0.058 A  
HETATM   35  C   UNL     1      -8.476  16.430  66.831  1.00  0.00    -0.254 A  
BRANCH  35  36
HETATM   36  C   UNL     1      -9.339  16.589  65.596  1.00  0.00     0.092 C  
BRANCH  36  37
HETATM   37  N   UNL     1     -10.741  16.210  65.832  1.00  0.00    -0.292 NA 
HETATM   38  C   UNL     1     -10.866  15.049  66.719  1.00  0.00    -0.318 C  
HETATM   39  C   UNL     1     -11.510  16.015  64.594  1.00  0.00    -0.250 C  
HETATM   40  C   UNL     1     -11.162  14.722  63.851  1.00  0.00     0.659 C  
HETATM   41  C   UNL     1     -10.489  13.722  66.054  1.00  0.00    -0.297 C  
HETATM   42  C   UNL     1     -11.282  13.494  64.761  1.00  0.00    -0.363 C  
BRANCH  42  43
HETATM   43  C   UNL     1     -12.745  13.149  65.041  1.00  0.00    -0.392 C  
HETATM   44  N   UNL     1     -13.303  13.780  66.112  1.00  0.00     0.265 N  
HETATM   45  H2  UNL     1     -12.780  14.438  66.689  1.00  0.00     0.000 HD 
HETATM   46  O   UNL     1     -13.407  12.341  64.399  1.00  0.00    -0.786 OA 
HETATM   47  H1  UNL     1     -14.280  13.550  66.299  1.00  0.00     0.000 HD 
ENDBRANCH  42  43
ENDBRANCH  36  37
ENDBRANCH  35  36
ENDBRANCH   4  30
TORSDOF 11
ENDMDL
MODEL      205
REMARK 921   NORMALIZED FREE ENERGY PREDICTED BY IDOCK:   -1.36 KCAL/MOL
REMARK 922        TOTAL FREE ENERGY PREDICTED BY IDOCK:   -3.87 KCAL/MOL
REMARK 923 INTER-LIGAND FREE ENERGY PREDICTED BY IDOCK:   -6.90 KCAL/MOL
REMARK 924 INTRA-LIGAND FREE ENERGY PREDICTED BY IDOCK:    3.03 KCAL/MOL
REMARK 927      BINDING AFFINITY PREDICTED BY RF-SCORE:    0.00 PKD
ROOT
HETATM    1  C   UNL     1      -8.406   8.423  69.976  1.00  0.00    -0.123 C  
HETATM    2  N   UNL     1      -8.975   9.749  69.791  1.00  0.00    -0.208 N  
HETATM    3  O   UNL     1      -7.531  10.068  68.016  1.00  0.00    -0.086 OA 
HETATM    4  C   UNL     1      -8.461  10.493  68.704  1.00  0.00    -0.138 C  
ENDROOT
BRANCH   2   5
HETATM    5  C   UNL     1     -10.205  10.127  70.488  1.00  0.00     0.035 C  
BRANCH   5   6
HETATM    6  C   UNL     1     -11.004   9.104  71.312  1.00  0.00    -0.330 C  
BRANCH   6   7
HETATM    7  N   UNL     1     -10.768   7.723  70.827  1.00  0.00    -0.223 NA 
HETATM    8  C   UNL     1     -12.017   6.961  70.688  1.00  0.00    -0.348 C  
HETATM    9  C   UNL     1      -9.808   6.952  71.634  1.00  0.00    -0.168 C  
HETATM   10  C   UNL     1     -11.651   5.886  72.961  1.00  0.00    -0.021 C  
HETATM   11  C   UNL     1     -10.329   6.657  73.038  1.00  0.00    -0.244 C  
HETATM   12  C   UNL     1     -12.648   6.581  72.029  1.00  0.00    -0.212 C  
BRANCH  10  13
HETATM   13  O   UNL     1     -11.405   4.564  72.442  1.00  0.00     0.114 OA 
BRANCH  13  14
HETATM   14  C   UNL     1     -10.509   3.828  73.152  1.00  0.00    -0.176 C  
HETATM   15  H   UNL     1      -9.070   4.995  72.225  1.00  0.00     0.000 HD 
HETATM   16  O   UNL     1     -10.806   3.035  74.032  1.00  0.00    -0.186 OA 
HETATM   17  N   UNL     1      -9.250   4.115  72.707  1.00  0.00    -0.114 N  
BRANCH  17  18
HETATM   18  C   UNL     1      -8.199   3.198  72.913  1.00  0.00    -0.079 A  
HETATM   19  C   UNL     1      -7.580   2.528  71.835  1.00  0.00    -0.044 A  
HETATM   20  C   UNL     1      -6.743   2.135  74.536  1.00  0.00    -0.022 A  
HETATM   21  C   UNL     1      -6.519   1.660  72.179  1.00  0.00    -0.014 A  
HETATM   22  C   UNL     1      -6.097   1.475  73.502  1.00  0.00    -0.007 A  
HETATM   23  C   UNL     1      -7.799   2.988  74.245  1.00  0.00    -0.064 A  
BRANCH  19  24
HETATM   24  C   UNL     1      -7.954   2.695  70.397  1.00  0.00    -0.051 A  
HETATM   25  C   UNL     1      -8.715   1.744  69.693  1.00  0.00    -0.109 A  
HETATM   26  C   UNL     1      -9.040   1.908  68.340  1.00  0.00    -0.206 A  
HETATM   27  C   UNL     1      -8.581   3.016  67.640  1.00  0.00    -0.117 A  
HETATM   28  C   UNL     1      -7.817   3.971  68.299  1.00  0.00    -0.069 A  
HETATM   29  C   UNL     1      -7.524   3.819  69.659  1.00  0.00    -0.052 A  
ENDBRANCH  19  24
ENDBRANCH  17  18
ENDBRANCH  13  14
ENDBRANCH  10  13
ENDBRANCH   6   7
ENDBRANCH   5   6
ENDBRANCH   2   5
BRANCH   4  30
HETATM   30  C   UNL     1      -9.092  11.787  68.279  1.00  0.00    -0.187 A  
HETATM   31  C   UNL     1      -8.494  12.981  68.710  1.00  0.00     0.149 A  
HETATM   32  C   UNL     1     -10.236  11.870  67.480  1.00  0.00    -0.212 A  
HETATM   33  C   UNL     1     -10.672  13.098  66.982  1.00  0.00    -0.270 A  
HETATM   34  C   UNL     1      -8.971  14.221  68.267  1.00  0.00    -0.187 A  
HETATM   35  C   UNL     1     -10.042  14.286  67.368  1.00  0.00    -0.247 A  
BRANCH  35  36
HETATM   36  C   UNL     1     -10.546  15.613  66.838  1.00  0.00    -0.311 C  
BRANCH  36  37
HETATM   37  N   UNL     1     -10.262  16.732  67.750  1.00  0.00    -0.292 NA 
HETATM   38  C   UNL     1     -10.929  17.972  67.342  1.00  0.00    -0.075 C  
HETATM   39  C   UNL     1      -8.825  16.953  67.973  1.00  0.00    -0.216 C  
HETATM   40  C   UNL     1      -8.109  17.590  66.779  1.00  0.00    -0.275 C  
HETATM   41  C   UNL     1     -10.292  18.641  66.121  1.00  0.00    -0.481 C  
HETATM   42  C   UNL     1      -8.793  18.886  66.331  1.00  0.00    -0.310 C  
BRANCH  42  43
HETATM   43  C   UNL     1      -8.533  20.023  67.320  1.00  0.00    -0.334 C  
HETATM   44  N   UNL     1      -8.102  19.641  68.555  1.00  0.00    -0.330 N  
HETATM   45  H2  UNL     1      -7.963  18.662  68.804  1.00  0.00     0.000 HD 
HETATM   46  O   UNL     1      -8.716  21.212  67.081  1.00  0.00    -0.055 OA 
HETATM   47  H1  UNL     1      -7.928  20.400  69.215  1.00  0.00     0.000 HD 
ENDBRANCH  42  43
ENDBRANCH  36  37
ENDBRANCH  35  36
ENDBRANCH   4  30
TORSDOF 11
ENDMDL
MODEL      206
REMARK 921   NORMALIZED FREE ENERGY PREDICTED BY IDOCK:   -1.35 KCAL/MOL
REMARK 922        TOTAL FREE ENERGY PREDICTED BY IDOCK:   -3.86 KCAL/MOL
REMARK 923 INTER-LIGAND FREE ENERGY PREDICTED BY IDOCK:   -7.42 KCAL/MOL
REMARK 924 INTRA-LIGAND FREE ENERGY PREDICTED BY IDOCK:    3.56 KCAL/MOL
REMARK 927      BINDING AFFINITY PREDICTED BY RF-SCORE:    0.00 PKD
ROOT
HETATM    1  C   UNL     1     -11.268  16.851  68.228  1.00  0.00    -0.105 C  
HETATM    2  N   UNL     1     -10.817  15.469  68.145  1.00  0.00    -0.285 N  
HETATM    3  O   UNL     1     -11.811  15.074  70.193  1.00  0.00    -0.274 OA 
HETATM    4  C   UNL     1     -11.204  14.631  69.215  1.00  0.00    -0.282 C  
ENDROOT
BRANCH   2   5
HETATM    5  C   UNL     1     -10.287  14.941  66.887  1.00  0.00    -0.264 C  
BRANCH   5   6
HETATM    6  C   UNL     1     -11.086  15.040  65.577  1.00  0.00    -0.357 C  
BRANCH   6   7
HETATM    7  N   UNL     1     -10.682  13.979  64.622  1.00  0.00    -0.415 NA 
HETATM    8  C   UNL     1     -11.758  13.007  64.383  1.00  0.00    -0.373 C  
HETATM    9  C   UNL     1      -9.449  13.266  64.994  1.00  0.00     0.459 C  
HETATM   10  C   UNL     1     -10.745  11.418  66.087  1.00  0.00    -0.267 C  
HETATM   11  C   UNL     1      -9.613  12.436  66.263  1.00  0.00    -0.245 C  
HETATM   12  C   UNL     1     -12.024  12.090  65.578  1.00  0.00    -0.168 C  
BRANCH  10  13
HETATM   13  O   UNL     1     -10.351  10.425  65.120  1.00  0.00    -0.295 OA 
BRANCH  13  14
HETATM   14  C   UNL     1      -9.008  10.231  65.014  1.00  0.00    -0.196 C  
HETATM   15  H   UNL     1      -9.411   9.707  63.050  1.00  0.00     0.000 HD 
HETATM   16  O   UNL     1      -8.194  10.541  65.868  1.00  0.00    -0.142 OA 
HETATM   17  N   UNL     1      -8.743   9.630  63.817  1.00  0.00    -0.209 N  
BRANCH  17  18
HETATM   18  C   UNL     1      -7.548   8.903  63.638  1.00  0.00    -0.118 A  
HETATM   19  C   UNL     1      -7.414   7.575  64.100  1.00  0.00    -0.099 A  
HETATM   20  C   UNL     1      -5.303   8.912  62.718  1.00  0.00    -0.070 A  
HETATM   21  C   UNL     1      -6.175   6.952  63.828  1.00  0.00    -0.043 A  
HETATM   22  C   UNL     1      -5.142   7.601  63.139  1.00  0.00    -0.038 A  
HETATM   23  C   UNL     1      -6.501   9.567  62.975  1.00  0.00    -0.102 A  
BRANCH  19  24
HETATM   24  C   UNL     1      -8.479   6.808  64.816  1.00  0.00     0.087 A  
HETATM   25  C   UNL     1      -9.318   7.392  65.783  1.00  0.00     0.141 A  
HETATM   26  C   UNL     1     -10.298   6.653  66.458  1.00  0.00    -0.120 A  
HETATM   27  C   UNL     1     -10.444   5.294  66.210  1.00  0.00    -0.311 A  
HETATM   28  C   UNL     1      -9.625   4.680  65.271  1.00  0.00    -0.161 A  
HETATM   29  C   UNL     1      -8.670   5.430  64.575  1.00  0.00    -0.028 A  
ENDBRANCH  19  24
ENDBRANCH  17  18
ENDBRANCH  13  14
ENDBRANCH  10  13
ENDBRANCH   6   7
ENDBRANCH   5   6
ENDBRANCH   2   5
BRANCH   4  30
HETATM   30  C   UNL     1     -10.980  13.147  69.162  1.00  0.00    -0.194 A  
HETATM   31  C   UNL     1      -9.654  12.685  69.143  1.00  0.00     0.548 A  
HETATM   32  C   UNL     1     -12.010  12.205  69.132  1.00  0.00    -0.311 A  
HETATM   33  C   UNL     1     -11.737  10.842  69.254  1.00  0.00    -0.374 A  
HETATM   34  C   UNL     1      -9.375  11.314  69.197  1.00  0.00     0.082 A  
HETATM   35  C   UNL     1     -10.416  10.383  69.291  1.00  0.00    -0.257 A  
BRANCH  35  36
HETATM   36  C   UNL     1     -10.137   8.897  69.396  1.00  0.00    -0.202 C  
BRANCH  36  37
HETATM   37  N   UNL     1     -11.059   8.211  70.314  1.00  0.00    -0.248 NA 
HETATM   38  C   UNL     1     -10.889   8.641  71.705  1.00  0.00    -0.325 C  
HETATM   39  C   UNL     1     -11.010   6.745  70.203  1.00  0.00    -0.292 C  
HETATM   40  C   UNL     1      -9.752   6.124  70.815  1.00  0.00    -0.205 C  
HETATM   41  C   UNL     1      -9.622   8.093  72.368  1.00  0.00    -0.335 C  
HETATM   42  C   UNL     1      -9.551   6.565  72.270  1.00  0.00    -0.149 C  
BRANCH  42  43
HETATM   43  C   UNL     1     -10.554   5.884  73.201  1.00  0.00    -0.245 C  
HETATM   44  N   UNL     1     -11.866   6.160  72.955  1.00  0.00    -0.432 N  
HETATM   45  H2  UNL     1     -12.158   6.780  72.200  1.00  0.00     0.000 HD 
HETATM   46  O   UNL     1     -10.252   5.158  74.143  1.00  0.00    -0.202 OA 
HETATM   47  H1  UNL     1     -12.536   5.705  73.577  1.00  0.00     0.000 HD 
ENDBRANCH  42  43
ENDBRANCH  36  37
ENDBRANCH  35  36
ENDBRANCH   4  30
TORSDOF 11
ENDMDL
MODEL      207
REMARK 921   NORMALIZED FREE ENERGY PREDICTED BY IDOCK:   -1.27 KCAL/MOL
REMARK 922        TOTAL FREE ENERGY PREDICTED BY IDOCK:   -3.72 KCAL/MOL
REMARK 923 INTER-LIGAND FREE ENERGY PREDICTED BY IDOCK:   -6.66 KCAL/MOL
REMARK 924 INTRA-LIGAND FREE ENERGY PREDICTED BY IDOCK:    2.93 KCAL/MOL
REMARK 927      BINDING AFFINITY PREDICTED BY RF-SCORE:    0.00 PKD
ROOT
HETATM    1  C   UNL     1     -11.190   4.217  64.913  1.00  0.00     0.311 C  
HETATM    2  N   UNL     1     -10.404   4.709  66.034  1.00  0.00    -0.287 N  
HETATM    3  O   UNL     1      -8.885   3.012  65.651  1.00  0.00    -0.126 OA 
HETATM    4  C   UNL     1      -9.198   4.018  66.290  1.00  0.00    -0.158 C  
ENDROOT
BRANCH   2   5
HETATM    5  C   UNL     1     -10.701   6.014  66.626  1.00  0.00    -0.244 C  
BRANCH   5   6
HETATM    6  C   UNL     1     -10.078   7.305  66.071  1.00  0.00     0.570 C  
BRANCH   6   7
HETATM    7  N   UNL     1      -9.267   7.995  67.102  1.00  0.00    -0.138 NA 
HETATM    8  C   UNL     1     -10.080   8.442  68.243  1.00  0.00    -0.199 C  
HETATM    9  C   UNL     1      -8.470   9.125  66.594  1.00  0.00    -0.123 C  
HETATM   10  C   UNL     1     -10.236  10.779  67.256  1.00  0.00    -0.205 C  
HETATM   11  C   UNL     1      -9.339  10.284  66.116  1.00  0.00    -0.211 C  
HETATM   12  C   UNL     1     -10.997   9.621  67.909  1.00  0.00    -0.205 C  
BRANCH  10  13
HETATM   13  O   UNL     1      -9.423  11.402  68.270  1.00  0.00    -0.174 OA 
BRANCH  13  14
HETATM   14  C   UNL     1      -8.721  12.489  67.851  1.00  0.00    -0.180 C  
HETATM   15  H   UNL     1      -9.370  13.374  69.608  1.00  0.00     0.000 HD 
HETATM   16  O   UNL     1      -7.969  12.501  66.889  1.00  0.00    -0.122 OA 
HETATM   17  N   UNL     1      -9.010  13.544  68.669  1.00  0.00    -0.071 N  
BRANCH  17  18
HETATM   18  C   UNL     1      -8.813  14.865  68.219  1.00  0.00    -0.172 A  
HETATM   19  C   UNL     1      -9.493  15.371  67.089  1.00  0.00    -0.221 A  
HETATM   20  C   UNL     1      -7.687  16.979  68.608  1.00  0.00    -0.251 A  
HETATM   21  C   UNL     1      -9.226  16.721  66.765  1.00  0.00    -0.263 A  
HETATM   22  C   UNL     1      -8.351  17.516  67.517  1.00  0.00    -0.220 A  
HETATM   23  C   UNL     1      -7.909  15.652  68.954  1.00  0.00    -0.186 A  
BRANCH  19  24
HETATM   24  C   UNL     1     -10.462  14.595  66.256  1.00  0.00    -0.302 A  
HETATM   25  C   UNL     1     -10.086  13.926  65.076  1.00  0.00    -0.319 A  
HETATM   26  C   UNL     1     -11.011  13.219  64.297  1.00  0.00    -0.418 A  
HETATM   27  C   UNL     1     -12.352  13.190  64.659  1.00  0.00    -0.463 A  
HETATM   28  C   UNL     1     -12.762  13.848  65.812  1.00  0.00    -0.503 A  
HETATM   29  C   UNL     1     -11.828  14.525  66.604  1.00  0.00    -0.383 A  
ENDBRANCH  19  24
ENDBRANCH  17  18
ENDBRANCH  13  14
ENDBRANCH  10  13
ENDBRANCH   6   7
ENDBRANCH   5   6
ENDBRANCH   2   5
BRANCH   4  30
HETATM   30  C   UNL     1      -8.199   4.537  67.283  1.00  0.00    -0.101 A  
HETATM   31  C   UNL     1      -6.854   4.601  66.888  1.00  0.00    -0.055 A  
HETATM   32  C   UNL     1      -8.531   4.959  68.574  1.00  0.00    -0.095 A  
HETATM   33  C   UNL     1      -7.585   5.587  69.385  1.00  0.00    -0.078 A  
HETATM   34  C   UNL     1      -5.888   5.169  67.727  1.00  0.00    -0.018 A  
HETATM   35  C   UNL     1      -6.255   5.701  68.969  1.00  0.00    -0.029 A  
BRANCH  35  36
HETATM   36  C   UNL     1      -5.236   6.362  69.875  1.00  0.00    -0.013 C  
BRANCH  36  37
HETATM   37  N   UNL     1      -5.542   6.176  71.302  1.00  0.00    -0.021 NA 
HETATM   38  C   UNL     1      -6.942   5.805  71.531  1.00  0.00    -0.069 C  
HETATM   39  C   UNL     1      -5.155   7.323  72.137  1.00  0.00    -0.036 C  
HETATM   40  C   UNL     1      -6.074   8.537  71.977  1.00  0.00    -0.066 C  
HETATM   41  C   UNL     1      -7.925   6.963  71.343  1.00  0.00    -0.108 C  
HETATM   42  C   UNL     1      -7.545   8.171  72.207  1.00  0.00    -0.147 C  
BRANCH  42  43
HETATM   43  C   UNL     1      -7.832   7.927  73.689  1.00  0.00    -0.170 C  
HETATM   44  N   UNL     1      -9.124   8.115  74.077  1.00  0.00    -0.281 N  
HETATM   45  H2  UNL     1      -9.852   8.401  73.422  1.00  0.00     0.000 HD 
HETATM   46  O   UNL     1      -6.987   7.616  74.522  1.00  0.00    -0.106 OA 
HETATM   47  H1  UNL     1      -9.316   7.952  75.066  1.00  0.00     0.000 HD 
ENDBRANCH  42  43
ENDBRANCH  36  37
ENDBRANCH  35  36
ENDBRANCH   4  30
TORSDOF 11
ENDMDL
MODEL      208
REMARK 921   NORMALIZED FREE ENERGY PREDICTED BY IDOCK:   -1.26 KCAL/MOL
REMARK 922        TOTAL FREE ENERGY PREDICTED BY IDOCK:   -3.70 KCAL/MOL
REMARK 923 INTER-LIGAND FREE ENERGY PREDICTED BY IDOCK:   -5.22 KCAL/MOL
REMARK 924 INTRA-LIGAND FREE ENERGY PREDICTED BY IDOCK:    1.52 KCAL/MOL
REMARK 927      BINDING AFFINITY PREDICTED BY RF-SCORE:    0.00 PKD
ROOT
HETATM    1  C   UNL     1      -9.136   8.787  72.280  1.00  0.00    -0.093 C  
HETATM    2  N   UNL     1      -8.702   8.328  70.969  1.00  0.00    -0.136 N  
HETATM    3  O   UNL     1     -10.039   6.463  71.232  1.00  0.00    -0.185 OA 
HETATM    4  C   UNL     1      -9.280   7.121  70.516  1.00  0.00    -0.158 C  
ENDROOT
BRANCH   2   5
HETATM    5  C   UNL     1      -7.972   9.231  70.077  1.00  0.00    -0.121 C  
BRANCH   5   6
HETATM    6  C   UNL     1      -6.648   9.884  70.508  1.00  0.00    -0.120 C  
BRANCH   6   7
HETATM    7  N   UNL     1      -6.000  10.581  69.371  1.00  0.00    -0.038 NA 
HETATM    8  C   UNL     1      -5.245  11.766  69.802  1.00  0.00    -0.070 C  
HETATM    9  C   UNL     1      -6.920  10.953  68.283  1.00  0.00    -0.069 C  
HETATM   10  C   UNL     1      -7.202  13.271  69.199  1.00  0.00     0.059 C  
HETATM   11  C   UNL     1      -7.929  12.015  68.708  1.00  0.00    -0.014 C  
HETATM   12  C   UNL     1      -6.139  12.926  70.246  1.00  0.00    -0.068 C  
BRANCH  10  13
HETATM   13  O   UNL     1      -6.539  13.906  68.088  1.00  0.00    -0.097 OA 
BRANCH  13  14
HETATM   14  C   UNL     1      -7.217  14.950  67.538  1.00  0.00    -0.201 C  
HETATM   15  H   UNL     1      -8.837  14.248  68.622  1.00  0.00     0.000 HD 
HETATM   16  O   UNL     1      -6.702  15.845  66.887  1.00  0.00    -0.266 OA 
HETATM   17  N   UNL     1      -8.545  14.814  67.826  1.00  0.00    -0.159 N  
BRANCH  17  18
HETATM   18  C   UNL     1      -9.513  15.454  67.025  1.00  0.00    -0.220 A  
HETATM   19  C   UNL     1      -9.649  16.860  67.010  1.00  0.00    -0.252 A  
HETATM   20  C   UNL     1     -11.283  15.169  65.391  1.00  0.00    -0.338 A  
HETATM   21  C   UNL     1     -10.637  17.372  66.140  1.00  0.00    -0.208 A  
HETATM   22  C   UNL     1     -11.432  16.545  65.334  1.00  0.00     0.491 A  
HETATM   23  C   UNL     1     -10.332  14.621  66.242  1.00  0.00    -0.301 A  
BRANCH  19  24
HETATM   24  C   UNL     1      -8.820  17.807  67.817  1.00  0.00    -0.249 A  
HETATM   25  C   UNL     1      -7.515  18.181  67.446  1.00  0.00    -0.219 A  
HETATM   26  C   UNL     1      -6.744  19.055  68.225  1.00  0.00    -0.263 A  
HETATM   27  C   UNL     1      -7.247  19.555  69.419  1.00  0.00    -0.290 A  
HETATM   28  C   UNL     1      -8.528  19.198  69.823  1.00  0.00     0.690 A  
HETATM   29  C   UNL     1      -9.305  18.351  69.025  1.00  0.00    -0.131 A  
ENDBRANCH  19  24
ENDBRANCH  17  18
ENDBRANCH  13  14
ENDBRANCH  10  13
ENDBRANCH   6   7
ENDBRANCH   5   6
ENDBRANCH   2   5
BRANCH   4  30
HETATM   30  C   UNL     1      -9.075   6.638  69.110  1.00  0.00    -0.137 A  
HETATM   31  C   UNL     1     -10.044   6.978  68.153  1.00  0.00    -0.193 A  
HETATM   32  C   UNL     1      -7.979   5.874  68.700  1.00  0.00    -0.103 A  
HETATM   33  C   UNL     1      -7.762   5.603  67.349  1.00  0.00    -0.100 A  
HETATM   34  C   UNL     1      -9.864   6.647  66.804  1.00  0.00    -0.227 A  
HETATM   35  C   UNL     1      -8.701   5.990  66.386  1.00  0.00    -0.133 A  
BRANCH  35  36
HETATM   36  C   UNL     1      -8.462   5.662  64.927  1.00  0.00    -0.122 C  
BRANCH  36  37
HETATM   37  N   UNL     1      -8.545   4.220  64.649  1.00  0.00    -0.120 NA 
HETATM   38  C   UNL     1      -8.342   3.909  63.231  1.00  0.00    -0.091 C  
HETATM   39  C   UNL     1      -9.778   3.598  65.156  1.00  0.00    -0.157 C  
HETATM   40  C   UNL     1     -11.024   3.947  64.337  1.00  0.00    -0.046 C  
HETATM   41  C   UNL     1      -9.535   4.276  62.343  1.00  0.00    -0.126 C  
HETATM   42  C   UNL     1     -10.832   3.635  62.849  1.00  0.00    -0.138 C  
BRANCH  42  43
HETATM   43  C   UNL     1     -10.866   2.129  62.587  1.00  0.00    -0.182 C  
HETATM   44  N   UNL     1      -9.651   1.521  62.493  1.00  0.00    -0.088 N  
HETATM   45  H2  UNL     1      -8.776   2.036  62.591  1.00  0.00     0.000 HD 
HETATM   46  O   UNL     1     -11.889   1.471  62.429  1.00  0.00    -0.235 OA 
HETATM   47  H1  UNL     1      -9.673   0.516  62.319  1.00  0.00     0.000 HD 
ENDBRANCH  42  43
ENDBRANCH  36  37
ENDBRANCH  35  36
ENDBRANCH   4  30
TORSDOF 11
ENDMDL
MODEL      209
REMARK 921   NORMALIZED FREE ENERGY PREDICTED BY IDOCK:   -1.22 KCAL/MOL
REMARK 922        TOTAL FREE ENERGY PREDICTED BY IDOCK:   -3.64 KCAL/MOL
REMARK 923 INTER-LIGAND FREE ENERGY PREDICTED BY IDOCK:   -6.04 KCAL/MOL
REMARK 924 INTRA-LIGAND FREE ENERGY PREDICTED BY IDOCK:    2.40 KCAL/MOL
REMARK 927      BINDING AFFINITY PREDICTED BY RF-SCORE:    0.00 PKD
ROOT
HETATM    1  C   UNL     1      -6.091   7.177  68.265  1.00  0.00    -0.034 C  
HETATM    2  N   UNL     1      -5.839   8.580  68.555  1.00  0.00    -0.040 N  
HETATM    3  O   UNL     1      -6.658   9.110  66.461  1.00  0.00    -0.066 OA 
HETATM    4  C   UNL     1      -6.219   9.495  67.547  1.00  0.00    -0.057 C  
ENDROOT
BRANCH   2   5
HETATM    5  C   UNL     1      -5.517   9.005  69.918  1.00  0.00    -0.028 C  
BRANCH   5   6
HETATM    6  C   UNL     1      -6.543   8.885  71.057  1.00  0.00    -0.069 C  
BRANCH   6   7
HETATM    7  N   UNL     1      -7.317   7.625  70.950  1.00  0.00    -0.066 NA 
HETATM    8  C   UNL     1      -8.353   7.695  69.910  1.00  0.00    -0.132 C  
HETATM    9  C   UNL     1      -7.920   7.173  72.215  1.00  0.00    -0.097 C  
HETATM   10  C   UNL     1     -10.112   8.257  71.657  1.00  0.00    -0.215 C  
HETATM   11  C   UNL     1      -9.011   8.117  72.713  1.00  0.00    -0.313 C  
HETATM   12  C   UNL     1      -9.527   8.603  70.284  1.00  0.00    -0.182 C  
BRANCH  10  13
HETATM   13  O   UNL     1     -10.820   7.007  71.533  1.00  0.00    -0.228 OA 
BRANCH  13  14
HETATM   14  C   UNL     1     -11.146   6.658  70.260  1.00  0.00    -0.326 C  
HETATM   15  H   UNL     1     -10.264   4.839  70.713  1.00  0.00     0.000 HD 
HETATM   16  O   UNL     1     -11.852   7.323  69.518  1.00  0.00     0.236 OA 
HETATM   17  N   UNL     1     -10.548   5.468  69.962  1.00  0.00    -0.316 N  
BRANCH  17  18
HETATM   18  C   UNL     1     -10.321   5.105  68.618  1.00  0.00    -0.078 A  
HETATM   19  C   UNL     1      -9.490   4.014  68.276  1.00  0.00    -0.216 A  
HETATM   20  C   UNL     1     -10.832   5.568  66.292  1.00  0.00    -0.127 A  
HETATM   21  C   UNL     1      -9.373   3.741  66.895  1.00  0.00    -0.214 A  
HETATM   22  C   UNL     1     -10.041   4.493  65.920  1.00  0.00    -0.279 A  
HETATM   23  C   UNL     1     -10.965   5.881  67.639  1.00  0.00    -0.247 A  
BRANCH  19  24
HETATM   24  C   UNL     1      -8.769   3.148  69.259  1.00  0.00    -0.133 A  
HETATM   25  C   UNL     1      -9.117   3.092  70.621  1.00  0.00    -0.191 A  
HETATM   26  C   UNL     1      -8.418   2.290  71.533  1.00  0.00    -0.086 A  
HETATM   27  C   UNL     1      -7.324   1.544  71.112  1.00  0.00    -0.032 A  
HETATM   28  C   UNL     1      -6.944   1.583  69.776  1.00  0.00    -0.033 A  
HETATM   29  C   UNL     1      -7.667   2.361  68.864  1.00  0.00    -0.048 A  
ENDBRANCH  19  24
ENDBRANCH  17  18
ENDBRANCH  13  14
ENDBRANCH  10  13
ENDBRANCH   6   7
ENDBRANCH   5   6
ENDBRANCH   2   5
BRANCH   4  30
HETATM   30  C   UNL     1      -6.201  10.976  67.792  1.00  0.00    -0.051 A  
HETATM   31  C   UNL     1      -7.166  11.509  68.661  1.00  0.00    -0.102 A  
HETATM   32  C   UNL     1      -5.280  11.851  67.208  1.00  0.00    -0.109 A  
HETATM   33  C   UNL     1      -5.210  13.186  67.607  1.00  0.00    -0.050 A  
HETATM   34  C   UNL     1      -7.141  12.864  69.012  1.00  0.00    -0.024 A  
HETATM   35  C   UNL     1      -6.138  13.705  68.516  1.00  0.00    -0.091 A  
BRANCH  35  36
HETATM   36  C   UNL     1      -6.064  15.165  68.917  1.00  0.00    -0.093 C  
BRANCH  36  37
HETATM   37  N   UNL     1      -7.233  15.936  68.467  1.00  0.00    -0.124 NA 
HETATM   38  C   UNL     1      -7.202  16.213  67.028  1.00  0.00    -0.221 C  
HETATM   39  C   UNL     1      -7.451  17.169  69.239  1.00  0.00    -0.061 C  
HETATM   40  C   UNL     1      -6.447  18.280  68.919  1.00  0.00    -0.233 C  
HETATM   41  C   UNL     1      -6.184  17.285  66.628  1.00  0.00    -0.248 C  
HETATM   42  C   UNL     1      -6.394  18.583  67.417  1.00  0.00    -0.197 C  
BRANCH  42  43
HETATM   43  C   UNL     1      -7.643  19.336  66.957  1.00  0.00    -0.235 C  
HETATM   44  N   UNL     1      -7.649  19.722  65.651  1.00  0.00    -0.285 N  
HETATM   45  H2  UNL     1      -6.872  19.523  65.021  1.00  0.00     0.000 HD 
HETATM   46  O   UNL     1      -8.588  19.629  67.682  1.00  0.00    -0.304 OA 
HETATM   47  H1  UNL     1      -8.483  20.224  65.343  1.00  0.00     0.000 HD 
ENDBRANCH  42  43
ENDBRANCH  36  37
ENDBRANCH  35  36
ENDBRANCH   4  30
TORSDOF 11
ENDMDL
MODEL      210
REMARK 921   NORMALIZED FREE ENERGY PREDICTED BY IDOCK:   -1.19 KCAL/MOL
REMARK 922        TOTAL FREE ENERGY PREDICTED BY IDOCK:   -3.59 KCAL/MOL
REMARK 923 INTER-LIGAND FREE ENERGY PREDICTED BY IDOCK:   -3.71 KCAL/MOL
REMARK 924 INTRA-LIGAND FREE ENERGY PREDICTED BY IDOCK:    0.11 KCAL/MOL
REMARK 927      BINDING AFFINITY PREDICTED BY RF-SCORE:    0.00 PKD
ROOT
HETATM    1  C   UNL     1      -8.564   9.104  73.836  1.00  0.00     1.897 C  
HETATM    2  N   UNL     1      -8.423   7.870  73.078  1.00  0.00    -0.159 N  
HETATM    3  O   UNL     1     -10.711   7.582  73.212  1.00  0.00    -0.375 OA 
HETATM    4  C   UNL     1      -9.626   7.189  72.779  1.00  0.00    -0.152 C  
ENDROOT
BRANCH   2   5
HETATM    5  C   UNL     1      -7.158   7.554  72.413  1.00  0.00    -0.072 C  
BRANCH   5   6
HETATM    6  C   UNL     1      -5.914   8.439  72.597  1.00  0.00    -0.070 C  
BRANCH   6   7
HETATM    7  N   UNL     1      -5.506   9.062  71.315  1.00  0.00    -0.038 NA 
HETATM    8  C   UNL     1      -6.456  10.091  70.869  1.00  0.00     0.001 C  
HETATM    9  C   UNL     1      -5.270   8.103  70.222  1.00  0.00    -0.023 C  
HETATM   10  C   UNL     1      -7.593   8.418  69.331  1.00  0.00    -0.091 C  
HETATM   11  C   UNL     1      -6.547   7.394  69.781  1.00  0.00    -0.039 C  
HETATM   12  C   UNL     1      -7.787   9.516  70.381  1.00  0.00    -0.190 C  
BRANCH  10  13
HETATM   13  O   UNL     1      -7.154   9.046  68.110  1.00  0.00    -0.076 OA 
BRANCH  13  14
HETATM   14  C   UNL     1      -8.058   9.014  67.093  1.00  0.00    -0.106 C  
HETATM   15  H   UNL     1      -6.574   9.926  65.971  1.00  0.00     0.000 HD 
HETATM   16  O   UNL     1      -9.126   8.425  67.133  1.00  0.00    -0.134 OA 
HETATM   17  N   UNL     1      -7.576   9.753  66.051  1.00  0.00    -0.099 N  
BRANCH  17  18
HETATM   18  C   UNL     1      -8.458  10.276  65.084  1.00  0.00    -0.168 A  
HETATM   19  C   UNL     1      -8.565   9.708  63.795  1.00  0.00    -0.217 A  
HETATM   20  C   UNL     1     -10.153  11.942  64.596  1.00  0.00    -0.301 A  
HETATM   21  C   UNL     1      -9.510  10.311  62.934  1.00  0.00    -0.333 A  
HETATM   22  C   UNL     1     -10.300  11.399  63.329  1.00  0.00    -0.422 A  
HETATM   23  C   UNL     1      -9.226  11.389  65.470  1.00  0.00    -0.193 A  
BRANCH  19  24
HETATM   24  C   UNL     1      -7.779   8.532  63.312  1.00  0.00    -0.138 A  
HETATM   25  C   UNL     1      -8.387   7.352  62.843  1.00  0.00     0.101 A  
HETATM   26  C   UNL     1      -7.634   6.251  62.413  1.00  0.00    -0.071 A  
HETATM   27  C   UNL     1      -6.247   6.286  62.471  1.00  0.00    -0.030 A  
HETATM   28  C   UNL     1      -5.612   7.430  62.939  1.00  0.00    -0.045 A  
HETATM   29  C   UNL     1      -6.368   8.539  63.337  1.00  0.00    -0.085 A  
ENDBRANCH  19  24
ENDBRANCH  17  18
ENDBRANCH  13  14
ENDBRANCH  10  13
ENDBRANCH   6   7
ENDBRANCH   5   6
ENDBRANCH   2   5
BRANCH   4  30
HETATM   30  C   UNL     1      -9.646   6.018  71.841  1.00  0.00    -0.166 A  
HETATM   31  C   UNL     1      -9.988   6.257  70.501  1.00  0.00    -0.221 A  
HETATM   32  C   UNL     1      -9.344   4.708  72.224  1.00  0.00    -0.162 A  
HETATM   33  C   UNL     1      -9.216   3.697  71.272  1.00  0.00    -0.197 A  
HETATM   34  C   UNL     1      -9.927   5.229  69.553  1.00  0.00    -0.297 A  
HETATM   35  C   UNL     1      -9.503   3.948  69.925  1.00  0.00    -0.267 A  
BRANCH  35  36
HETATM   36  C   UNL     1      -9.385   2.830  68.909  1.00  0.00    -0.153 C  
BRANCH  36  37
HETATM   37  N   UNL     1      -9.177   3.328  67.541  1.00  0.00    -0.179 NA 
HETATM   38  C   UNL     1      -8.864   2.253  66.594  1.00  0.00    -0.127 C  
HETATM   39  C   UNL     1      -8.185   4.411  67.458  1.00  0.00    -0.099 C  
HETATM   40  C   UNL     1      -6.740   3.936  67.631  1.00  0.00    -0.043 C  
HETATM   41  C   UNL     1      -7.445   1.696  66.742  1.00  0.00    -0.056 C  
HETATM   42  C   UNL     1      -6.392   2.807  66.654  1.00  0.00    -0.028 C  
BRANCH  42  43
HETATM   43  C   UNL     1      -6.235   3.335  65.228  1.00  0.00    -0.024 C  
HETATM   44  N   UNL     1      -7.070   2.785  64.302  1.00  0.00    -0.048 N  
HETATM   45  H2  UNL     1      -7.755   2.070  64.544  1.00  0.00     0.000 HD 
HETATM   46  O   UNL     1      -5.406   4.168  64.879  1.00  0.00    -0.009 OA 
HETATM   47  H1  UNL     1      -6.965   3.138  63.350  1.00  0.00     0.000 HD 
ENDBRANCH  42  43
ENDBRANCH  36  37
ENDBRANCH  35  36
ENDBRANCH   4  30
TORSDOF 11
ENDMDL
MODEL      211
REMARK 921   NORMALIZED FREE ENERGY PREDICTED BY IDOCK:   -1.11 KCAL/MOL
REMARK 922        TOTAL FREE ENERGY PREDICTED BY IDOCK:   -3.46 KCAL/MOL
REMARK 923 INTER-LIGAND FREE ENERGY PREDICTED BY IDOCK:   -3.54 KCAL/MOL
REMARK 924 INTRA-LIGAND FREE ENERGY PREDICTED BY IDOCK:    0.09 KCAL/MOL
REMARK 927      BINDING AFFINITY PREDICTED BY RF-SCORE:    0.00 PKD
ROOT
HETATM    1  C   UNL     1     -10.307   8.281  66.910  1.00  0.00    -0.320 C  
HETATM    2  N   UNL     1      -9.956   9.654  67.242  1.00  0.00    -0.185 N  
HETATM    3  O   UNL     1     -10.561  10.275  65.100  1.00  0.00    -0.136 OA 
HETATM    4  C   UNL     1     -10.176  10.609  66.223  1.00  0.00    -0.245 C  
ENDROOT
BRANCH   2   5
HETATM    5  C   UNL     1      -9.705  10.034  68.633  1.00  0.00    -0.159 C  
BRANCH   5   6
HETATM    6  C   UNL     1     -10.766   9.821  69.725  1.00  0.00    -0.256 C  
BRANCH   6   7
HETATM    7  N   UNL     1     -10.996   8.377  69.974  1.00  0.00    -0.228 NA 
HETATM    8  C   UNL     1     -12.107   8.143  70.907  1.00  0.00    -0.148 C  
HETATM    9  C   UNL     1      -9.805   7.643  70.434  1.00  0.00    -0.183 C  
HETATM   10  C   UNL     1     -10.474   7.893  72.838  1.00  0.00    -0.355 C  
HETATM   11  C   UNL     1      -9.345   8.085  71.820  1.00  0.00    -0.218 C  
HETATM   12  C   UNL     1     -11.779   8.531  72.350  1.00  0.00    -0.429 C  
BRANCH  10  13
HETATM   13  O   UNL     1     -10.714   6.485  73.028  1.00  0.00    -0.236 OA 
BRANCH  13  14
HETATM   14  C   UNL     1      -9.623   5.765  73.407  1.00  0.00    -0.143 C  
HETATM   15  H   UNL     1      -9.213   5.640  71.380  1.00  0.00     0.000 HD 
HETATM   16  O   UNL     1      -9.248   5.629  74.560  1.00  0.00    -0.121 OA 
HETATM   17  N   UNL     1      -9.045   5.223  72.295  1.00  0.00    -0.138 N  
BRANCH  17  18
HETATM   18  C   UNL     1      -8.216   4.088  72.408  1.00  0.00    -0.098 A  
HETATM   19  C   UNL     1      -7.391   3.665  71.342  1.00  0.00    -0.040 A  
HETATM   20  C   UNL     1      -7.436   2.299  73.848  1.00  0.00    -0.037 A  
HETATM   21  C   UNL     1      -6.588   2.531  71.599  1.00  0.00    -0.019 A  
HETATM   22  C   UNL     1      -6.598   1.867  72.833  1.00  0.00    -0.017 A  
HETATM   23  C   UNL     1      -8.252   3.402  73.634  1.00  0.00    -0.075 A  
BRANCH  19  24
HETATM   24  C   UNL     1      -7.304   4.338  70.009  1.00  0.00    -0.046 A  
HETATM   25  C   UNL     1      -6.726   5.609  69.836  1.00  0.00    -0.051 A  
HETATM   26  C   UNL     1      -6.671   6.234  68.583  1.00  0.00    -0.061 A  
HETATM   27  C   UNL     1      -7.225   5.617  67.469  1.00  0.00    -0.076 A  
HETATM   28  C   UNL     1      -7.814   4.366  67.604  1.00  0.00    -0.085 A  
HETATM   29  C   UNL     1      -7.837   3.733  68.852  1.00  0.00    -0.052 A  
ENDBRANCH  19  24
ENDBRANCH  17  18
ENDBRANCH  13  14
ENDBRANCH  10  13
ENDBRANCH   6   7
ENDBRANCH   5   6
ENDBRANCH   2   5
BRANCH   4  30
HETATM   30  C   UNL     1     -10.046  12.079  66.493  1.00  0.00    -0.224 A  
HETATM   31  C   UNL     1      -8.928  12.746  65.969  1.00  0.00     0.242 A  
HETATM   32  C   UNL     1     -10.971  12.820  67.234  1.00  0.00    -0.294 A  
HETATM   33  C   UNL     1     -10.881  14.210  67.305  1.00  0.00    -0.288 A  
HETATM   34  C   UNL     1      -8.798  14.135  66.097  1.00  0.00     0.302 A  
HETATM   35  C   UNL     1      -9.795  14.882  66.734  1.00  0.00    -0.254 A  
BRANCH  35  36
HETATM   36  C   UNL     1      -9.699  16.390  66.846  1.00  0.00    -0.251 C  
BRANCH  36  37
HETATM   37  N   UNL     1      -9.725  16.858  68.240  1.00  0.00    -0.247 NA 
HETATM   38  C   UNL     1     -10.999  17.490  68.597  1.00  0.00     0.076 C  
HETATM   39  C   UNL     1      -8.588  17.726  68.586  1.00  0.00    -0.262 C  
HETATM   40  C   UNL     1      -8.685  19.132  67.989  1.00  0.00    -0.347 C  
HETATM   41  C   UNL     1     -11.184  18.885  67.994  1.00  0.00     0.417 C  
HETATM   42  C   UNL     1     -10.013  19.811  68.345  1.00  0.00    -0.549 C  
BRANCH  42  43
HETATM   43  C   UNL     1     -10.042  20.240  69.812  1.00  0.00     0.351 C  
HETATM   44  N   UNL     1     -11.107  21.007  70.180  1.00  0.00     0.966 N  
HETATM   45  H2  UNL     1     -11.836  21.277  69.520  1.00  0.00     0.000 HD 
HETATM   46  O   UNL     1      -9.175  19.969  70.636  1.00  0.00     0.975 OA 
HETATM   47  H1  UNL     1     -11.127  21.293  71.159  1.00  0.00     0.000 HD 
ENDBRANCH  42  43
ENDBRANCH  36  37
ENDBRANCH  35  36
ENDBRANCH   4  30
TORSDOF 11
ENDMDL
MODEL      212
REMARK 921   NORMALIZED FREE ENERGY PREDICTED BY IDOCK:   -1.06 KCAL/MOL
REMARK 922        TOTAL FREE ENERGY PREDICTED BY IDOCK:   -3.37 KCAL/MOL
REMARK 923 INTER-LIGAND FREE ENERGY PREDICTED BY IDOCK:   -8.13 KCAL/MOL
REMARK 924 INTRA-LIGAND FREE ENERGY PREDICTED BY IDOCK:    4.76 KCAL/MOL
REMARK 927      BINDING AFFINITY PREDICTED BY RF-SCORE:    0.00 PKD
ROOT
HETATM    1  C   UNL     1      -9.651   9.771  65.022  1.00  0.00    -0.264 C  
HETATM    2  N   UNL     1      -9.411  10.980  65.796  1.00  0.00    -0.202 N  
HETATM    3  O   UNL     1     -11.359  11.865  64.925  1.00  0.00    -0.316 OA 
HETATM    4  C   UNL     1     -10.401  11.984  65.692  1.00  0.00    -0.253 C  
ENDROOT
BRANCH   2   5
HETATM    5  C   UNL     1      -8.385  10.996  66.840  1.00  0.00    -0.138 C  
BRANCH   5   6
HETATM    6  C   UNL     1      -7.622   9.720  67.231  1.00  0.00    -0.088 C  
BRANCH   6   7
HETATM    7  N   UNL     1      -8.247   9.059  68.401  1.00  0.00    -0.115 NA 
HETATM    8  C   UNL     1      -7.924   9.739  69.663  1.00  0.00    -0.150 C  
HETATM    9  C   UNL     1      -7.940   7.624  68.524  1.00  0.00    -0.123 C  
HETATM   10  C   UNL     1      -6.058   8.075  70.119  1.00  0.00    -0.032 C  
HETATM   11  C   UNL     1      -6.467   7.365  68.825  1.00  0.00    -0.044 C  
HETATM   12  C   UNL     1      -6.469   9.551  70.098  1.00  0.00    -0.067 C  
BRANCH  10  13
HETATM   13  O   UNL     1      -6.714   7.448  71.239  1.00  0.00    -0.049 OA 
BRANCH  13  14
HETATM   14  C   UNL     1      -6.737   6.088  71.200  1.00  0.00    -0.058 C  
HETATM   15  H   UNL     1      -7.318   6.324  69.225  1.00  0.00     0.000 HD 
HETATM   16  O   UNL     1      -6.322   5.362  72.089  1.00  0.00    -0.033 OA 
HETATM   17  N   UNL     1      -7.306   5.690  70.024  1.00  0.00    -0.068 N  
BRANCH  17  18
HETATM   18  C   UNL     1      -7.876   4.406  69.912  1.00  0.00    -0.053 A  
HETATM   19  C   UNL     1      -8.993   4.022  70.687  1.00  0.00    -0.151 A  
HETATM   20  C   UNL     1      -7.802   2.260  68.782  1.00  0.00    -0.058 A  
HETATM   21  C   UNL     1      -9.484   2.718  70.454  1.00  0.00    -0.193 A  
HETATM   22  C   UNL     1      -8.910   1.856  69.510  1.00  0.00    -0.132 A  
HETATM   23  C   UNL     1      -7.279   3.530  68.989  1.00  0.00    -0.049 A  
BRANCH  19  24
HETATM   24  C   UNL     1      -9.678   4.894  71.690  1.00  0.00    -0.231 A  
HETATM   25  C   UNL     1     -10.248   4.390  72.873  1.00  0.00    -0.229 A  
HETATM   26  C   UNL     1     -10.903   5.219  73.793  1.00  0.00    -0.315 A  
HETATM   27  C   UNL     1     -11.036   6.578  73.538  1.00  0.00     0.028 A  
HETATM   28  C   UNL     1     -10.495   7.111  72.374  1.00  0.00    -0.247 A  
HETATM   29  C   UNL     1      -9.813   6.283  71.475  1.00  0.00    -0.193 A  
ENDBRANCH  19  24
ENDBRANCH  17  18
ENDBRANCH  13  14
ENDBRANCH  10  13
ENDBRANCH   6   7
ENDBRANCH   5   6
ENDBRANCH   2   5
BRANCH   4  30
HETATM   30  C   UNL     1     -10.382  13.192  66.583  1.00  0.00    -0.265 A  
HETATM   31  C   UNL     1     -11.548  13.970  66.658  1.00  0.00    -0.400 A  
HETATM   32  C   UNL     1      -9.275  13.584  67.340  1.00  0.00    -0.223 A  
HETATM   33  C   UNL     1      -9.377  14.615  68.275  1.00  0.00    -0.199 A  
HETATM   34  C   UNL     1     -11.632  15.049  67.546  1.00  0.00    -0.315 A  
HETATM   35  C   UNL     1     -10.558  15.356  68.390  1.00  0.00    -0.247 A  
BRANCH  35  36
HETATM   36  C   UNL     1     -10.642  16.490  69.391  1.00  0.00    -0.329 C  
BRANCH  36  37
HETATM   37  N   UNL     1     -10.872  17.795  68.751  1.00  0.00     0.020 NA 
HETATM   38  C   UNL     1     -10.830  17.717  67.287  1.00  0.00    -0.136 C  
HETATM   39  C   UNL     1      -9.984  18.855  69.250  1.00  0.00    -0.101 C  
HETATM   40  C   UNL     1      -8.541  18.734  68.751  1.00  0.00    -0.316 C  
HETATM   41  C   UNL     1      -9.419  17.547  66.719  1.00  0.00    -0.282 C  
HETATM   42  C   UNL     1      -8.474  18.645  67.222  1.00  0.00    -0.275 C  
BRANCH  42  43
HETATM   43  C   UNL     1      -8.771  19.997  66.573  1.00  0.00    -0.317 C  
HETATM   44  N   UNL     1      -7.864  20.419  65.649  1.00  0.00    -0.513 N  
HETATM   45  H2  UNL     1      -7.040  19.869  65.406  1.00  0.00     0.000 HD 
HETATM   46  O   UNL     1      -9.728  20.711  66.855  1.00  0.00    -0.410 OA 
HETATM   47  H1  UNL     1      -8.062  21.321  65.215  1.00  0.00     0.000 HD 
ENDBRANCH  42  43
ENDBRANCH  36  37
ENDBRANCH  35  36
ENDBRANCH   4  30
TORSDOF 11
ENDMDL
MODEL      213
REMARK 921   NORMALIZED FREE ENERGY PREDICTED BY IDOCK:   -1.01 KCAL/MOL
REMARK 922        TOTAL FREE ENERGY PREDICTED BY IDOCK:   -3.29 KCAL/MOL
REMARK 923 INTER-LIGAND FREE ENERGY PREDICTED BY IDOCK:   -4.33 KCAL/MOL
REMARK 924 INTRA-LIGAND FREE ENERGY PREDICTED BY IDOCK:    1.04 KCAL/MOL
REMARK 927      BINDING AFFINITY PREDICTED BY RF-SCORE:    0.00 PKD
ROOT
HETATM    1  C   UNL     1     -12.476  15.897  67.514  1.00  0.00     1.710 C  
HETATM    2  N   UNL     1     -11.998  14.596  67.073  1.00  0.00    -0.347 N  
HETATM    3  O   UNL     1     -11.911  15.415  64.914  1.00  0.00    -0.224 OA 
HETATM    4  C   UNL     1     -11.697  14.485  65.696  1.00  0.00    -0.335 C  
ENDROOT
BRANCH   2   5
HETATM    5  C   UNL     1     -11.566  13.598  68.052  1.00  0.00    -0.333 C  
BRANCH   5   6
HETATM    6  C   UNL     1     -10.172  13.663  68.699  1.00  0.00    -0.197 C  
BRANCH   6   7
HETATM    7  N   UNL     1      -9.656  15.053  68.720  1.00  0.00    -0.214 NA 
HETATM    8  C   UNL     1      -8.833  15.359  67.541  1.00  0.00    -0.180 C  
HETATM    9  C   UNL     1      -8.914  15.406  69.942  1.00  0.00     0.121 C  
HETATM   10  C   UNL     1      -6.713  14.886  68.859  1.00  0.00    -0.100 C  
HETATM   11  C   UNL     1      -7.607  14.632  70.077  1.00  0.00     0.294 C  
HETATM   12  C   UNL     1      -7.474  14.655  67.551  1.00  0.00    -0.217 C  
BRANCH  10  13
HETATM   13  O   UNL     1      -6.261  16.255  68.874  1.00  0.00    -0.129 OA 
BRANCH  13  14
HETATM   14  C   UNL     1      -5.914  16.756  67.657  1.00  0.00    -0.145 C  
HETATM   15  H   UNL     1      -6.086  18.612  68.561  1.00  0.00     0.000 HD 
HETATM   16  O   UNL     1      -5.529  16.082  66.715  1.00  0.00    -0.268 OA 
HETATM   17  N   UNL     1      -6.083  18.111  67.673  1.00  0.00    -0.165 N  
BRANCH  17  18
HETATM   18  C   UNL     1      -6.254  18.818  66.466  1.00  0.00    -0.178 A  
HETATM   19  C   UNL     1      -7.472  19.462  66.151  1.00  0.00    -0.297 A  
HETATM   20  C   UNL     1      -5.218  19.562  64.402  1.00  0.00    -0.218 A  
HETATM   21  C   UNL     1      -7.498  20.161  64.924  1.00  0.00     0.451 A  
HETATM   22  C   UNL     1      -6.389  20.223  64.069  1.00  0.00    -0.177 A  
HETATM   23  C   UNL     1      -5.152  18.852  65.594  1.00  0.00    -0.174 A  
BRANCH  19  24
HETATM   24  C   UNL     1      -8.687  19.466  67.023  1.00  0.00    -0.328 A  
HETATM   25  C   UNL     1      -8.624  19.265  68.414  1.00  0.00    -0.389 A  
HETATM   26  C   UNL     1      -9.775  19.252  69.214  1.00  0.00    -0.292 A  
HETATM   27  C   UNL     1     -11.029  19.405  68.637  1.00  0.00     0.758 A  
HETATM   28  C   UNL     1     -11.131  19.595  67.264  1.00  0.00    -0.255 A  
HETATM   29  C   UNL     1      -9.976  19.640  66.475  1.00  0.00    -0.545 A  
ENDBRANCH  19  24
ENDBRANCH  17  18
ENDBRANCH  13  14
ENDBRANCH  10  13
ENDBRANCH   6   7
ENDBRANCH   5   6
ENDBRANCH   2   5
BRANCH   4  30
HETATM   30  C   UNL     1     -11.012  13.269  65.143  1.00  0.00    -0.314 A  
HETATM   31  C   UNL     1     -11.673  12.545  64.139  1.00  0.00    -0.471 A  
HETATM   32  C   UNL     1      -9.760  12.820  65.570  1.00  0.00    -0.089 A  
HETATM   33  C   UNL     1      -9.106  11.785  64.901  1.00  0.00     0.246 A  
HETATM   34  C   UNL     1     -11.047  11.461  63.510  1.00  0.00    -0.373 A  
HETATM   35  C   UNL     1      -9.741  11.097  63.861  1.00  0.00    -0.325 A  
BRANCH  35  36
HETATM   36  C   UNL     1      -9.027   9.958  63.164  1.00  0.00    -0.258 C  
BRANCH  36  37
HETATM   37  N   UNL     1      -8.858   8.780  64.030  1.00  0.00     0.030 NA 
HETATM   38  C   UNL     1      -8.198   9.107  65.297  1.00  0.00    -0.134 C  
HETATM   39  C   UNL     1      -8.190   7.654  63.360  1.00  0.00     0.037 C  
HETATM   40  C   UNL     1      -6.688   7.864  63.154  1.00  0.00    -0.079 C  
HETATM   41  C   UNL     1      -6.697   9.376  65.159  1.00  0.00    -0.080 C  
HETATM   42  C   UNL     1      -5.977   8.212  64.467  1.00  0.00    -0.052 C  
BRANCH  42  43
HETATM   43  C   UNL     1      -5.861   6.989  65.377  1.00  0.00    -0.036 C  
HETATM   44  N   UNL     1      -5.811   7.253  66.713  1.00  0.00    -0.033 N  
HETATM   45  H2  UNL     1      -5.849   8.203  67.082  1.00  0.00     0.000 HD 
HETATM   46  O   UNL     1      -5.779   5.831  64.983  1.00  0.00    -0.022 OA 
HETATM   47  H1  UNL     1      -5.734   6.437  67.321  1.00  0.00     0.000 HD 
ENDBRANCH  42  43
ENDBRANCH  36  37
ENDBRANCH  35  36
ENDBRANCH   4  30
TORSDOF 11
ENDMDL
MODEL      214
REMARK 921   NORMALIZED FREE ENERGY PREDICTED BY IDOCK:   -1.01 KCAL/MOL
REMARK 922        TOTAL FREE ENERGY PREDICTED BY IDOCK:   -3.29 KCAL/MOL
REMARK 923 INTER-LIGAND FREE ENERGY PREDICTED BY IDOCK:   -6.35 KCAL/MOL
REMARK 924 INTRA-LIGAND FREE ENERGY PREDICTED BY IDOCK:    3.06 KCAL/MOL
REMARK 927      BINDING AFFINITY PREDICTED BY RF-SCORE:    0.00 PKD
ROOT
HETATM    1  C   UNL     1      -5.245  14.386  72.736  1.00  0.00    -0.217 C  
HETATM    2  N   UNL     1      -6.018  14.651  71.533  1.00  0.00     0.043 N  
HETATM    3  O   UNL     1      -5.131  16.784  71.492  1.00  0.00    -0.345 OA 
HETATM    4  C   UNL     1      -5.837  15.928  70.954  1.00  0.00     0.243 C  
ENDROOT
BRANCH   2   5
HETATM    5  C   UNL     1      -6.673  13.553  70.820  1.00  0.00     1.021 C  
BRANCH   5   6
HETATM    6  C   UNL     1      -5.864  12.389  70.225  1.00  0.00    -0.163 C  
BRANCH   6   7
HETATM    7  N   UNL     1      -6.307  12.081  68.844  1.00  0.00    -0.074 NA 
HETATM    8  C   UNL     1      -7.734  11.737  68.780  1.00  0.00    -0.091 C  
HETATM    9  C   UNL     1      -5.518  11.034  68.173  1.00  0.00    -0.042 C  
HETATM   10  C   UNL     1      -7.170   9.259  68.815  1.00  0.00    -0.074 C  
HETATM   11  C   UNL     1      -5.692   9.664  68.823  1.00  0.00    -0.039 C  
HETATM   12  C   UNL     1      -8.055  10.370  69.388  1.00  0.00    -0.161 C  
BRANCH  10  13
HETATM   13  O   UNL     1      -7.592   9.011  67.459  1.00  0.00    -0.088 OA 
BRANCH  13  14
HETATM   14  C   UNL     1      -7.735   7.698  67.136  1.00  0.00    -0.112 C  
HETATM   15  H   UNL     1      -9.488   7.792  68.235  1.00  0.00     0.000 HD 
HETATM   16  O   UNL     1      -7.032   7.100  66.336  1.00  0.00    -0.065 OA 
HETATM   17  N   UNL     1      -8.769   7.175  67.858  1.00  0.00    -0.126 N  
BRANCH  17  18
HETATM   18  C   UNL     1      -8.846   5.786  68.083  1.00  0.00    -0.105 A  
HETATM   19  C   UNL     1      -9.516   5.254  69.208  1.00  0.00    -0.185 A  
HETATM   20  C   UNL     1      -8.290   3.576  67.251  1.00  0.00    -0.093 A  
HETATM   21  C   UNL     1      -9.544   3.844  69.297  1.00  0.00    -0.232 A  
HETATM   22  C   UNL     1      -8.955   3.018  68.331  1.00  0.00    -0.190 A  
HETATM   23  C   UNL     1      -8.226   4.958  67.131  1.00  0.00    -0.106 A  
BRANCH  19  24
HETATM   24  C   UNL     1     -10.192   6.069  70.264  1.00  0.00    -0.266 A  
HETATM   25  C   UNL     1     -10.446   5.578  71.557  1.00  0.00    -0.298 A  
HETATM   26  C   UNL     1     -11.099   6.349  72.528  1.00  0.00    -0.298 A  
HETATM   27  C   UNL     1     -11.550   7.627  72.220  1.00  0.00    -0.370 A  
HETATM   28  C   UNL     1     -11.326   8.141  70.949  1.00  0.00    -0.286 A  
HETATM   29  C   UNL     1     -10.644   7.379  69.993  1.00  0.00    -0.241 A  
ENDBRANCH  19  24
ENDBRANCH  17  18
ENDBRANCH  13  14
ENDBRANCH  10  13
ENDBRANCH   6   7
ENDBRANCH   5   6
ENDBRANCH   2   5
BRANCH   4  30
HETATM   30  C   UNL     1      -6.416  16.263  69.610  1.00  0.00    -0.190 A  
HETATM   31  C   UNL     1      -6.145  15.391  68.544  1.00  0.00    -0.093 A  
HETATM   32  C   UNL     1      -7.206  17.389  69.361  1.00  0.00    -0.001 A  
HETATM   33  C   UNL     1      -7.850  17.552  68.134  1.00  0.00    -0.244 A  
HETATM   34  C   UNL     1      -6.737  15.589  67.290  1.00  0.00    -0.128 A  
HETATM   35  C   UNL     1      -7.625  16.652  67.087  1.00  0.00    -0.218 A  
BRANCH  35  36
HETATM   36  C   UNL     1      -8.312  16.860  65.753  1.00  0.00     0.282 C  
BRANCH  36  37
HETATM   37  N   UNL     1      -9.721  16.437  65.769  1.00  0.00    -0.503 NA 
HETATM   38  C   UNL     1     -10.450  16.958  66.930  1.00  0.00    -0.271 C  
HETATM   39  C   UNL     1      -9.896  14.982  65.643  1.00  0.00    -0.345 C  
HETATM   40  C   UNL     1      -9.526  14.207  66.911  1.00  0.00    -0.275 C  
HETATM   41  C   UNL     1     -10.095  16.257  68.245  1.00  0.00    -0.243 C  
HETATM   42  C   UNL     1     -10.273  14.738  68.140  1.00  0.00    -0.228 C  
BRANCH  42  43
HETATM   43  C   UNL     1     -11.748  14.336  68.111  1.00  0.00    -0.350 C  
HETATM   44  N   UNL     1     -12.246  13.839  69.278  1.00  0.00    -0.346 N  
HETATM   45  H2  UNL     1     -11.672  13.742  70.116  1.00  0.00     0.000 HD 
HETATM   46  O   UNL     1     -12.470  14.402  67.122  1.00  0.00    -0.234 OA 
HETATM   47  H1  UNL     1     -13.230  13.572  69.259  1.00  0.00     0.000 HD 
ENDBRANCH  42  43
ENDBRANCH  36  37
ENDBRANCH  35  36
ENDBRANCH   4  30
TORSDOF 11
ENDMDL
MODEL      215
REMARK 921   NORMALIZED FREE ENERGY PREDICTED BY IDOCK:   -0.85 KCAL/MOL
REMARK 922        TOTAL FREE ENERGY PREDICTED BY IDOCK:   -3.04 KCAL/MOL
REMARK 923 INTER-LIGAND FREE ENERGY PREDICTED BY IDOCK:   -5.82 KCAL/MOL
REMARK 924 INTRA-LIGAND FREE ENERGY PREDICTED BY IDOCK:    2.79 KCAL/MOL
REMARK 927      BINDING AFFINITY PREDICTED BY RF-SCORE:    0.00 PKD
ROOT
HETATM    1  C   UNL     1     -12.802  15.321  63.761  1.00  0.00     1.192 C  
HETATM    2  N   UNL     1     -11.609  15.128  64.570  1.00  0.00    -0.374 N  
HETATM    3  O   UNL     1     -11.092  17.357  64.253  1.00  0.00    -0.659 OA 
HETATM    4  C   UNL     1     -10.820  16.281  64.789  1.00  0.00    -0.224 C  
ENDROOT
BRANCH   2   5
HETATM    5  C   UNL     1     -11.438  13.901  65.350  1.00  0.00    -0.312 C  
BRANCH   5   6
HETATM    6  C   UNL     1     -11.960  13.790  66.792  1.00  0.00    -0.426 C  
BRANCH   6   7
HETATM    7  N   UNL     1     -12.036  12.374  67.226  1.00  0.00    -0.537 NA 
HETATM    8  C   UNL     1     -11.913  12.232  68.684  1.00  0.00    -0.227 C  
HETATM    9  C   UNL     1     -11.070  11.483  66.562  1.00  0.00    -0.282 C  
HETATM   10  C   UNL     1      -9.439  11.700  68.455  1.00  0.00    -0.173 C  
HETATM   11  C   UNL     1      -9.626  11.802  66.938  1.00  0.00    -0.204 C  
HETATM   12  C   UNL     1     -10.501  12.511  69.204  1.00  0.00     0.071 C  
BRANCH  10  13
HETATM   13  O   UNL     1      -9.564  10.323  68.862  1.00  0.00    -0.171 OA 
BRANCH  13  14
HETATM   14  C   UNL     1      -8.457   9.561  68.651  1.00  0.00    -0.119 C  
HETATM   15  H   UNL     1      -9.795   8.030  68.253  1.00  0.00     0.000 HD 
HETATM   16  O   UNL     1      -7.317   9.994  68.601  1.00  0.00    -0.078 OA 
HETATM   17  N   UNL     1      -8.838   8.256  68.523  1.00  0.00    -0.137 N  
BRANCH  17  18
HETATM   18  C   UNL     1      -7.912   7.220  68.762  1.00  0.00    -0.123 A  
HETATM   19  C   UNL     1      -8.018   6.379  69.893  1.00  0.00    -0.116 A  
HETATM   20  C   UNL     1      -5.949   6.045  67.954  1.00  0.00    -0.017 A  
HETATM   21  C   UNL     1      -7.042   5.362  69.996  1.00  0.00    -0.062 A  
HETATM   22  C   UNL     1      -6.034   5.188  69.039  1.00  0.00    -0.021 A  
HETATM   23  C   UNL     1      -6.880   7.067  67.819  1.00  0.00    -0.074 A  
BRANCH  19  24
HETATM   24  C   UNL     1      -9.081   6.485  70.939  1.00  0.00    -0.154 A  
HETATM   25  C   UNL     1     -10.319   5.824  70.835  1.00  0.00    -0.299 A  
HETATM   26  C   UNL     1     -11.312   5.950  71.816  1.00  0.00    -0.289 A  
HETATM   27  C   UNL     1     -11.107   6.772  72.917  1.00  0.00    -0.277 A  
HETATM   28  C   UNL     1      -9.901   7.449  73.048  1.00  0.00    -0.279 A  
HETATM   29  C   UNL     1      -8.900   7.293  72.082  1.00  0.00    -0.143 A  
ENDBRANCH  19  24
ENDBRANCH  17  18
ENDBRANCH  13  14
ENDBRANCH  10  13
ENDBRANCH   6   7
ENDBRANCH   5   6
ENDBRANCH   2   5
BRANCH   4  30
HETATM   30  C   UNL     1      -9.678  16.269  65.763  1.00  0.00    -0.299 A  
HETATM   31  C   UNL     1      -9.485  15.112  66.533  1.00  0.00    -0.308 A  
HETATM   32  C   UNL     1      -8.799  17.340  65.945  1.00  0.00     0.008 A  
HETATM   33  C   UNL     1      -7.661  17.203  66.740  1.00  0.00    -0.274 A  
HETATM   34  C   UNL     1      -8.380  14.996  67.385  1.00  0.00    -0.210 A  
HETATM   35  C   UNL     1      -7.437  16.028  67.465  1.00  0.00    -0.186 A  
BRANCH  35  36
HETATM   36  C   UNL     1      -6.210  15.908  68.345  1.00  0.00    -0.107 C  
BRANCH  36  37
HETATM   37  N   UNL     1      -6.363  16.608  69.630  1.00  0.00    -0.223 NA 
HETATM   38  C   UNL     1      -7.621  17.356  69.715  1.00  0.00     0.863 C  
HETATM   39  C   UNL     1      -5.215  17.464  69.969  1.00  0.00    -0.208 C  
HETATM   40  C   UNL     1      -5.142  18.750  69.142  1.00  0.00    -0.190 C  
HETATM   41  C   UNL     1      -7.636  18.634  68.873  1.00  0.00    -0.283 C  
HETATM   42  C   UNL     1      -6.451  19.546  69.212  1.00  0.00    -0.359 C  
BRANCH  42  43
HETATM   43  C   UNL     1      -6.619  20.221  70.574  1.00  0.00     0.023 C  
HETATM   44  N   UNL     1      -5.645  21.110  70.914  1.00  0.00    -0.306 N  
HETATM   45  H2  UNL     1      -4.855  21.312  70.301  1.00  0.00     0.000 HD 
HETATM   46  O   UNL     1      -7.531  19.987  71.361  1.00  0.00     0.748 OA 
HETATM   47  H1  UNL     1      -5.757  21.561  71.823  1.00  0.00     0.000 HD 
ENDBRANCH  42  43
ENDBRANCH  36  37
ENDBRANCH  35  36
ENDBRANCH   4  30
TORSDOF 11
ENDMDL
MODEL      216
REMARK 921   NORMALIZED FREE ENERGY PREDICTED BY IDOCK:   -0.83 KCAL/MOL
REMARK 922        TOTAL FREE ENERGY PREDICTED BY IDOCK:   -2.99 KCAL/MOL
REMARK 923 INTER-LIGAND FREE ENERGY PREDICTED BY IDOCK:   -4.95 KCAL/MOL
REMARK 924 INTRA-LIGAND FREE ENERGY PREDICTED BY IDOCK:    1.95 KCAL/MOL
REMARK 927      BINDING AFFINITY PREDICTED BY RF-SCORE:    0.00 PKD
ROOT
HETATM    1  C   UNL     1      -6.070   7.244  68.281  1.00  0.00    -0.031 C  
HETATM    2  N   UNL     1      -5.788   8.647  68.545  1.00  0.00    -0.044 N  
HETATM    3  O   UNL     1      -6.965   9.192  66.633  1.00  0.00    -0.079 OA 
HETATM    4  C   UNL     1      -6.349   9.569  67.632  1.00  0.00    -0.058 C  
ENDROOT
BRANCH   2   5
HETATM    5  C   UNL     1      -5.239   9.059  69.838  1.00  0.00    -0.029 C  
BRANCH   5   6
HETATM    6  C   UNL     1      -6.093   9.029  71.116  1.00  0.00    -0.058 C  
BRANCH   6   7
HETATM    7  N   UNL     1      -6.971   7.834  71.145  1.00  0.00    -0.049 NA 
HETATM    8  C   UNL     1      -8.166   8.042  71.975  1.00  0.00    -0.137 C  
HETATM    9  C   UNL     1      -6.295   6.593  71.560  1.00  0.00    -0.042 C  
HETATM   10  C   UNL     1      -7.046   6.877  73.936  1.00  0.00    -0.080 C  
HETATM   11  C   UNL     1      -5.845   6.632  73.018  1.00  0.00    -0.042 C  
HETATM   12  C   UNL     1      -7.863   8.088  73.474  1.00  0.00    -0.231 C  
BRANCH  10  13
HETATM   13  O   UNL     1      -7.911   5.724  73.912  1.00  0.00    -0.106 OA 
BRANCH  13  14
HETATM   14  C   UNL     1      -9.231   6.002  73.734  1.00  0.00    -0.128 C  
HETATM   15  H   UNL     1      -9.079   4.812  72.045  1.00  0.00     0.000 HD 
HETATM   16  O   UNL     1      -9.934   6.578  74.549  1.00  0.00    -0.315 OA 
HETATM   17  N   UNL     1      -9.616   5.547  72.506  1.00  0.00    -0.149 N  
BRANCH  17  18
HETATM   18  C   UNL     1     -10.752   6.090  71.872  1.00  0.00    -0.234 A  
HETATM   19  C   UNL     1     -11.015   5.863  70.502  1.00  0.00    -0.362 A  
HETATM   20  C   UNL     1     -12.774   7.403  72.141  1.00  0.00    -0.145 A  
HETATM   21  C   UNL     1     -12.203   6.439  70.001  1.00  0.00     0.464 A  
HETATM   22  C   UNL     1     -13.075   7.185  70.806  1.00  0.00     0.049 A  
HETATM   23  C   UNL     1     -11.609   6.866  72.672  1.00  0.00    -0.181 A  
BRANCH  19  24
HETATM   24  C   UNL     1     -10.149   5.056  69.588  1.00  0.00    -0.321 A  
HETATM   25  C   UNL     1      -9.882   3.691  69.803  1.00  0.00    -0.008 A  
HETATM   26  C   UNL     1      -9.052   2.954  68.947  1.00  0.00    -0.207 A  
HETATM   27  C   UNL     1      -8.436   3.574  67.867  1.00  0.00    -0.108 A  
HETATM   28  C   UNL     1      -8.667   4.923  67.630  1.00  0.00    -0.103 A  
HETATM   29  C   UNL     1      -9.523   5.646  68.470  1.00  0.00    -0.149 A  
ENDBRANCH  19  24
ENDBRANCH  17  18
ENDBRANCH  13  14
ENDBRANCH  10  13
ENDBRANCH   6   7
ENDBRANCH   5   6
ENDBRANCH   2   5
BRANCH   4  30
HETATM   30  C   UNL     1      -6.306  11.047  67.892  1.00  0.00    -0.057 A  
HETATM   31  C   UNL     1      -6.905  11.523  69.069  1.00  0.00    -0.107 A  
HETATM   32  C   UNL     1      -5.705  11.972  67.034  1.00  0.00    -0.123 A  
HETATM   33  C   UNL     1      -5.551  13.305  67.415  1.00  0.00     0.095 A  
HETATM   34  C   UNL     1      -6.812  12.875  69.423  1.00  0.00     0.040 A  
HETATM   35  C   UNL     1      -6.100  13.770  68.616  1.00  0.00    -0.088 A  
BRANCH  35  36
HETATM   36  C   UNL     1      -5.946  15.227  69.000  1.00  0.00    -0.098 C  
BRANCH  36  37
HETATM   37  N   UNL     1      -7.240  15.902  69.191  1.00  0.00    -0.184 NA 
HETATM   38  C   UNL     1      -8.076  15.863  67.988  1.00  0.00    -0.141 C  
HETATM   39  C   UNL     1      -7.112  17.274  69.704  1.00  0.00     0.207 C  
HETATM   40  C   UNL     1      -6.611  18.276  68.660  1.00  0.00    -0.234 C  
HETATM   41  C   UNL     1      -7.605  16.809  66.880  1.00  0.00    -0.252 C  
HETATM   42  C   UNL     1      -7.469  18.249  67.389  1.00  0.00    -0.219 C  
BRANCH  42  43
HETATM   43  C   UNL     1      -8.830  18.905  67.623  1.00  0.00    -0.288 C  
HETATM   44  N   UNL     1      -8.912  19.717  68.714  1.00  0.00    -0.309 N  
HETATM   45  H2  UNL     1      -8.118  19.878  69.333  1.00  0.00     0.000 HD 
HETATM   46  O   UNL     1      -9.823  18.718  66.929  1.00  0.00    -0.306 OA 
HETATM   47  H1  UNL     1      -9.821  20.155  68.870  1.00  0.00     0.000 HD 
ENDBRANCH  42  43
ENDBRANCH  36  37
ENDBRANCH  35  36
ENDBRANCH   4  30
TORSDOF 11
ENDMDL
MODEL      217
REMARK 921   NORMALIZED FREE ENERGY PREDICTED BY IDOCK:   -0.69 KCAL/MOL
REMARK 922        TOTAL FREE ENERGY PREDICTED BY IDOCK:   -2.77 KCAL/MOL
REMARK 923 INTER-LIGAND FREE ENERGY PREDICTED BY IDOCK:   -4.34 KCAL/MOL
REMARK 924 INTRA-LIGAND FREE ENERGY PREDICTED BY IDOCK:    1.57 KCAL/MOL
REMARK 927      BINDING AFFINITY PREDICTED BY RF-SCORE:    0.00 PKD
ROOT
HETATM    1  C   UNL     1      -5.606  15.736  70.343  1.00  0.00    -0.142 C  
HETATM    2  N   UNL     1      -6.628  15.165  69.479  1.00  0.00    -0.149 N  
HETATM    3  O   UNL     1      -7.599  17.255  69.327  1.00  0.00    -0.155 OA 
HETATM    4  C   UNL     1      -7.589  16.073  68.979  1.00  0.00    -0.209 C  
ENDROOT
BRANCH   2   5
HETATM    5  C   UNL     1      -6.461  13.818  68.930  1.00  0.00    -0.100 C  
BRANCH   5   6
HETATM    6  C   UNL     1      -7.646  12.846  68.819  1.00  0.00    -0.025 C  
BRANCH   6   7
HETATM    7  N   UNL     1      -7.441  11.652  69.676  1.00  0.00     0.262 NA 
HETATM    8  C   UNL     1      -6.018  11.335  69.856  1.00  0.00    -0.117 C  
HETATM    9  C   UNL     1      -8.160  10.450  69.223  1.00  0.00    -0.157 C  
HETATM   10  C   UNL     1      -6.139   9.596  68.007  1.00  0.00    -0.051 C  
HETATM   11  C   UNL     1      -7.632   9.919  67.893  1.00  0.00    -0.090 C  
HETATM   12  C   UNL     1      -5.357  10.775  68.595  1.00  0.00    -0.040 C  
BRANCH  10  13
HETATM   13  O   UNL     1      -5.959   8.464  68.881  1.00  0.00    -0.041 OA 
BRANCH  13  14
HETATM   14  C   UNL     1      -6.839   7.446  68.687  1.00  0.00    -0.073 C  
HETATM   15  H   UNL     1      -6.675   7.140  70.729  1.00  0.00     0.000 HD 
HETATM   16  O   UNL     1      -7.430   7.230  67.641  1.00  0.00    -0.096 OA 
HETATM   17  N   UNL     1      -6.931   6.717  69.838  1.00  0.00    -0.061 N  
BRANCH  17  18
HETATM   18  C   UNL     1      -7.380   5.381  69.797  1.00  0.00    -0.065 A  
HETATM   19  C   UNL     1      -8.674   5.021  70.234  1.00  0.00    -0.127 A  
HETATM   20  C   UNL     1      -6.848   3.095  69.182  1.00  0.00    -0.041 A  
HETATM   21  C   UNL     1      -9.006   3.653  70.110  1.00  0.00    -0.178 A  
HETATM   22  C   UNL     1      -8.117   2.708  69.582  1.00  0.00    -0.057 A  
HETATM   23  C   UNL     1      -6.475   4.428  69.298  1.00  0.00    -0.036 A  
BRANCH  19  24
HETATM   24  C   UNL     1      -9.688   5.975  70.781  1.00  0.00    -0.208 A  
HETATM   25  C   UNL     1     -10.200   5.874  72.087  1.00  0.00    -0.231 A  
HETATM   26  C   UNL     1     -11.164   6.766  72.577  1.00  0.00    -0.305 A  
HETATM   27  C   UNL     1     -11.671   7.767  71.757  1.00  0.00    -0.323 A  
HETATM   28  C   UNL     1     -11.196   7.890  70.457  1.00  0.00    -0.259 A  
HETATM   29  C   UNL     1     -10.209   7.017  69.985  1.00  0.00    -0.206 A  
ENDBRANCH  19  24
ENDBRANCH  17  18
ENDBRANCH  13  14
ENDBRANCH  10  13
ENDBRANCH   6   7
ENDBRANCH   5   6
ENDBRANCH   2   5
BRANCH   4  30
HETATM   30  C   UNL     1      -8.576  15.660  67.926  1.00  0.00    -0.163 A  
HETATM   31  C   UNL     1      -9.862  15.284  68.344  1.00  0.00    -0.216 A  
HETATM   32  C   UNL     1      -8.289  15.631  66.558  1.00  0.00    -0.276 A  
HETATM   33  C   UNL     1      -9.297  15.402  65.622  1.00  0.00    -0.168 A  
HETATM   34  C   UNL     1     -10.859  14.986  67.408  1.00  0.00    -0.305 A  
HETATM   35  C   UNL     1     -10.594  15.081  66.037  1.00  0.00    -0.329 A  
BRANCH  35  36
HETATM   36  C   UNL     1     -11.669  14.808  65.005  1.00  0.00    -0.364 C  
BRANCH  36  37
HETATM   37  N   UNL     1     -11.941  13.372  64.836  1.00  0.00    -0.360 NA 
HETATM   38  C   UNL     1     -11.176  12.542  65.771  1.00  0.00    -0.320 C  
HETATM   39  C   UNL     1     -11.771  12.904  63.452  1.00  0.00    -0.461 C  
HETATM   40  C   UNL     1     -10.307  12.798  63.015  1.00  0.00     1.192 C  
HETATM   41  C   UNL     1      -9.690  12.430  65.421  1.00  0.00    -0.129 C  
HETATM   42  C   UNL     1      -9.486  11.939  63.982  1.00  0.00     0.024 C  
BRANCH  42  43
HETATM   43  C   UNL     1      -9.823  10.455  63.832  1.00  0.00    -0.267 C  
HETATM   44  N   UNL     1     -11.147  10.143  63.897  1.00  0.00     1.317 N  
HETATM   45  H2  UNL     1     -11.867  10.852  64.038  1.00  0.00     0.000 HD 
HETATM   46  O   UNL     1      -8.994   9.561  63.695  1.00  0.00    -0.231 OA 
HETATM   47  H1  UNL     1     -11.372   9.153  63.796  1.00  0.00     0.000 HD 
ENDBRANCH  42  43
ENDBRANCH  36  37
ENDBRANCH  35  36
ENDBRANCH   4  30
TORSDOF 11
ENDMDL
MODEL      218
REMARK 921   NORMALIZED FREE ENERGY PREDICTED BY IDOCK:   -0.68 KCAL/MOL
REMARK 922        TOTAL FREE ENERGY PREDICTED BY IDOCK:   -2.75 KCAL/MOL
REMARK 923 INTER-LIGAND FREE ENERGY PREDICTED BY IDOCK:   -6.39 KCAL/MOL
REMARK 924 INTRA-LIGAND FREE ENERGY PREDICTED BY IDOCK:    3.64 KCAL/MOL
REMARK 927      BINDING AFFINITY PREDICTED BY RF-SCORE:    0.00 PKD
ROOT
HETATM    1  C   UNL     1      -9.761   9.682  64.565  1.00  0.00     0.100 C  
HETATM    2  N   UNL     1      -9.691  11.111  64.830  1.00  0.00    -0.238 N  
HETATM    3  O   UNL     1     -11.908  11.051  65.475  1.00  0.00     0.380 OA 
HETATM    4  C   UNL     1     -10.868  11.701  65.344  1.00  0.00    -0.280 C  
ENDROOT
BRANCH   2   5
HETATM    5  C   UNL     1      -8.395  11.792  64.859  1.00  0.00     1.153 C  
BRANCH   5   6
HETATM    6  C   UNL     1      -7.543  11.837  66.138  1.00  0.00     0.387 C  
BRANCH   6   7
HETATM    7  N   UNL     1      -7.900  10.729  67.058  1.00  0.00    -0.116 NA 
HETATM    8  C   UNL     1      -7.871  11.145  68.467  1.00  0.00    -0.136 C  
HETATM    9  C   UNL     1      -7.086   9.513  66.888  1.00  0.00    -0.086 C  
HETATM   10  C   UNL     1      -5.531  10.193  68.735  1.00  0.00    -0.038 C  
HETATM   11  C   UNL     1      -5.627   9.727  67.278  1.00  0.00    -0.046 C  
HETATM   12  C   UNL     1      -6.457  11.383  69.001  1.00  0.00    -0.069 C  
BRANCH  10  13
HETATM   13  O   UNL     1      -5.928   9.118  69.609  1.00  0.00    -0.032 OA 
BRANCH  13  14
HETATM   14  C   UNL     1      -6.828   8.249  69.075  1.00  0.00    -0.056 C  
HETATM   15  H   UNL     1      -7.851   8.474  70.863  1.00  0.00     0.000 HD 
HETATM   16  O   UNL     1      -6.819   7.866  67.916  1.00  0.00    -0.068 OA 
HETATM   17  N   UNL     1      -7.714   7.879  70.046  1.00  0.00    -0.088 N  
BRANCH  17  18
HETATM   18  C   UNL     1      -8.439   6.677  69.924  1.00  0.00    -0.139 A  
HETATM   19  C   UNL     1      -9.828   6.621  70.177  1.00  0.00    -0.180 A  
HETATM   20  C   UNL     1      -8.353   4.321  69.348  1.00  0.00    -0.078 A  
HETATM   21  C   UNL     1     -10.437   5.361  69.986  1.00  0.00    -0.373 A  
HETATM   22  C   UNL     1      -9.719   4.233  69.567  1.00  0.00    -0.272 A  
HETATM   23  C   UNL     1      -7.711   5.539  69.535  1.00  0.00    -0.082 A  
BRANCH  19  24
HETATM   24  C   UNL     1     -10.667   7.785  70.597  1.00  0.00    -0.233 A  
HETATM   25  C   UNL     1     -11.136   7.948  71.914  1.00  0.00    -0.317 A  
HETATM   26  C   UNL     1     -11.938   9.035  72.286  1.00  0.00    -0.332 A  
HETATM   27  C   UNL     1     -12.324   9.976  71.340  1.00  0.00    -0.512 A  
HETATM   28  C   UNL     1     -11.889   9.842  70.027  1.00  0.00    -0.131 A  
HETATM   29  C   UNL     1     -11.061   8.772  69.668  1.00  0.00    -0.038 A  
ENDBRANCH  19  24
ENDBRANCH  17  18
ENDBRANCH  13  14
ENDBRANCH  10  13
ENDBRANCH   6   7
ENDBRANCH   5   6
ENDBRANCH   2   5
BRANCH   4  30
HETATM   30  C   UNL     1     -10.876  13.115  65.845  1.00  0.00    -0.288 A  
HETATM   31  C   UNL     1     -10.664  13.325  67.217  1.00  0.00    -0.262 A  
HETATM   32  C   UNL     1     -11.080  14.230  65.028  1.00  0.00    -0.377 A  
HETATM   33  C   UNL     1     -10.907  15.522  65.526  1.00  0.00    -0.372 A  
HETATM   34  C   UNL     1     -10.558  14.623  67.733  1.00  0.00    -0.251 A  
HETATM   35  C   UNL     1     -10.640  15.732  66.883  1.00  0.00    -0.317 A  
BRANCH  35  36
HETATM   36  C   UNL     1     -10.483  17.143  67.411  1.00  0.00    -0.334 C  
BRANCH  36  37
HETATM   37  N   UNL     1      -9.269  17.804  66.908  1.00  0.00    -0.251 NA 
HETATM   38  C   UNL     1      -8.041  17.178  67.408  1.00  0.00    -0.177 C  
HETATM   39  C   UNL     1      -9.256  19.257  67.142  1.00  0.00    -0.302 C  
HETATM   40  C   UNL     1      -9.003  19.642  68.602  1.00  0.00    -0.335 C  
HETATM   41  C   UNL     1      -7.749  17.484  68.879  1.00  0.00    -0.207 C  
HETATM   42  C   UNL     1      -7.725  18.993  69.147  1.00  0.00    -0.213 C  
BRANCH  42  43
HETATM   43  C   UNL     1      -6.474  19.657  68.570  1.00  0.00    -0.269 C  
HETATM   44  N   UNL     1      -5.550  18.809  68.040  1.00  0.00    -0.186 N  
HETATM   45  H2  UNL     1      -5.683  17.797  68.028  1.00  0.00     0.000 HD 
HETATM   46  O   UNL     1      -6.252  20.863  68.590  1.00  0.00    -0.323 OA 
HETATM   47  H1  UNL     1      -4.715  19.251  67.654  1.00  0.00     0.000 HD 
ENDBRANCH  42  43
ENDBRANCH  36  37
ENDBRANCH  35  36
ENDBRANCH   4  30
TORSDOF 11
ENDMDL
MODEL      219
REMARK 921   NORMALIZED FREE ENERGY PREDICTED BY IDOCK:   -0.64 KCAL/MOL
REMARK 922        TOTAL FREE ENERGY PREDICTED BY IDOCK:   -2.68 KCAL/MOL
REMARK 923 INTER-LIGAND FREE ENERGY PREDICTED BY IDOCK:   -5.45 KCAL/MOL
REMARK 924 INTRA-LIGAND FREE ENERGY PREDICTED BY IDOCK:    2.77 KCAL/MOL
REMARK 927      BINDING AFFINITY PREDICTED BY RF-SCORE:    0.00 PKD
ROOT
HETATM    1  C   UNL     1      -9.924  10.475  63.051  1.00  0.00    -0.104 C  
HETATM    2  N   UNL     1      -9.816   9.904  64.385  1.00  0.00    -0.141 N  
HETATM    3  O   UNL     1      -8.682   8.110  63.472  1.00  0.00     0.145 OA 
HETATM    4  C   UNL     1      -9.105   8.685  64.477  1.00  0.00     0.386 C  
ENDROOT
BRANCH   2   5
HETATM    5  C   UNL     1     -10.145  10.711  65.561  1.00  0.00    -0.280 C  
BRANCH   5   6
HETATM    6  C   UNL     1     -11.354  10.376  66.449  1.00  0.00     0.684 C  
BRANCH   6   7
HETATM    7  N   UNL     1     -11.173  10.906  67.822  1.00  0.00    -0.327 NA 
HETATM    8  C   UNL     1     -12.206  11.888  68.181  1.00  0.00     0.286 C  
HETATM    9  C   UNL     1      -9.840  11.477  68.082  1.00  0.00    -0.194 C  
HETATM   10  C   UNL     1     -10.644  13.799  67.577  1.00  0.00    -0.244 C  
HETATM   11  C   UNL     1      -9.578  12.742  67.270  1.00  0.00    -0.208 C  
HETATM   12  C   UNL     1     -12.056  13.221  67.446  1.00  0.00    -0.327 C  
BRANCH  10  13
HETATM   13  O   UNL     1     -10.480  14.264  68.932  1.00  0.00    -0.243 OA 
BRANCH  13  14
HETATM   14  C   UNL     1      -9.195  14.526  69.295  1.00  0.00     0.110 C  
HETATM   15  H   UNL     1      -9.837  16.482  69.526  1.00  0.00     0.000 HD 
HETATM   16  O   UNL     1      -8.343  13.674  69.493  1.00  0.00     0.628 OA 
HETATM   17  N   UNL     1      -9.028  15.878  69.383  1.00  0.00    -0.245 N  
BRANCH  17  18
HETATM   18  C   UNL     1      -7.740  16.442  69.278  1.00  0.00    -0.171 A  
HETATM   19  C   UNL     1      -7.538  17.727  68.726  1.00  0.00    -0.260 A  
HETATM   20  C   UNL     1      -5.373  16.156  69.726  1.00  0.00    -0.133 A  
HETATM   21  C   UNL     1      -6.201  18.185  68.709  1.00  0.00    -0.208 A  
HETATM   22  C   UNL     1      -5.138  17.422  69.210  1.00  0.00    -0.165 A  
HETATM   23  C   UNL     1      -6.671  15.662  69.751  1.00  0.00    -0.147 A  
BRANCH  19  24
HETATM   24  C   UNL     1      -8.622  18.611  68.199  1.00  0.00    -0.332 A  
HETATM   25  C   UNL     1      -9.978  18.237  68.205  1.00  0.00    -0.377 A  
HETATM   26  C   UNL     1     -10.980  19.070  67.689  1.00  0.00    -0.330 A  
HETATM   27  C   UNL     1     -10.648  20.292  67.118  1.00  0.00    -0.210 A  
HETATM   28  C   UNL     1      -9.317  20.690  67.084  1.00  0.00    -0.464 A  
HETATM   29  C   UNL     1      -8.325  19.869  67.632  1.00  0.00    -0.362 A  
ENDBRANCH  19  24
ENDBRANCH  17  18
ENDBRANCH  13  14
ENDBRANCH  10  13
ENDBRANCH   6   7
ENDBRANCH   5   6
ENDBRANCH   2   5
BRANCH   4  30
HETATM   30  C   UNL     1      -8.748   8.091  65.808  1.00  0.00    -0.175 A  
HETATM   31  C   UNL     1      -9.502   6.998  66.262  1.00  0.00    -0.127 A  
HETATM   32  C   UNL     1      -7.711   8.562  66.619  1.00  0.00    -0.090 A  
HETATM   33  C   UNL     1      -7.323   7.863  67.762  1.00  0.00    -0.096 A  
HETATM   34  C   UNL     1      -9.158   6.333  67.445  1.00  0.00    -0.111 A  
HETATM   35  C   UNL     1      -8.040   6.738  68.185  1.00  0.00    -0.115 A  
BRANCH  35  36
HETATM   36  C   UNL     1      -7.621   6.007  69.444  1.00  0.00    -0.097 C  
BRANCH  36  37
HETATM   37  N   UNL     1      -8.358   6.460  70.634  1.00  0.00    -0.131 NA 
HETATM   38  C   UNL     1      -8.577   5.382  71.602  1.00  0.00    -0.131 C  
HETATM   39  C   UNL     1      -9.618   7.148  70.314  1.00  0.00    -0.169 C  
HETATM   40  C   UNL     1     -10.729   6.207  69.840  1.00  0.00    -0.366 C  
HETATM   41  C   UNL     1      -9.645   4.374  71.171  1.00  0.00    -0.245 C  
HETATM   42  C   UNL     1     -10.971   5.067  70.836  1.00  0.00     0.237 C  
BRANCH  42  43
HETATM   43  C   UNL     1     -11.687   5.568  72.091  1.00  0.00     0.014 C  
HETATM   44  N   UNL     1     -11.621   4.745  73.174  1.00  0.00    -0.319 N  
HETATM   45  H2  UNL     1     -11.126   3.853  73.150  1.00  0.00     0.000 HD 
HETATM   46  O   UNL     1     -12.323   6.614  72.161  1.00  0.00    -0.292 OA 
HETATM   47  H1  UNL     1     -12.098   5.079  74.012  1.00  0.00     0.000 HD 
ENDBRANCH  42  43
ENDBRANCH  36  37
ENDBRANCH  35  36
ENDBRANCH   4  30
TORSDOF 11
ENDMDL
MODEL      220
REMARK 921   NORMALIZED FREE ENERGY PREDICTED BY IDOCK:   -0.62 KCAL/MOL
REMARK 922        TOTAL FREE ENERGY PREDICTED BY IDOCK:   -2.65 KCAL/MOL
REMARK 923 INTER-LIGAND FREE ENERGY PREDICTED BY IDOCK:   -5.72 KCAL/MOL
REMARK 924 INTRA-LIGAND FREE ENERGY PREDICTED BY IDOCK:    3.07 KCAL/MOL
REMARK 927      BINDING AFFINITY PREDICTED BY RF-SCORE:    0.00 PKD
ROOT
HETATM    1  C   UNL     1     -13.851   9.502  70.561  1.00  0.00     0.596 C  
HETATM    2  N   UNL     1     -12.413   9.314  70.680  1.00  0.00    -0.040 N  
HETATM    3  O   UNL     1     -12.813   7.335  71.802  1.00  0.00    -0.339 OA 
HETATM    4  C   UNL     1     -11.999   8.119  71.312  1.00  0.00    -0.291 C  
ENDROOT
BRANCH   2   5
HETATM    5  C   UNL     1     -11.494  10.155  69.911  1.00  0.00    -0.254 C  
BRANCH   5   6
HETATM    6  C   UNL     1     -11.644  10.321  68.390  1.00  0.00     0.030 C  
BRANCH   6   7
HETATM    7  N   UNL     1     -10.624  11.252  67.850  1.00  0.00    -0.185 NA 
HETATM    8  C   UNL     1      -9.991  10.734  66.628  1.00  0.00    -0.206 C  
HETATM    9  C   UNL     1      -9.582  11.639  68.817  1.00  0.00    -0.072 C  
HETATM   10  C   UNL     1      -8.023   9.861  67.979  1.00  0.00    -0.100 C  
HETATM   11  C   UNL     1      -8.692  10.466  69.217  1.00  0.00    -0.160 C  
HETATM   12  C   UNL     1      -9.051   9.555  66.885  1.00  0.00    -0.158 C  
BRANCH  10  13
HETATM   13  O   UNL     1      -7.071  10.800  67.442  1.00  0.00    -0.086 OA 
BRANCH  13  14
HETATM   14  C   UNL     1      -6.955  11.961  68.141  1.00  0.00    -0.078 C  
HETATM   15  H   UNL     1      -8.065  12.800  66.606  1.00  0.00     0.000 HD 
HETATM   16  O   UNL     1      -6.497  12.048  69.270  1.00  0.00    -0.095 OA 
HETATM   17  N   UNL     1      -7.417  12.989  67.370  1.00  0.00    -0.153 N  
BRANCH  17  18
HETATM   18  C   UNL     1      -7.002  14.311  67.628  1.00  0.00    -0.184 A  
HETATM   19  C   UNL     1      -7.851  15.414  67.386  1.00  0.00    -0.215 A  
HETATM   20  C   UNL     1      -5.226  15.739  68.462  1.00  0.00    -0.096 A  
HETATM   21  C   UNL     1      -7.321  16.682  67.717  1.00  0.00    -0.163 A  
HETATM   22  C   UNL     1      -6.039  16.843  68.258  1.00  0.00    -0.133 A  
HETATM   23  C   UNL     1      -5.702  14.475  68.139  1.00  0.00    -0.130 A  
BRANCH  19  24
HETATM   24  C   UNL     1      -9.240  15.320  66.840  1.00  0.00    -0.255 A  
HETATM   25  C   UNL     1     -10.193  14.413  67.340  1.00  0.00    -0.247 A  
HETATM   26  C   UNL     1     -11.484  14.325  66.803  1.00  0.00    -0.380 A  
HETATM   27  C   UNL     1     -11.849  15.119  65.724  1.00  0.00     0.074 A  
HETATM   28  C   UNL     1     -10.930  16.018  65.196  1.00  0.00    -0.360 A  
HETATM   29  C   UNL     1      -9.653  16.126  65.758  1.00  0.00    -0.292 A  
ENDBRANCH  19  24
ENDBRANCH  17  18
ENDBRANCH  13  14
ENDBRANCH  10  13
ENDBRANCH   6   7
ENDBRANCH   5   6
ENDBRANCH   2   5
BRANCH   4  30
HETATM   30  C   UNL     1     -10.556   7.705  71.324  1.00  0.00    -0.237 A  
HETATM   31  C   UNL     1      -9.734   8.225  72.336  1.00  0.00    -0.373 A  
HETATM   32  C   UNL     1      -9.987   6.835  70.391  1.00  0.00    -0.193 A  
HETATM   33  C   UNL     1      -8.686   6.359  70.557  1.00  0.00    -0.144 A  
HETATM   34  C   UNL     1      -8.405   7.801  72.466  1.00  0.00    -0.170 A  
HETATM   35  C   UNL     1      -7.883   6.834  71.599  1.00  0.00    -0.101 A  
BRANCH  35  36
HETATM   36  C   UNL     1      -6.463   6.327  71.748  1.00  0.00    -0.050 C  
BRANCH  36  37
HETATM   37  N   UNL     1      -6.309   5.397  72.878  1.00  0.00    -0.056 NA 
HETATM   38  C   UNL     1      -5.816   4.082  72.458  1.00  0.00    -0.008 C  
HETATM   39  C   UNL     1      -7.523   5.270  73.699  1.00  0.00    -0.095 C  
HETATM   40  C   UNL     1      -8.636   4.459  73.030  1.00  0.00    -0.101 C  
HETATM   41  C   UNL     1      -6.866   3.231  71.739  1.00  0.00    -0.026 C  
HETATM   42  C   UNL     1      -8.140   3.080  72.578  1.00  0.00    -0.063 C  
BRANCH  42  43
HETATM   43  C   UNL     1      -7.932   2.146  73.771  1.00  0.00    -0.050 C  
HETATM   44  N   UNL     1      -9.053   1.844  74.484  1.00  0.00    -0.061 N  
HETATM   45  H2  UNL     1      -9.970   2.216  74.239  1.00  0.00     0.000 HD 
HETATM   46  O   UNL     1      -6.847   1.698  74.126  1.00  0.00    -0.020 OA 
HETATM   47  H1  UNL     1      -8.915   1.220  75.280  1.00  0.00     0.000 HD 
ENDBRANCH  42  43
ENDBRANCH  36  37
ENDBRANCH  35  36
ENDBRANCH   4  30
TORSDOF 11
ENDMDL
MODEL      221
REMARK 921   NORMALIZED FREE ENERGY PREDICTED BY IDOCK:   -0.40 KCAL/MOL
REMARK 922        TOTAL FREE ENERGY PREDICTED BY IDOCK:   -2.29 KCAL/MOL
REMARK 923 INTER-LIGAND FREE ENERGY PREDICTED BY IDOCK:   -6.76 KCAL/MOL
REMARK 924 INTRA-LIGAND FREE ENERGY PREDICTED BY IDOCK:    4.46 KCAL/MOL
REMARK 927      BINDING AFFINITY PREDICTED BY RF-SCORE:    0.00 PKD
ROOT
HETATM    1  C   UNL     1     -11.465  10.627  70.045  1.00  0.00    -0.325 C  
HETATM    2  N   UNL     1     -10.716  11.419  69.080  1.00  0.00    -0.211 N  
HETATM    3  O   UNL     1     -11.753  13.312  69.904  1.00  0.00    -0.297 OA 
HETATM    4  C   UNL     1     -10.924  12.816  69.137  1.00  0.00    -0.133 C  
ENDROOT
BRANCH   2   5
HETATM    5  C   UNL     1      -9.604  10.821  68.341  1.00  0.00    -0.176 C  
BRANCH   5   6
HETATM    6  C   UNL     1      -8.143  11.103  68.727  1.00  0.00    -0.140 C  
BRANCH   6   7
HETATM    7  N   UNL     1      -7.472   9.876  69.220  1.00  0.00    -0.087 NA 
HETATM    8  C   UNL     1      -6.159   9.669  68.593  1.00  0.00    -0.043 C  
HETATM    9  C   UNL     1      -8.278   8.650  69.091  1.00  0.00    -0.117 C  
HETATM   10  C   UNL     1      -7.179   8.057  66.915  1.00  0.00    -0.082 C  
HETATM   11  C   UNL     1      -8.516   8.259  67.635  1.00  0.00    -0.130 C  
HETATM   12  C   UNL     1      -6.248   9.254  67.123  1.00  0.00    -0.058 C  
BRANCH  10  13
HETATM   13  O   UNL     1      -6.522   6.887  67.444  1.00  0.00    -0.045 OA 
BRANCH  13  14
HETATM   14  C   UNL     1      -7.343   6.008  68.079  1.00  0.00    -0.084 C  
HETATM   15  H   UNL     1      -5.882   4.601  67.658  1.00  0.00     0.000 HD 
HETATM   16  O   UNL     1      -8.347   6.320  68.699  1.00  0.00    -0.111 OA 
HETATM   17  N   UNL     1      -6.864   4.743  67.891  1.00  0.00    -0.055 N  
BRANCH  17  18
HETATM   18  C   UNL     1      -7.724   3.633  68.020  1.00  0.00    -0.069 A  
HETATM   19  C   UNL     1      -7.926   2.993  69.264  1.00  0.00    -0.058 A  
HETATM   20  C   UNL     1      -9.267   2.138  66.893  1.00  0.00    -0.049 A  
HETATM   21  C   UNL     1      -8.836   1.913  69.258  1.00  0.00    -0.132 A  
HETATM   22  C   UNL     1      -9.506   1.499  68.099  1.00  0.00    -0.217 A  
HETATM   23  C   UNL     1      -8.370   3.198  66.849  1.00  0.00    -0.091 A  
BRANCH  19  24
HETATM   24  C   UNL     1      -7.272   3.395  70.547  1.00  0.00    -0.037 A  
HETATM   25  C   UNL     1      -5.946   3.048  70.865  1.00  0.00    -0.018 A  
HETATM   26  C   UNL     1      -5.354   3.416  72.081  1.00  0.00     0.000 A  
HETATM   27  C   UNL     1      -6.088   4.114  73.032  1.00  0.00    -0.016 A  
HETATM   28  C   UNL     1      -7.404   4.464  72.757  1.00  0.00    -0.078 A  
HETATM   29  C   UNL     1      -7.979   4.123  71.528  1.00  0.00    -0.077 A  
ENDBRANCH  19  24
ENDBRANCH  17  18
ENDBRANCH  13  14
ENDBRANCH  10  13
ENDBRANCH   6   7
ENDBRANCH   5   6
ENDBRANCH   2   5
BRANCH   4  30
HETATM   30  C   UNL     1     -10.075  13.762  68.340  1.00  0.00    -0.241 A  
HETATM   31  C   UNL     1     -10.389  13.943  66.985  1.00  0.00    -0.267 A  
HETATM   32  C   UNL     1      -8.993  14.472  68.869  1.00  0.00    -0.109 A  
HETATM   33  C   UNL     1      -8.352  15.460  68.121  1.00  0.00    -0.145 A  
HETATM   34  C   UNL     1      -9.703  14.886  66.211  1.00  0.00    -0.320 A  
HETATM   35  C   UNL     1      -8.703  15.680  66.785  1.00  0.00    -0.306 A  
BRANCH  35  36
HETATM   36  C   UNL     1      -7.977  16.738  65.980  1.00  0.00    -0.075 C  
BRANCH  36  37
HETATM   37  N   UNL     1      -8.717  18.008  65.915  1.00  0.00    -0.491 NA 
HETATM   38  C   UNL     1      -7.963  19.127  66.489  1.00  0.00    -0.284 C  
HETATM   39  C   UNL     1     -10.067  17.927  66.494  1.00  0.00    -0.370 C  
HETATM   40  C   UNL     1     -10.076  17.864  68.024  1.00  0.00    -0.360 C  
HETATM   41  C   UNL     1      -7.892  19.102  68.018  1.00  0.00    -0.325 C  
HETATM   42  C   UNL     1      -9.288  19.023  68.646  1.00  0.00    -0.428 C  
BRANCH  42  43
HETATM   43  C   UNL     1     -10.048  20.343  68.519  1.00  0.00    -0.031 C  
HETATM   44  N   UNL     1      -9.793  21.063  67.390  1.00  0.00    -0.446 N  
HETATM   45  H2  UNL     1      -9.138  20.742  66.678  1.00  0.00     0.000 HD 
HETATM   46  O   UNL     1     -10.819  20.789  69.362  1.00  0.00     0.378 OA 
HETATM   47  H1  UNL     1     -10.300  21.945  67.305  1.00  0.00     0.000 HD 
ENDBRANCH  42  43
ENDBRANCH  36  37
ENDBRANCH  35  36
ENDBRANCH   4  30
TORSDOF 11
ENDMDL
MODEL      222
REMARK 921   NORMALIZED FREE ENERGY PREDICTED BY IDOCK:   -0.37 KCAL/MOL
REMARK 922        TOTAL FREE ENERGY PREDICTED BY IDOCK:   -2.24 KCAL/MOL
REMARK 923 INTER-LIGAND FREE ENERGY PREDICTED BY IDOCK:   -4.67 KCAL/MOL
REMARK 924 INTRA-LIGAND FREE ENERGY PREDICTED BY IDOCK:    2.43 KCAL/MOL
REMARK 927      BINDING AFFINITY PREDICTED BY RF-SCORE:    0.00 PKD
ROOT
HETATM    1  C   UNL     1     -12.802  15.321  63.761  1.00  0.00     1.192 C  
HETATM    2  N   UNL     1     -11.609  15.128  64.570  1.00  0.00    -0.374 N  
HETATM    3  O   UNL     1     -11.092  17.357  64.253  1.00  0.00    -0.659 OA 
HETATM    4  C   UNL     1     -10.820  16.281  64.789  1.00  0.00    -0.224 C  
ENDROOT
BRANCH   2   5
HETATM    5  C   UNL     1     -11.438  13.901  65.350  1.00  0.00    -0.312 C  
BRANCH   5   6
HETATM    6  C   UNL     1     -11.960  13.790  66.792  1.00  0.00    -0.426 C  
BRANCH   6   7
HETATM    7  N   UNL     1     -12.036  12.374  67.226  1.00  0.00    -0.537 NA 
HETATM    8  C   UNL     1     -11.913  12.232  68.684  1.00  0.00    -0.227 C  
HETATM    9  C   UNL     1     -11.070  11.483  66.562  1.00  0.00    -0.282 C  
HETATM   10  C   UNL     1      -9.439  11.700  68.455  1.00  0.00    -0.173 C  
HETATM   11  C   UNL     1      -9.626  11.802  66.938  1.00  0.00    -0.204 C  
HETATM   12  C   UNL     1     -10.501  12.511  69.204  1.00  0.00     0.071 C  
BRANCH  10  13
HETATM   13  O   UNL     1      -9.564  10.323  68.862  1.00  0.00    -0.171 OA 
BRANCH  13  14
HETATM   14  C   UNL     1      -8.457   9.561  68.651  1.00  0.00    -0.119 C  
HETATM   15  H   UNL     1      -9.795   8.030  68.253  1.00  0.00     0.000 HD 
HETATM   16  O   UNL     1      -7.317   9.994  68.601  1.00  0.00    -0.078 OA 
HETATM   17  N   UNL     1      -8.838   8.256  68.523  1.00  0.00    -0.137 N  
BRANCH  17  18
HETATM   18  C   UNL     1      -7.912   7.220  68.762  1.00  0.00    -0.123 A  
HETATM   19  C   UNL     1      -7.173   6.630  67.712  1.00  0.00    -0.091 A  
HETATM   20  C   UNL     1      -6.839   5.823  70.431  1.00  0.00    -0.049 A  
HETATM   21  C   UNL     1      -6.257   5.625  68.095  1.00  0.00    -0.033 A  
HETATM   22  C   UNL     1      -6.081   5.236  69.430  1.00  0.00    -0.025 A  
HETATM   23  C   UNL     1      -7.760   6.807  70.098  1.00  0.00    -0.101 A  
BRANCH  19  24
HETATM   24  C   UNL     1      -7.283   7.012  66.271  1.00  0.00    -0.075 A  
HETATM   25  C   UNL     1      -6.512   8.038  65.695  1.00  0.00    -0.042 A  
HETATM   26  C   UNL     1      -6.643   8.396  64.346  1.00  0.00    -0.066 A  
HETATM   27  C   UNL     1      -7.577   7.757  63.541  1.00  0.00    -0.126 A  
HETATM   28  C   UNL     1      -8.364   6.746  64.078  1.00  0.00     0.172 A  
HETATM   29  C   UNL     1      -8.206   6.371  65.417  1.00  0.00    -0.142 A  
ENDBRANCH  19  24
ENDBRANCH  17  18
ENDBRANCH  13  14
ENDBRANCH  10  13
ENDBRANCH   6   7
ENDBRANCH   5   6
ENDBRANCH   2   5
BRANCH   4  30
HETATM   30  C   UNL     1      -9.678  16.269  65.763  1.00  0.00    -0.299 A  
HETATM   31  C   UNL     1      -9.485  15.112  66.533  1.00  0.00    -0.308 A  
HETATM   32  C   UNL     1      -8.799  17.340  65.945  1.00  0.00     0.008 A  
HETATM   33  C   UNL     1      -7.661  17.203  66.740  1.00  0.00    -0.274 A  
HETATM   34  C   UNL     1      -8.380  14.996  67.385  1.00  0.00    -0.210 A  
HETATM   35  C   UNL     1      -7.437  16.028  67.465  1.00  0.00    -0.186 A  
BRANCH  35  36
HETATM   36  C   UNL     1      -6.210  15.908  68.345  1.00  0.00    -0.107 C  
BRANCH  36  37
HETATM   37  N   UNL     1      -6.363  16.608  69.630  1.00  0.00    -0.223 NA 
HETATM   38  C   UNL     1      -7.621  17.356  69.715  1.00  0.00     0.863 C  
HETATM   39  C   UNL     1      -5.215  17.464  69.969  1.00  0.00    -0.208 C  
HETATM   40  C   UNL     1      -5.142  18.750  69.142  1.00  0.00    -0.190 C  
HETATM   41  C   UNL     1      -7.636  18.634  68.873  1.00  0.00    -0.283 C  
HETATM   42  C   UNL     1      -6.451  19.546  69.212  1.00  0.00    -0.359 C  
BRANCH  42  43
HETATM   43  C   UNL     1      -6.619  20.221  70.574  1.00  0.00     0.023 C  
HETATM   44  N   UNL     1      -5.645  21.110  70.914  1.00  0.00    -0.306 N  
HETATM   45  H2  UNL     1      -4.855  21.312  70.301  1.00  0.00     0.000 HD 
HETATM   46  O   UNL     1      -7.531  19.987  71.361  1.00  0.00     0.748 OA 
HETATM   47  H1  UNL     1      -5.757  21.561  71.823  1.00  0.00     0.000 HD 
ENDBRANCH  42  43
ENDBRANCH  36  37
ENDBRANCH  35  36
ENDBRANCH   4  30
TORSDOF 11
ENDMDL
MODEL      223
REMARK 921   NORMALIZED FREE ENERGY PREDICTED BY IDOCK:   -0.33 KCAL/MOL
REMARK 922        TOTAL FREE ENERGY PREDICTED BY IDOCK:   -2.17 KCAL/MOL
REMARK 923 INTER-LIGAND FREE ENERGY PREDICTED BY IDOCK:   -3.22 KCAL/MOL
REMARK 924 INTRA-LIGAND FREE ENERGY PREDICTED BY IDOCK:    1.04 KCAL/MOL
REMARK 927      BINDING AFFINITY PREDICTED BY RF-SCORE:    0.00 PKD
ROOT
HETATM    1  C   UNL     1     -11.366   5.782  72.747  1.00  0.00    -0.282 C  
HETATM    2  N   UNL     1     -11.054   6.765  71.720  1.00  0.00    -0.235 N  
HETATM    3  O   UNL     1     -13.284   7.366  71.686  1.00  0.00    -0.356 OA 
HETATM    4  C   UNL     1     -12.137   7.560  71.280  1.00  0.00    -0.323 C  
ENDROOT
BRANCH   2   5
HETATM    5  C   UNL     1      -9.661   7.102  71.421  1.00  0.00    -0.161 C  
BRANCH   5   6
HETATM    6  C   UNL     1      -8.504   6.197  71.875  1.00  0.00    -0.129 C  
BRANCH   6   7
HETATM    7  N   UNL     1      -7.280   6.453  71.077  1.00  0.00    -0.077 NA 
HETATM    8  C   UNL     1      -6.141   6.850  71.918  1.00  0.00    -0.038 C  
HETATM    9  C   UNL     1      -7.456   7.434  69.993  1.00  0.00    -0.084 C  
HETATM   10  C   UNL     1      -6.593   9.302  71.428  1.00  0.00    -0.022 C  
HETATM   11  C   UNL     1      -7.735   8.840  70.517  1.00  0.00    -0.089 C  
HETATM   12  C   UNL     1      -6.280   8.257  72.503  1.00  0.00    -0.073 C  
BRANCH  10  13
HETATM   13  O   UNL     1      -5.401   9.499  70.641  1.00  0.00    -0.036 OA 
BRANCH  13  14
HETATM   14  C   UNL     1      -5.576  10.239  69.514  1.00  0.00    -0.038 C  
HETATM   15  H   UNL     1      -6.193   8.462  68.646  1.00  0.00     0.000 HD 
HETATM   16  O   UNL     1      -5.500  11.457  69.465  1.00  0.00    -0.051 OA 
HETATM   17  N   UNL     1      -5.830   9.398  68.468  1.00  0.00    -0.041 N  
BRANCH  17  18
HETATM   18  C   UNL     1      -5.591   9.820  67.144  1.00  0.00    -0.046 A  
HETATM   19  C   UNL     1      -5.598   8.909  66.065  1.00  0.00    -0.045 A  
HETATM   20  C   UNL     1      -5.146  11.702  65.679  1.00  0.00     0.643 A  
HETATM   21  C   UNL     1      -5.375   9.469  64.787  1.00  0.00    -0.054 A  
HETATM   22  C   UNL     1      -5.166  10.841  64.593  1.00  0.00    -0.107 A  
HETATM   23  C   UNL     1      -5.349  11.192  66.955  1.00  0.00    -0.068 A  
BRANCH  19  24
HETATM   24  C   UNL     1      -5.842   7.439  66.189  1.00  0.00    -0.036 A  
HETATM   25  C   UNL     1      -5.531   6.712  67.353  1.00  0.00    -0.012 A  
HETATM   26  C   UNL     1      -5.748   5.331  67.445  1.00  0.00    -0.013 A  
HETATM   27  C   UNL     1      -6.253   4.629  66.357  1.00  0.00    -0.032 A  
HETATM   28  C   UNL     1      -6.561   5.311  65.187  1.00  0.00    -0.040 A  
HETATM   29  C   UNL     1      -6.373   6.696  65.112  1.00  0.00    -0.042 A  
ENDBRANCH  19  24
ENDBRANCH  17  18
ENDBRANCH  13  14
ENDBRANCH  10  13
ENDBRANCH   6   7
ENDBRANCH   5   6
ENDBRANCH   2   5
BRANCH   4  30
HETATM   30  C   UNL     1     -11.920   8.738  70.376  1.00  0.00     0.129 A  
HETATM   31  C   UNL     1     -11.698   8.487  69.013  1.00  0.00     1.307 A  
HETATM   32  C   UNL     1     -11.928  10.066  70.811  1.00  0.00    -0.426 A  
HETATM   33  C   UNL     1     -11.889  11.119  69.896  1.00  0.00    -0.439 A  
HETATM   34  C   UNL     1     -11.591   9.542  68.099  1.00  0.00     0.819 A  
HETATM   35  C   UNL     1     -11.724  10.868  68.530  1.00  0.00    -0.307 A  
BRANCH  35  36
HETATM   36  C   UNL     1     -11.657  12.024  67.554  1.00  0.00    -0.330 C  
BRANCH  36  37
HETATM   37  N   UNL     1     -11.364  13.306  68.214  1.00  0.00    -0.280 NA 
HETATM   38  C   UNL     1     -11.583  14.455  67.330  1.00  0.00    -0.379 C  
HETATM   39  C   UNL     1     -10.028  13.356  68.826  1.00  0.00    -0.054 C  
HETATM   40  C   UNL     1      -8.890  13.486  67.809  1.00  0.00    -0.198 C  
HETATM   41  C   UNL     1     -10.505  14.619  66.255  1.00  0.00    -0.302 C  
HETATM   42  C   UNL     1      -9.101  14.679  66.869  1.00  0.00    -0.272 C  
BRANCH  42  43
HETATM   43  C   UNL     1      -8.847  16.004  67.588  1.00  0.00    -0.185 C  
HETATM   44  N   UNL     1      -8.223  15.909  68.795  1.00  0.00    -0.182 N  
HETATM   45  H2  UNL     1      -7.944  15.012  69.193  1.00  0.00     0.000 HD 
HETATM   46  O   UNL     1      -9.193  17.103  67.168  1.00  0.00    -0.228 OA 
HETATM   47  H1  UNL     1      -8.053  16.793  69.275  1.00  0.00     0.000 HD 
ENDBRANCH  42  43
ENDBRANCH  36  37
ENDBRANCH  35  36
ENDBRANCH   4  30
TORSDOF 11
ENDMDL
MODEL      224
REMARK 921   NORMALIZED FREE ENERGY PREDICTED BY IDOCK:   -0.26 KCAL/MOL
REMARK 922        TOTAL FREE ENERGY PREDICTED BY IDOCK:   -2.06 KCAL/MOL
REMARK 923 INTER-LIGAND FREE ENERGY PREDICTED BY IDOCK:   -5.34 KCAL/MOL
REMARK 924 INTRA-LIGAND FREE ENERGY PREDICTED BY IDOCK:    3.28 KCAL/MOL
REMARK 927      BINDING AFFINITY PREDICTED BY RF-SCORE:    0.00 PKD
ROOT
HETATM    1  C   UNL     1     -11.496   6.169  70.941  1.00  0.00    -0.248 C  
HETATM    2  N   UNL     1     -10.455   6.731  70.092  1.00  0.00    -0.202 N  
HETATM    3  O   UNL     1     -10.522   4.804  68.819  1.00  0.00    -0.009 OA 
HETATM    4  C   UNL     1     -10.064   5.936  68.991  1.00  0.00    -0.185 C  
ENDROOT
BRANCH   2   5
HETATM    5  C   UNL     1     -10.094   8.145  70.207  1.00  0.00    -0.192 C  
BRANCH   5   6
HETATM    6  C   UNL     1     -10.777   9.064  71.233  1.00  0.00    -0.309 C  
BRANCH   6   7
HETATM    7  N   UNL     1     -11.190  10.346  70.611  1.00  0.00    -0.321 NA 
HETATM    8  C   UNL     1     -12.041  10.142  69.430  1.00  0.00     0.203 C  
HETATM    9  C   UNL     1     -10.072  11.240  70.264  1.00  0.00     1.700 C  
HETATM   10  C   UNL     1     -10.031  10.410  67.897  1.00  0.00    -0.167 C  
HETATM   11  C   UNL     1      -9.194  10.673  69.152  1.00  0.00    -0.162 C  
HETATM   12  C   UNL     1     -11.281   9.586  68.224  1.00  0.00     0.058 C  
BRANCH  10  13
HETATM   13  O   UNL     1     -10.463  11.666  67.337  1.00  0.00    -0.201 OA 
BRANCH  13  14
HETATM   14  C   UNL     1      -9.772  12.754  67.773  1.00  0.00    -0.207 C  
HETATM   15  H   UNL     1      -8.556  12.430  66.127  1.00  0.00     0.000 HD 
HETATM   16  O   UNL     1     -10.136  13.490  68.676  1.00  0.00    -0.226 OA 
HETATM   17  N   UNL     1      -8.621  12.866  67.047  1.00  0.00    -0.193 N  
BRANCH  17  18
HETATM   18  C   UNL     1      -7.523  13.583  67.565  1.00  0.00    -0.167 A  
HETATM   19  C   UNL     1      -7.479  14.995  67.534  1.00  0.00    -0.226 A  
HETATM   20  C   UNL     1      -5.377  13.445  68.687  1.00  0.00    -0.075 A  
HETATM   21  C   UNL     1      -6.336  15.587  68.114  1.00  0.00    -0.133 A  
HETATM   22  C   UNL     1      -5.308  14.830  68.693  1.00  0.00    -0.095 A  
HETATM   23  C   UNL     1      -6.477  12.821  68.115  1.00  0.00    -0.085 A  
BRANCH  19  24
HETATM   24  C   UNL     1      -8.548  15.870  66.961  1.00  0.00    -0.245 A  
HETATM   25  C   UNL     1      -8.907  17.104  67.534  1.00  0.00    -0.218 A  
HETATM   26  C   UNL     1      -9.925  17.903  66.995  1.00  0.00    -0.324 A  
HETATM   27  C   UNL     1     -10.639  17.471  65.885  1.00  0.00    -0.203 A  
HETATM   28  C   UNL     1     -10.320  16.252  65.299  1.00  0.00    -0.247 A  
HETATM   29  C   UNL     1      -9.280  15.474  65.822  1.00  0.00    -0.216 A  
ENDBRANCH  19  24
ENDBRANCH  17  18
ENDBRANCH  13  14
ENDBRANCH  10  13
ENDBRANCH   6   7
ENDBRANCH   5   6
ENDBRANCH   2   5
BRANCH   4  30
HETATM   30  C   UNL     1      -9.150   6.474  67.928  1.00  0.00    -0.113 A  
HETATM   31  C   UNL     1      -7.983   7.135  68.341  1.00  0.00    -0.124 A  
HETATM   32  C   UNL     1      -9.394   6.354  66.557  1.00  0.00    -0.181 A  
HETATM   33  C   UNL     1      -8.426   6.725  65.624  1.00  0.00    -0.142 A  
HETATM   34  C   UNL     1      -7.039   7.571  67.403  1.00  0.00    -0.085 A  
HETATM   35  C   UNL     1      -7.236   7.334  66.037  1.00  0.00    -0.074 A  
BRANCH  35  36
HETATM   36  C   UNL     1      -6.208   7.755  65.008  1.00  0.00    -0.038 C  
BRANCH  36  37
HETATM   37  N   UNL     1      -6.347   9.165  64.612  1.00  0.00    -0.070 NA 
HETATM   38  C   UNL     1      -7.270   9.903  65.481  1.00  0.00    -0.122 C  
HETATM   39  C   UNL     1      -6.699   9.342  63.195  1.00  0.00    -0.099 C  
HETATM   40  C   UNL     1      -8.153   8.986  62.873  1.00  0.00    -0.166 C  
HETATM   41  C   UNL     1      -8.744   9.561  65.245  1.00  0.00    -0.193 C  
HETATM   42  C   UNL     1      -9.136   9.743  63.774  1.00  0.00    -0.270 C  
BRANCH  42  43
HETATM   43  C   UNL     1      -9.225  11.219  63.384  1.00  0.00    -0.179 C  
HETATM   44  N   UNL     1     -10.025  11.989  64.173  1.00  0.00    -0.443 N  
HETATM   45  H2  UNL     1     -10.532  11.606  64.971  1.00  0.00     0.000 HD 
HETATM   46  O   UNL     1      -8.663  11.720  62.415  1.00  0.00    -0.143 OA 
HETATM   47  H1  UNL     1     -10.085  12.974  63.913  1.00  0.00     0.000 HD 
ENDBRANCH  42  43
ENDBRANCH  36  37
ENDBRANCH  35  36
ENDBRANCH   4  30
TORSDOF 11
ENDMDL
MODEL      225
REMARK 921   NORMALIZED FREE ENERGY PREDICTED BY IDOCK:   -0.19 KCAL/MOL
REMARK 922        TOTAL FREE ENERGY PREDICTED BY IDOCK:   -1.94 KCAL/MOL
REMARK 923 INTER-LIGAND FREE ENERGY PREDICTED BY IDOCK:   -7.72 KCAL/MOL
REMARK 924 INTRA-LIGAND FREE ENERGY PREDICTED BY IDOCK:    5.78 KCAL/MOL
REMARK 927      BINDING AFFINITY PREDICTED BY RF-SCORE:    0.00 PKD
ROOT
HETATM    1  C   UNL     1     -12.410  13.627  66.324  1.00  0.00    -0.412 C  
HETATM    2  N   UNL     1     -11.732  12.395  65.951  1.00  0.00    -0.412 N  
HETATM    3  O   UNL     1     -11.090  13.404  63.975  1.00  0.00    -0.365 OA 
HETATM    4  C   UNL     1     -11.043  12.422  64.717  1.00  0.00    -0.304 C  
ENDROOT
BRANCH   2   5
HETATM    5  C   UNL     1     -11.527  11.337  66.942  1.00  0.00    -0.042 C  
BRANCH   5   6
HETATM    6  C   UNL     1     -10.142  10.711  67.169  1.00  0.00    -0.207 C  
BRANCH   6   7
HETATM    7  N   UNL     1      -9.911  10.429  68.607  1.00  0.00    -0.170 NA 
HETATM    8  C   UNL     1      -8.721  11.119  69.125  1.00  0.00     0.070 C  
HETATM    9  C   UNL     1      -9.833   8.997  68.939  1.00  0.00    -0.175 C  
HETATM   10  C   UNL     1      -7.328   9.016  68.813  1.00  0.00    -0.076 C  
HETATM   11  C   UNL     1      -8.606   8.322  68.333  1.00  0.00    -0.133 C  
HETATM   12  C   UNL     1      -7.406  10.532  68.607  1.00  0.00    -0.091 C  
BRANCH  10  13
HETATM   13  O   UNL     1      -7.149   8.769  70.222  1.00  0.00    -0.039 OA 
BRANCH  13  14
HETATM   14  C   UNL     1      -7.852   7.712  70.711  1.00  0.00    -0.096 C  
HETATM   15  H   UNL     1      -8.048   8.856  72.428  1.00  0.00     0.000 HD 
HETATM   16  O   UNL     1      -8.202   6.747  70.051  1.00  0.00    -0.129 OA 
HETATM   17  N   UNL     1      -8.078   7.912  72.043  1.00  0.00    -0.106 N  
BRANCH  17  18
HETATM   18  C   UNL     1      -8.352   6.817  72.888  1.00  0.00    -0.116 A  
HETATM   19  C   UNL     1      -9.674   6.377  73.124  1.00  0.00    -0.169 A  
HETATM   20  C   UNL     1      -7.419   5.072  74.291  1.00  0.00    -0.086 A  
HETATM   21  C   UNL     1      -9.805   5.250  73.966  1.00  0.00    -0.185 A  
HETATM   22  C   UNL     1      -8.700   4.599  74.529  1.00  0.00    -0.108 A  
HETATM   23  C   UNL     1      -7.244   6.185  73.479  1.00  0.00    -0.088 A  
BRANCH  19  24
HETATM   24  C   UNL     1     -10.899   7.001  72.536  1.00  0.00    -0.285 A  
HETATM   25  C   UNL     1     -11.906   6.249  71.902  1.00  0.00    -0.359 A  
HETATM   26  C   UNL     1     -13.039   6.852  71.339  1.00  0.00    -0.316 A  
HETATM   27  C   UNL     1     -13.180   8.234  71.364  1.00  0.00    -0.241 A  
HETATM   28  C   UNL     1     -12.201   9.010  71.972  1.00  0.00    -0.446 A  
HETATM   29  C   UNL     1     -11.088   8.399  72.561  1.00  0.00    -0.397 A  
ENDBRANCH  19  24
ENDBRANCH  17  18
ENDBRANCH  13  14
ENDBRANCH  10  13
ENDBRANCH   6   7
ENDBRANCH   5   6
ENDBRANCH   2   5
BRANCH   4  30
HETATM   30  C   UNL     1     -10.141  11.294  64.305  1.00  0.00    -0.366 A  
HETATM   31  C   UNL     1      -9.729  10.389  65.295  1.00  0.00    -0.339 A  
HETATM   32  C   UNL     1      -9.692  11.095  62.997  1.00  0.00    -0.384 A  
HETATM   33  C   UNL     1      -8.997   9.936  62.649  1.00  0.00    -0.279 A  
HETATM   34  C   UNL     1      -8.972   9.259  64.961  1.00  0.00    -0.245 A  
HETATM   35  C   UNL     1      -8.633   9.004  63.627  1.00  0.00    -0.145 A  
BRANCH  35  36
HETATM   36  C   UNL     1      -7.854   7.766  63.234  1.00  0.00    -0.129 C  
BRANCH  36  37
HETATM   37  N   UNL     1      -8.194   6.597  64.061  1.00  0.00    -0.009 NA 
HETATM   38  C   UNL     1      -7.592   6.661  65.396  1.00  0.00    -0.086 C  
HETATM   39  C   UNL     1      -7.897   5.313  63.407  1.00  0.00    -0.087 C  
HETATM   40  C   UNL     1      -6.402   4.985  63.349  1.00  0.00    -0.026 C  
HETATM   41  C   UNL     1      -6.086   6.388  65.407  1.00  0.00    -0.030 C  
HETATM   42  C   UNL     1      -5.751   5.051  64.735  1.00  0.00    -0.017 C  
BRANCH  42  43
HETATM   43  C   UNL     1      -6.160   3.858  65.599  1.00  0.00    -0.024 C  
HETATM   44  N   UNL     1      -5.734   2.640  65.161  1.00  0.00    -0.017 N  
HETATM   45  H2  UNL     1      -5.179   2.532  64.312  1.00  0.00     0.000 HD 
HETATM   46  O   UNL     1      -6.853   3.932  66.608  1.00  0.00    -0.055 OA 
HETATM   47  H1  UNL     1      -6.007   1.844  65.738  1.00  0.00     0.000 HD 
ENDBRANCH  42  43
ENDBRANCH  36  37
ENDBRANCH  35  36
ENDBRANCH   4  30
TORSDOF 11
ENDMDL
MODEL      226
REMARK 921   NORMALIZED FREE ENERGY PREDICTED BY IDOCK:   -0.15 KCAL/MOL
REMARK 922        TOTAL FREE ENERGY PREDICTED BY IDOCK:   -1.88 KCAL/MOL
REMARK 923 INTER-LIGAND FREE ENERGY PREDICTED BY IDOCK:   -7.03 KCAL/MOL
REMARK 924 INTRA-LIGAND FREE ENERGY PREDICTED BY IDOCK:    5.15 KCAL/MOL
REMARK 927      BINDING AFFINITY PREDICTED BY RF-SCORE:    0.00 PKD
ROOT
HETATM    1  C   UNL     1      -7.040  15.484  66.999  1.00  0.00    -0.037 C  
HETATM    2  N   UNL     1      -7.809  14.249  66.994  1.00  0.00    -0.036 N  
HETATM    3  O   UNL     1      -5.828  13.072  67.161  1.00  0.00    -0.341 OA 
HETATM    4  C   UNL     1      -7.060  13.057  67.128  1.00  0.00     0.081 C  
ENDROOT
BRANCH   2   5
HETATM    5  C   UNL     1      -9.262  14.285  67.162  1.00  0.00    -0.223 C  
BRANCH   5   6
HETATM    6  C   UNL     1      -9.929  13.814  68.465  1.00  0.00    -0.217 C  
BRANCH   6   7
HETATM    7  N   UNL     1     -10.012  14.917  69.453  1.00  0.00    -0.178 NA 
HETATM    8  C   UNL     1     -11.317  15.594  69.422  1.00  0.00    -0.330 C  
HETATM    9  C   UNL     1      -8.937  15.916  69.339  1.00  0.00    -0.209 C  
HETATM   10  C   UNL     1     -10.368  17.422  67.933  1.00  0.00    -0.369 C  
HETATM   11  C   UNL     1      -9.014  16.713  68.040  1.00  0.00    -0.211 C  
HETATM   12  C   UNL     1     -11.527  16.449  68.171  1.00  0.00    -0.108 C  
BRANCH  10  13
HETATM   13  O   UNL     1     -10.448  18.457  68.933  1.00  0.00    -0.237 OA 
BRANCH  13  14
HETATM   14  C   UNL     1      -9.447  19.378  68.883  1.00  0.00    -0.389 C  
HETATM   15  H   UNL     1      -8.175  17.757  69.100  1.00  0.00     0.000 HD 
HETATM   16  O   UNL     1      -9.603  20.557  68.606  1.00  0.00     0.118 OA 
HETATM   17  N   UNL     1      -8.269  18.767  69.205  1.00  0.00     0.024 N  
BRANCH  17  18
HETATM   18  C   UNL     1      -7.183  19.529  69.683  1.00  0.00    -0.101 A  
HETATM   19  C   UNL     1      -6.234  20.096  68.804  1.00  0.00    -0.341 A  
HETATM   20  C   UNL     1      -6.083  20.467  71.631  1.00  0.00    -0.160 A  
HETATM   21  C   UNL     1      -5.213  20.861  69.413  1.00  0.00    -0.400 A  
HETATM   22  C   UNL     1      -5.144  21.056  70.798  1.00  0.00    -0.183 A  
HETATM   23  C   UNL     1      -7.096  19.695  71.076  1.00  0.00     0.974 A  
BRANCH  19  24
HETATM   24  C   UNL     1      -6.258  19.958  67.315  1.00  0.00    -0.204 A  
HETATM   25  C   UNL     1      -6.201  21.064  66.448  1.00  0.00    -0.330 A  
HETATM   26  C   UNL     1      -6.245  20.917  65.055  1.00  0.00    -0.276 A  
HETATM   27  C   UNL     1      -6.381  19.656  64.489  1.00  0.00    -0.171 A  
HETATM   28  C   UNL     1      -6.451  18.541  65.315  1.00  0.00    -0.230 A  
HETATM   29  C   UNL     1      -6.374  18.691  66.704  1.00  0.00    -0.203 A  
ENDBRANCH  19  24
ENDBRANCH  17  18
ENDBRANCH  13  14
ENDBRANCH  10  13
ENDBRANCH   6   7
ENDBRANCH   5   6
ENDBRANCH   2   5
BRANCH   4  30
HETATM   30  C   UNL     1      -7.735  11.733  67.337  1.00  0.00    -0.151 A  
HETATM   31  C   UNL     1      -7.911  11.288  68.657  1.00  0.00    -0.145 A  
HETATM   32  C   UNL     1      -8.196  10.921  66.298  1.00  0.00    -0.165 A  
HETATM   33  C   UNL     1      -8.963   9.786  66.563  1.00  0.00    -0.172 A  
HETATM   34  C   UNL     1      -8.622  10.112  68.926  1.00  0.00    -0.141 A  
HETATM   35  C   UNL     1      -9.187   9.372  67.881  1.00  0.00    -0.139 A  
BRANCH  35  36
HETATM   36  C   UNL     1      -9.999   8.122  68.150  1.00  0.00    -0.186 C  
BRANCH  36  37
HETATM   37  N   UNL     1     -10.055   7.222  66.987  1.00  0.00    -0.222 NA 
HETATM   38  C   UNL     1     -10.788   5.984  67.271  1.00  0.00    -0.315 C  
HETATM   39  C   UNL     1      -8.734   6.933  66.408  1.00  0.00    -0.142 C  
HETATM   40  C   UNL     1      -7.887   5.979  67.254  1.00  0.00    -0.102 C  
HETATM   41  C   UNL     1     -10.017   5.000  68.154  1.00  0.00    -0.190 C  
HETATM   42  C   UNL     1      -8.637   4.679  67.568  1.00  0.00    -0.103 C  
BRANCH  42  43
HETATM   43  C   UNL     1      -8.734   3.782  66.334  1.00  0.00    -0.118 C  
HETATM   44  N   UNL     1      -9.681   2.804  66.390  1.00  0.00    -0.366 N  
HETATM   45  H2  UNL     1     -10.286   2.680  67.202  1.00  0.00     0.000 HD 
HETATM   46  O   UNL     1      -8.009   3.869  65.348  1.00  0.00    -0.092 OA 
HETATM   47  H1  UNL     1      -9.746   2.206  65.566  1.00  0.00     0.000 HD 
ENDBRANCH  42  43
ENDBRANCH  36  37
ENDBRANCH  35  36
ENDBRANCH   4  30
TORSDOF 11
ENDMDL
MODEL      227
REMARK 921   NORMALIZED FREE ENERGY PREDICTED BY IDOCK:   -0.13 KCAL/MOL
REMARK 922        TOTAL FREE ENERGY PREDICTED BY IDOCK:   -1.84 KCAL/MOL
REMARK 923 INTER-LIGAND FREE ENERGY PREDICTED BY IDOCK:   -5.28 KCAL/MOL
REMARK 924 INTRA-LIGAND FREE ENERGY PREDICTED BY IDOCK:    3.44 KCAL/MOL
REMARK 927      BINDING AFFINITY PREDICTED BY RF-SCORE:    0.00 PKD
ROOT
HETATM    1  C   UNL     1      -5.941   8.776  65.234  1.00  0.00    -0.048 C  
HETATM    2  N   UNL     1      -7.303   9.285  65.293  1.00  0.00    -0.093 N  
HETATM    3  O   UNL     1      -6.491  11.202  66.294  1.00  0.00    -0.132 OA 
HETATM    4  C   UNL     1      -7.451  10.584  65.830  1.00  0.00    -0.139 C  
ENDROOT
BRANCH   2   5
HETATM    5  C   UNL     1      -8.372   8.616  64.550  1.00  0.00    -0.147 C  
BRANCH   5   6
HETATM    6  C   UNL     1      -9.236   7.523  65.201  1.00  0.00     0.711 C  
BRANCH   6   7
HETATM    7  N   UNL     1      -8.608   7.014  66.444  1.00  0.00    -0.129 NA 
HETATM    8  C   UNL     1      -8.465   5.551  66.436  1.00  0.00    -0.119 C  
HETATM    9  C   UNL     1      -9.283   7.436  67.683  1.00  0.00    -0.127 C  
HETATM   10  C   UNL     1     -10.601   5.304  67.791  1.00  0.00    -0.034 C  
HETATM   11  C   UNL     1     -10.678   6.834  67.822  1.00  0.00    -0.334 C  
HETATM   12  C   UNL     1      -9.796   4.811  66.584  1.00  0.00    -0.233 C  
BRANCH  10  13
HETATM   13  O   UNL     1      -9.944   4.833  68.984  1.00  0.00    -0.180 OA 
BRANCH  13  14
HETATM   14  C   UNL     1     -10.140   5.605  70.087  1.00  0.00    -0.227 C  
HETATM   15  H   UNL     1      -8.111   6.001  69.963  1.00  0.00     0.000 HD 
HETATM   16  O   UNL     1     -11.234   5.881  70.555  1.00  0.00    -0.305 OA 
HETATM   17  N   UNL     1      -8.926   5.994  70.575  1.00  0.00    -0.144 N  
BRANCH  17  18
HETATM   18  C   UNL     1      -8.796   6.385  71.924  1.00  0.00    -0.138 A  
HETATM   19  C   UNL     1      -8.147   5.563  72.873  1.00  0.00    -0.108 A  
HETATM   20  C   UNL     1      -9.220   8.116  73.569  1.00  0.00    -0.257 A  
HETATM   21  C   UNL     1      -8.059   6.089  74.182  1.00  0.00    -0.102 A  
HETATM   22  C   UNL     1      -8.573   7.347  74.523  1.00  0.00    -0.218 A  
HETATM   23  C   UNL     1      -9.341   7.632  72.273  1.00  0.00    -0.199 A  
BRANCH  19  24
HETATM   24  C   UNL     1      -7.549   4.225  72.578  1.00  0.00    -0.079 A  
HETATM   25  C   UNL     1      -7.708   3.577  71.339  1.00  0.00    -0.056 A  
HETATM   26  C   UNL     1      -7.156   2.314  71.087  1.00  0.00    -0.032 A  
HETATM   27  C   UNL     1      -6.457   1.644  72.083  1.00  0.00    -0.014 A  
HETATM   28  C   UNL     1      -6.290   2.248  73.324  1.00  0.00    -0.013 A  
HETATM   29  C   UNL     1      -6.815   3.524  73.559  1.00  0.00    -0.036 A  
ENDBRANCH  19  24
ENDBRANCH  17  18
ENDBRANCH  13  14
ENDBRANCH  10  13
ENDBRANCH   6   7
ENDBRANCH   5   6
ENDBRANCH   2   5
BRANCH   4  30
HETATM   30  C   UNL     1      -8.766  11.307  65.767  1.00  0.00    -0.111 A  
HETATM   31  C   UNL     1      -9.874  10.707  66.385  1.00  0.00    -0.259 A  
HETATM   32  C   UNL     1      -8.948  12.538  65.132  1.00  0.00     0.892 A  
HETATM   33  C   UNL     1     -10.150  13.235  65.255  1.00  0.00    -0.254 A  
HETATM   34  C   UNL     1     -11.103  11.373  66.452  1.00  0.00    -0.301 A  
HETATM   35  C   UNL     1     -11.240  12.661  65.920  1.00  0.00    -0.350 A  
BRANCH  35  36
HETATM   36  C   UNL     1     -12.547  13.421  66.020  1.00  0.00    -0.296 C  
BRANCH  36  37
HETATM   37  N   UNL     1     -12.513  14.473  67.047  1.00  0.00    -0.034 NA 
HETATM   38  C   UNL     1     -11.481  15.481  66.783  1.00  0.00     0.043 C  
HETATM   39  C   UNL     1     -12.404  13.950  68.417  1.00  0.00     0.032 C  
HETATM   40  C   UNL     1     -11.013  13.408  68.758  1.00  0.00    -0.290 C  
HETATM   41  C   UNL     1     -10.057  14.992  67.060  1.00  0.00    -0.244 C  
HETATM   42  C   UNL     1      -9.917  14.444  68.486  1.00  0.00    -0.237 C  
BRANCH  42  43
HETATM   43  C   UNL     1      -9.934  15.560  69.531  1.00  0.00    -0.280 C  
HETATM   44  N   UNL     1     -10.354  15.195  70.774  1.00  0.00    -0.436 N  
HETATM   45  H2  UNL     1     -10.639  14.241  70.993  1.00  0.00     0.000 HD 
HETATM   46  O   UNL     1      -9.633  16.729  69.309  1.00  0.00    -0.219 OA 
HETATM   47  H1  UNL     1     -10.365  15.940  71.472  1.00  0.00     0.000 HD 
ENDBRANCH  42  43
ENDBRANCH  36  37
ENDBRANCH  35  36
ENDBRANCH   4  30
TORSDOF 11
ENDMDL
MODEL      228
REMARK 921   NORMALIZED FREE ENERGY PREDICTED BY IDOCK:   -0.12 KCAL/MOL
REMARK 922        TOTAL FREE ENERGY PREDICTED BY IDOCK:   -1.83 KCAL/MOL
REMARK 923 INTER-LIGAND FREE ENERGY PREDICTED BY IDOCK:   -7.39 KCAL/MOL
REMARK 924 INTRA-LIGAND FREE ENERGY PREDICTED BY IDOCK:    5.57 KCAL/MOL
REMARK 927      BINDING AFFINITY PREDICTED BY RF-SCORE:    0.00 PKD
ROOT
HETATM    1  C   UNL     1      -7.034  15.482  66.995  1.00  0.00     0.032 C  
HETATM    2  N   UNL     1      -7.790  14.239  66.985  1.00  0.00    -0.036 N  
HETATM    3  O   UNL     1      -5.795  13.083  67.136  1.00  0.00    -0.341 OA 
HETATM    4  C   UNL     1      -7.027  13.055  67.108  1.00  0.00     0.107 C  
ENDROOT
BRANCH   2   5
HETATM    5  C   UNL     1      -9.243  14.258  67.160  1.00  0.00    -0.223 C  
BRANCH   5   6
HETATM    6  C   UNL     1      -9.897  13.789  68.470  1.00  0.00    -0.204 C  
BRANCH   6   7
HETATM    7  N   UNL     1      -9.984  14.898  69.452  1.00  0.00    -0.178 NA 
HETATM    8  C   UNL     1     -11.294  15.563  69.426  1.00  0.00    -0.316 C  
HETATM    9  C   UNL     1      -8.918  15.906  69.324  1.00  0.00    -0.251 C  
HETATM   10  C   UNL     1     -10.373  17.390  67.919  1.00  0.00    -0.369 C  
HETATM   11  C   UNL     1      -9.012  16.694  68.021  1.00  0.00    -0.211 C  
HETATM   12  C   UNL     1     -11.521  16.408  68.171  1.00  0.00    -0.108 C  
BRANCH  10  13
HETATM   13  O   UNL     1     -10.454  18.431  68.913  1.00  0.00    -0.237 OA 
BRANCH  13  14
HETATM   14  C   UNL     1      -9.469  19.367  68.843  1.00  0.00    -0.389 C  
HETATM   15  H   UNL     1      -8.168  17.767  69.041  1.00  0.00     0.000 HD 
HETATM   16  O   UNL     1      -9.648  20.542  68.565  1.00  0.00     0.039 OA 
HETATM   17  N   UNL     1      -8.276  18.775  69.145  1.00  0.00    -0.096 N  
BRANCH  17  18
HETATM   18  C   UNL     1      -7.194  19.555  69.602  1.00  0.00    -0.101 A  
HETATM   19  C   UNL     1      -6.270  20.136  68.704  1.00  0.00    -0.327 A  
HETATM   20  C   UNL     1      -6.072  20.513  71.528  1.00  0.00    -0.080 A  
HETATM   21  C   UNL     1      -5.252  20.919  69.293  1.00  0.00    -0.394 A  
HETATM   22  C   UNL     1      -5.159  21.116  70.677  1.00  0.00    -0.153 A  
HETATM   23  C   UNL     1      -7.083  19.725  70.993  1.00  0.00     0.821 A  
BRANCH  19  24
HETATM   24  C   UNL     1      -6.320  19.995  67.217  1.00  0.00    -0.224 A  
HETATM   25  C   UNL     1      -6.300  21.101  66.347  1.00  0.00    -0.312 A  
HETATM   26  C   UNL     1      -6.367  20.952  64.955  1.00  0.00    -0.251 A  
HETATM   27  C   UNL     1      -6.493  19.688  64.393  1.00  0.00     0.042 A  
HETATM   28  C   UNL     1      -6.527  18.573  65.222  1.00  0.00    -0.230 A  
HETATM   29  C   UNL     1      -6.426  18.726  66.609  1.00  0.00    -0.209 A  
ENDBRANCH  19  24
ENDBRANCH  17  18
ENDBRANCH  13  14
ENDBRANCH  10  13
ENDBRANCH   6   7
ENDBRANCH   5   6
ENDBRANCH   2   5
BRANCH   4  30
HETATM   30  C   UNL     1      -7.687  11.722  67.312  1.00  0.00    -0.158 A  
HETATM   31  C   UNL     1      -7.843  11.262  68.629  1.00  0.00    -0.139 A  
HETATM   32  C   UNL     1      -8.152  10.916  66.270  1.00  0.00    -0.165 A  
HETATM   33  C   UNL     1      -8.905   9.771  66.533  1.00  0.00    -0.154 A  
HETATM   34  C   UNL     1      -8.540  10.077  68.894  1.00  0.00    -0.138 A  
HETATM   35  C   UNL     1      -9.110   9.341  67.849  1.00  0.00    -0.133 A  
BRANCH  35  36
HETATM   36  C   UNL     1      -9.906   8.080  68.114  1.00  0.00    -0.170 C  
BRANCH  36  37
HETATM   37  N   UNL     1      -9.723   7.572  69.482  1.00  0.00    -0.163 NA 
HETATM   38  C   UNL     1     -10.538   6.384  69.753  1.00  0.00    -0.254 C  
HETATM   39  C   UNL     1      -9.921   8.597  70.518  1.00  0.00    -0.189 C  
HETATM   40  C   UNL     1     -11.388   8.979  70.731  1.00  0.00    -0.329 C  
HETATM   41  C   UNL     1     -12.028   6.687  69.932  1.00  0.00    -0.105 C  
HETATM   42  C   UNL     1     -12.261   7.751  71.011  1.00  0.00    -0.236 C  
BRANCH  42  43
HETATM   43  C   UNL     1     -12.015   7.203  72.417  1.00  0.00    -0.142 C  
HETATM   44  N   UNL     1     -12.438   5.925  72.633  1.00  0.00    -0.487 N  
HETATM   45  H2  UNL     1     -12.888   5.372  71.904  1.00  0.00     0.000 HD 
HETATM   46  O   UNL     1     -11.509   7.838  73.336  1.00  0.00    -0.237 OA 
HETATM   47  H1  UNL     1     -12.274   5.559  73.571  1.00  0.00     0.000 HD 
ENDBRANCH  42  43
ENDBRANCH  36  37
ENDBRANCH  35  36
ENDBRANCH   4  30
TORSDOF 11
ENDMDL
MODEL      229
REMARK 921   NORMALIZED FREE ENERGY PREDICTED BY IDOCK:    0.23 KCAL/MOL
REMARK 922        TOTAL FREE ENERGY PREDICTED BY IDOCK:   -1.25 KCAL/MOL
REMARK 923 INTER-LIGAND FREE ENERGY PREDICTED BY IDOCK:   -5.94 KCAL/MOL
REMARK 924 INTRA-LIGAND FREE ENERGY PREDICTED BY IDOCK:    4.69 KCAL/MOL
REMARK 927      BINDING AFFINITY PREDICTED BY RF-SCORE:    0.00 PKD
ROOT
HETATM    1  C   UNL     1      -8.790  14.063  66.897  1.00  0.00    -0.194 C  
HETATM    2  N   UNL     1      -8.871  12.705  67.413  1.00  0.00    -0.180 N  
HETATM    3  O   UNL     1      -6.565  12.672  67.550  1.00  0.00    -0.130 OA 
HETATM    4  C   UNL     1      -7.638  12.104  67.758  1.00  0.00    -0.131 C  
ENDROOT
BRANCH   2   5
HETATM    5  C   UNL     1     -10.159  12.152  67.835  1.00  0.00    -0.197 C  
BRANCH   5   6
HETATM    6  C   UNL     1     -10.778  12.514  69.195  1.00  0.00    -0.023 C  
BRANCH   6   7
HETATM    7  N   UNL     1     -11.695  13.673  69.074  1.00  0.00    -0.310 NA 
HETATM    8  C   UNL     1     -11.434  14.465  67.864  1.00  0.00    -0.321 C  
HETATM    9  C   UNL     1     -11.711  14.560  70.249  1.00  0.00    -0.293 C  
HETATM   10  C   UNL     1     -10.039  16.112  69.207  1.00  0.00    -0.260 C  
HETATM   11  C   UNL     1     -10.385  15.287  70.451  1.00  0.00    -0.088 C  
HETATM   12  C   UNL     1     -10.131  15.265  67.934  1.00  0.00    -0.233 C  
BRANCH  10  13
HETATM   13  O   UNL     1     -10.972  17.204  69.081  1.00  0.00    -0.173 OA 
BRANCH  13  14
HETATM   14  C   UNL     1     -10.526  18.254  68.340  1.00  0.00    -0.269 C  
HETATM   15  H   UNL     1      -9.421  16.838  67.308  1.00  0.00     0.000 HD 
HETATM   16  O   UNL     1     -10.973  19.388  68.406  1.00  0.00     0.094 OA 
HETATM   17  N   UNL     1      -9.506  17.827  67.539  1.00  0.00    -0.255 N  
BRANCH  17  18
HETATM   18  C   UNL     1      -8.570  18.751  67.031  1.00  0.00    -0.282 A  
HETATM   19  C   UNL     1      -7.259  18.839  67.552  1.00  0.00    -0.225 A  
HETATM   20  C   UNL     1      -8.136  20.483  65.389  1.00  0.00     0.545 A  
HETATM   21  C   UNL     1      -6.414  19.785  66.931  1.00  0.00    -0.205 A  
HETATM   22  C   UNL     1      -6.837  20.584  65.861  1.00  0.00    -0.245 A  
HETATM   23  C   UNL     1      -9.006  19.575  65.979  1.00  0.00    -0.229 A  
BRANCH  19  24
HETATM   24  C   UNL     1      -6.727  18.002  68.670  1.00  0.00    -0.240 A  
HETATM   25  C   UNL     1      -7.061  16.644  68.830  1.00  0.00    -0.205 A  
HETATM   26  C   UNL     1      -6.568  15.879  69.896  1.00  0.00    -0.086 A  
HETATM   27  C   UNL     1      -5.750  16.463  70.855  1.00  0.00     0.214 A  
HETATM   28  C   UNL     1      -5.408  17.804  70.737  1.00  0.00    -0.240 A  
HETATM   29  C   UNL     1      -5.877  18.554  69.652  1.00  0.00    -0.254 A  
ENDBRANCH  19  24
ENDBRANCH  17  18
ENDBRANCH  13  14
ENDBRANCH  10  13
ENDBRANCH   6   7
ENDBRANCH   5   6
ENDBRANCH   2   5
BRANCH   4  30
HETATM   30  C   UNL     1      -7.589  10.790  68.483  1.00  0.00    -0.104 A  
HETATM   31  C   UNL     1      -7.412   9.626  67.719  1.00  0.00    -0.087 A  
HETATM   32  C   UNL     1      -7.708  10.661  69.869  1.00  0.00     0.083 A  
HETATM   33  C   UNL     1      -7.485   9.433  70.494  1.00  0.00    -0.154 A  
HETATM   34  C   UNL     1      -7.255   8.381  68.339  1.00  0.00    -0.085 A  
HETATM   35  C   UNL     1      -7.252   8.281  69.735  1.00  0.00    -0.060 A  
BRANCH  35  36
HETATM   36  C   UNL     1      -7.040   6.952  70.430  1.00  0.00    -0.067 C  
BRANCH  36  37
HETATM   37  N   UNL     1      -8.225   6.083  70.366  1.00  0.00    -0.114 NA 
HETATM   38  C   UNL     1      -9.455   6.782  70.751  1.00  0.00    -0.165 C  
HETATM   39  C   UNL     1      -8.071   4.828  71.119  1.00  0.00    -0.092 C  
HETATM   40  C   UNL     1      -8.142   5.011  72.637  1.00  0.00    -0.108 C  
HETATM   41  C   UNL     1      -9.571   7.040  72.256  1.00  0.00    -0.165 C  
HETATM   42  C   UNL     1      -9.418   5.745  73.063  1.00  0.00    -0.153 C  
BRANCH  42  43
HETATM   43  C   UNL     1     -10.647   4.844  72.936  1.00  0.00    -0.219 C  
HETATM   44  N   UNL     1     -10.576   3.885  71.970  1.00  0.00     0.066 N  
HETATM   45  H2  UNL     1      -9.757   3.776  71.372  1.00  0.00     0.000 HD 
HETATM   46  O   UNL     1     -11.667   4.955  73.607  1.00  0.00    -0.102 OA 
HETATM   47  H1  UNL     1     -11.396   3.283  71.885  1.00  0.00     0.000 HD 
ENDBRANCH  42  43
ENDBRANCH  36  37
ENDBRANCH  35  36
ENDBRANCH   4  30
TORSDOF 11
ENDMDL
MODEL      230
REMARK 921   NORMALIZED FREE ENERGY PREDICTED BY IDOCK:    0.75 KCAL/MOL
REMARK 922        TOTAL FREE ENERGY PREDICTED BY IDOCK:   -0.41 KCAL/MOL
REMARK 923 INTER-LIGAND FREE ENERGY PREDICTED BY IDOCK:   -3.70 KCAL/MOL
REMARK 924 INTRA-LIGAND FREE ENERGY PREDICTED BY IDOCK:    3.29 KCAL/MOL
REMARK 927      BINDING AFFINITY PREDICTED BY RF-SCORE:    0.00 PKD
ROOT
HETATM    1  C   UNL     1     -12.786  15.378  70.107  1.00  0.00    -0.158 C  
HETATM    2  N   UNL     1     -11.869  14.276  70.358  1.00  0.00    -0.304 N  
HETATM    3  O   UNL     1     -13.491  12.817  69.597  1.00  0.00     1.937 OA 
HETATM    4  C   UNL     1     -12.342  12.990  70.008  1.00  0.00    -0.152 C  
ENDROOT
BRANCH   2   5
HETATM    5  C   UNL     1     -10.459  14.542  70.646  1.00  0.00     0.809 C  
BRANCH   5   6
HETATM    6  C   UNL     1      -9.711  15.707  69.977  1.00  0.00    -0.011 C  
BRANCH   6   7
HETATM    7  N   UNL     1     -10.319  16.052  68.669  1.00  0.00    -0.232 NA 
HETATM    8  C   UNL     1     -10.424  14.887  67.779  1.00  0.00    -0.255 C  
HETATM    9  C   UNL     1      -9.648  17.154  67.960  1.00  0.00    -0.267 C  
HETATM   10  C   UNL     1      -8.274  15.555  66.600  1.00  0.00    -0.209 C  
HETATM   11  C   UNL     1      -8.236  16.787  67.511  1.00  0.00    -0.187 C  
HETATM   12  C   UNL     1      -9.073  14.414  67.238  1.00  0.00    -0.221 C  
BRANCH  10  13
HETATM   13  O   UNL     1      -8.912  15.900  65.354  1.00  0.00    -0.099 OA 
BRANCH  13  14
HETATM   14  C   UNL     1     -10.076  15.242  65.106  1.00  0.00    -0.288 C  
HETATM   15  H   UNL     1      -8.994  13.523  65.519  1.00  0.00     0.000 HD 
HETATM   16  O   UNL     1     -11.158  15.783  64.942  1.00  0.00    -0.422 OA 
HETATM   17  N   UNL     1      -9.823  13.900  65.059  1.00  0.00    -0.160 N  
BRANCH  17  18
HETATM   18  C   UNL     1     -10.703  13.036  64.378  1.00  0.00    -0.394 A  
HETATM   19  C   UNL     1     -10.360  11.692  64.109  1.00  0.00    -0.386 A  
HETATM   20  C   UNL     1     -12.883  12.787  63.343  1.00  0.00     0.009 A  
HETATM   21  C   UNL     1     -11.346  10.927  63.446  1.00  0.00     0.751 A  
HETATM   22  C   UNL     1     -12.590  11.458  63.080  1.00  0.00     0.384 A  
HETATM   23  C   UNL     1     -11.938  13.579  63.982  1.00  0.00    -0.501 A  
BRANCH  19  24
HETATM   24  C   UNL     1      -9.067  11.047  64.493  1.00  0.00    -0.127 A  
HETATM   25  C   UNL     1      -8.143  10.572  63.544  1.00  0.00    -0.062 A  
HETATM   26  C   UNL     1      -6.944   9.952  63.923  1.00  0.00    -0.124 A  
HETATM   27  C   UNL     1      -6.651   9.758  65.267  1.00  0.00    -0.098 A  
HETATM   28  C   UNL     1      -7.546  10.204  66.232  1.00  0.00    -0.111 A  
HETATM   29  C   UNL     1      -8.725  10.852  65.849  1.00  0.00    -0.190 A  
ENDBRANCH  19  24
ENDBRANCH  17  18
ENDBRANCH  13  14
ENDBRANCH  10  13
ENDBRANCH   6   7
ENDBRANCH   5   6
ENDBRANCH   2   5
BRANCH   4  30
HETATM   30  C   UNL     1     -11.434  11.795  70.028  1.00  0.00    -0.234 A  
HETATM   31  C   UNL     1     -11.853  10.665  70.746  1.00  0.00    -0.459 A  
HETATM   32  C   UNL     1     -10.200  11.744  69.373  1.00  0.00     0.285 A  
HETATM   33  C   UNL     1      -9.484  10.549  69.290  1.00  0.00    -0.191 A  
HETATM   34  C   UNL     1     -11.103   9.483  70.721  1.00  0.00    -0.390 A  
HETATM   35  C   UNL     1      -9.931   9.405  69.960  1.00  0.00    -0.253 A  
BRANCH  35  36
HETATM   36  C   UNL     1      -9.126   8.124  69.881  1.00  0.00    -0.151 C  
BRANCH  36  37
HETATM   37  N   UNL     1      -9.926   6.931  70.201  1.00  0.00    -0.178 NA 
HETATM   38  C   UNL     1     -10.260   6.847  71.626  1.00  0.00    -0.191 C  
HETATM   39  C   UNL     1      -9.322   5.678  69.724  1.00  0.00    -0.143 C  
HETATM   40  C   UNL     1      -8.109   5.229  70.543  1.00  0.00    -0.104 C  
HETATM   41  C   UNL     1      -9.078   6.446  72.514  1.00  0.00    -0.136 C  
HETATM   42  C   UNL     1      -8.435   5.138  72.038  1.00  0.00    -0.126 C  
BRANCH  42  43
HETATM   43  C   UNL     1      -9.313   3.924  72.343  1.00  0.00    -0.119 C  
HETATM   44  N   UNL     1      -9.831   3.875  73.602  1.00  0.00    -0.109 N  
HETATM   45  H2  UNL     1      -9.646   4.600  74.295  1.00  0.00     0.000 HD 
HETATM   46  O   UNL     1      -9.539   3.010  71.557  1.00  0.00    -0.136 OA 
HETATM   47  H1  UNL     1     -10.418   3.065  73.806  1.00  0.00     0.000 HD 
ENDBRANCH  42  43
ENDBRANCH  36  37
ENDBRANCH  35  36
ENDBRANCH   4  30
TORSDOF 11
ENDMDL
MODEL      231
REMARK 921   NORMALIZED FREE ENERGY PREDICTED BY IDOCK:    0.80 KCAL/MOL
REMARK 922        TOTAL FREE ENERGY PREDICTED BY IDOCK:   -0.31 KCAL/MOL
REMARK 923 INTER-LIGAND FREE ENERGY PREDICTED BY IDOCK:   -2.89 KCAL/MOL
REMARK 924 INTRA-LIGAND FREE ENERGY PREDICTED BY IDOCK:    2.57 KCAL/MOL
REMARK 927      BINDING AFFINITY PREDICTED BY RF-SCORE:    0.00 PKD
ROOT
HETATM    1  C   UNL     1      -5.584  16.045  66.517  1.00  0.00     1.193 C  
HETATM    2  N   UNL     1      -6.652  15.761  67.463  1.00  0.00    -0.171 N  
HETATM    3  O   UNL     1      -8.019  17.196  66.276  1.00  0.00    -0.281 OA 
HETATM    4  C   UNL     1      -7.890  16.392  67.201  1.00  0.00    -0.189 C  
ENDROOT
BRANCH   2   5
HETATM    5  C   UNL     1      -6.521  14.654  68.412  1.00  0.00    -0.104 C  
BRANCH   5   6
HETATM    6  C   UNL     1      -7.053  13.250  68.083  1.00  0.00    -0.111 C  
BRANCH   6   7
HETATM    7  N   UNL     1      -7.193  12.429  69.310  1.00  0.00     0.062 NA 
HETATM    8  C   UNL     1      -6.024  11.568  69.539  1.00  0.00    -0.086 C  
HETATM    9  C   UNL     1      -8.420  11.616  69.361  1.00  0.00     0.671 C  
HETATM   10  C   UNL     1      -7.224   9.601  68.466  1.00  0.00    -0.070 C  
HETATM   11  C   UNL     1      -8.439  10.519  68.300  1.00  0.00    -0.123 C  
HETATM   12  C   UNL     1      -5.923  10.406  68.548  1.00  0.00    -0.043 C  
BRANCH  10  13
HETATM   13  O   UNL     1      -7.356   8.848  69.689  1.00  0.00    -0.054 OA 
BRANCH  13  14
HETATM   14  C   UNL     1      -8.637   8.644  70.099  1.00  0.00    -0.138 C  
HETATM   15  H   UNL     1      -7.784   7.682  71.724  1.00  0.00     0.000 HD 
HETATM   16  O   UNL     1      -9.620   9.147  69.578  1.00  0.00    -0.160 OA 
HETATM   17  N   UNL     1      -8.629   7.787  71.162  1.00  0.00    -0.128 N  
BRANCH  17  18
HETATM   18  C   UNL     1      -9.784   7.047  71.485  1.00  0.00    -0.165 A  
HETATM   19  C   UNL     1      -9.702   5.786  72.117  1.00  0.00    -0.174 A  
HETATM   20  C   UNL     1     -12.209   6.989  71.469  1.00  0.00    -0.407 A  
HETATM   21  C   UNL     1     -10.937   5.165  72.413  1.00  0.00    -0.244 A  
HETATM   22  C   UNL     1     -12.169   5.759  72.108  1.00  0.00     0.096 A  
HETATM   23  C   UNL     1     -11.019   7.628  71.149  1.00  0.00    -0.263 A  
BRANCH  19  24
HETATM   24  C   UNL     1      -8.428   5.103  72.500  1.00  0.00    -0.121 A  
HETATM   25  C   UNL     1      -7.697   5.447  73.651  1.00  0.00    -0.102 A  
HETATM   26  C   UNL     1      -6.495   4.809  73.984  1.00  0.00    -0.062 A  
HETATM   27  C   UNL     1      -5.969   3.829  73.152  1.00  0.00    -0.011 A  
HETATM   28  C   UNL     1      -6.658   3.471  71.999  1.00  0.00    -0.015 A  
HETATM   29  C   UNL     1      -7.875   4.088  71.690  1.00  0.00    -0.070 A  
ENDBRANCH  19  24
ENDBRANCH  17  18
ENDBRANCH  13  14
ENDBRANCH  10  13
ENDBRANCH   6   7
ENDBRANCH   5   6
ENDBRANCH   2   5
BRANCH   4  30
HETATM   30  C   UNL     1      -9.125  16.035  67.976  1.00  0.00    -0.189 A  
HETATM   31  C   UNL     1      -8.995  15.829  69.358  1.00  0.00    -0.247 A  
HETATM   32  C   UNL     1     -10.392  15.896  67.402  1.00  0.00    -0.288 A  
HETATM   33  C   UNL     1     -11.524  15.730  68.200  1.00  0.00    -0.302 A  
HETATM   34  C   UNL     1     -10.123  15.593  70.155  1.00  0.00    -0.145 A  
HETATM   35  C   UNL     1     -11.401  15.581  69.585  1.00  0.00    -0.319 A  
BRANCH  35  36
HETATM   36  C   UNL     1     -12.640  15.373  70.433  1.00  0.00    -0.389 C  
BRANCH  36  37
HETATM   37  N   UNL     1     -13.342  14.121  70.113  1.00  0.00     0.393 NA 
HETATM   38  C   UNL     1     -14.199  13.662  71.211  1.00  0.00     0.606 C  
HETATM   39  C   UNL     1     -12.445  13.048  69.657  1.00  0.00     0.110 C  
HETATM   40  C   UNL     1     -11.608  12.429  70.779  1.00  0.00     0.663 C  
HETATM   41  C   UNL     1     -13.423  13.071  72.391  1.00  0.00    -0.615 C  
HETATM   42  C   UNL     1     -12.483  11.946  71.941  1.00  0.00     0.154 C  
BRANCH  42  43
HETATM   43  C   UNL     1     -13.249  10.675  71.570  1.00  0.00    -0.360 C  
HETATM   44  N   UNL     1     -13.374  10.432  70.236  1.00  0.00    -0.349 N  
HETATM   45  H2  UNL     1     -12.984  11.057  69.530  1.00  0.00     0.000 HD 
HETATM   46  O   UNL     1     -13.765   9.911  72.378  1.00  0.00    -0.338 OA 
HETATM   47  H1  UNL     1     -13.885   9.584  69.988  1.00  0.00     0.000 HD 
ENDBRANCH  42  43
ENDBRANCH  36  37
ENDBRANCH  35  36
ENDBRANCH   4  30
TORSDOF 11
ENDMDL
MODEL      232
REMARK 921   NORMALIZED FREE ENERGY PREDICTED BY IDOCK:    0.81 KCAL/MOL
REMARK 922        TOTAL FREE ENERGY PREDICTED BY IDOCK:   -0.31 KCAL/MOL
REMARK 923 INTER-LIGAND FREE ENERGY PREDICTED BY IDOCK:   -3.54 KCAL/MOL
REMARK 924 INTRA-LIGAND FREE ENERGY PREDICTED BY IDOCK:    3.23 KCAL/MOL
REMARK 927      BINDING AFFINITY PREDICTED BY RF-SCORE:    0.00 PKD
ROOT
HETATM    1  C   UNL     1     -10.884   7.237  72.750  1.00  0.00    -0.314 C  
HETATM    2  N   UNL     1     -10.081   8.047  71.847  1.00  0.00    -0.190 N  
HETATM    3  O   UNL     1      -8.594   8.416  73.576  1.00  0.00    -0.304 OA 
HETATM    4  C   UNL     1      -8.885   8.572  72.388  1.00  0.00    -0.198 C  
ENDROOT
BRANCH   2   5
HETATM    5  C   UNL     1     -10.350   8.034  70.408  1.00  0.00    -0.206 C  
BRANCH   5   6
HETATM    6  C   UNL     1     -11.713   7.586  69.854  1.00  0.00     0.233 C  
BRANCH   6   7
HETATM    7  N   UNL     1     -11.626   6.237  69.245  1.00  0.00    -0.238 NA 
HETATM    8  C   UNL     1     -10.608   5.398  69.894  1.00  0.00    -0.281 C  
HETATM    9  C   UNL     1     -11.405   6.240  67.789  1.00  0.00     0.120 C  
HETATM   10  C   UNL     1      -8.927   5.979  68.080  1.00  0.00    -0.112 C  
HETATM   11  C   UNL     1     -10.035   6.795  67.407  1.00  0.00    -0.192 C  
HETATM   12  C   UNL     1      -9.175   5.835  69.584  1.00  0.00    -0.159 C  
BRANCH  10  13
HETATM   13  O   UNL     1      -8.891   4.656  67.508  1.00  0.00    -0.104 OA 
BRANCH  13  14
HETATM   14  C   UNL     1      -7.791   4.388  66.755  1.00  0.00    -0.098 C  
HETATM   15  H   UNL     1      -7.993   6.333  66.070  1.00  0.00     0.000 HD 
HETATM   16  O   UNL     1      -7.109   3.381  66.858  1.00  0.00    -0.057 OA 
HETATM   17  N   UNL     1      -7.597   5.414  65.875  1.00  0.00    -0.082 N  
BRANCH  17  18
HETATM   18  C   UNL     1      -6.852   5.206  64.696  1.00  0.00    -0.049 A  
HETATM   19  C   UNL     1      -6.357   6.288  63.933  1.00  0.00    -0.030 A  
HETATM   20  C   UNL     1      -5.864   3.573  63.199  1.00  0.00    -0.013 A  
HETATM   21  C   UNL     1      -5.600   5.939  62.792  1.00  0.00    -0.017 A  
HETATM   22  C   UNL     1      -5.345   4.608  62.437  1.00  0.00    -0.009 A  
HETATM   23  C   UNL     1      -6.625   3.870  64.322  1.00  0.00    -0.043 A  
BRANCH  19  24
HETATM   24  C   UNL     1      -6.562   7.731  64.264  1.00  0.00    -0.056 A  
HETATM   25  C   UNL     1      -5.689   8.451  65.100  1.00  0.00    -0.044 A  
HETATM   26  C   UNL     1      -5.907   9.799  65.416  1.00  0.00    -0.069 A  
HETATM   27  C   UNL     1      -7.029  10.458  64.930  1.00  0.00    -0.045 A  
HETATM   28  C   UNL     1      -7.920   9.776  64.110  1.00  0.00    -0.143 A  
HETATM   29  C   UNL     1      -7.679   8.440  63.772  1.00  0.00    -0.144 A  
ENDBRANCH  19  24
ENDBRANCH  17  18
ENDBRANCH  13  14
ENDBRANCH  10  13
ENDBRANCH   6   7
ENDBRANCH   5   6
ENDBRANCH   2   5
BRANCH   4  30
HETATM   30  C   UNL     1      -7.870   9.254  71.518  1.00  0.00     0.220 A  
HETATM   31  C   UNL     1      -8.328   9.897  70.358  1.00  0.00     0.016 A  
HETATM   32  C   UNL     1      -6.501   9.287  71.797  1.00  0.00     0.071 A  
HETATM   33  C   UNL     1      -5.636  10.079  71.042  1.00  0.00    -0.085 A  
HETATM   34  C   UNL     1      -7.449  10.638  69.557  1.00  0.00    -0.132 A  
HETATM   35  C   UNL     1      -6.102  10.766  69.915  1.00  0.00    -0.094 A  
BRANCH  35  36
HETATM   36  C   UNL     1      -5.143  11.599  69.090  1.00  0.00    -0.047 C  
BRANCH  36  37
HETATM   37  N   UNL     1      -5.812  12.310  67.990  1.00  0.00    -0.056 NA 
HETATM   38  C   UNL     1      -5.134  13.561  67.636  1.00  0.00     0.035 C  
HETATM   39  C   UNL     1      -7.246  12.534  68.226  1.00  0.00    -0.111 C  
HETATM   40  C   UNL     1      -7.536  13.623  69.262  1.00  0.00     0.188 C  
HETATM   41  C   UNL     1      -5.343  14.684  68.655  1.00  0.00    -0.095 C  
HETATM   42  C   UNL     1      -6.832  14.940  68.914  1.00  0.00    -0.104 C  
BRANCH  42  43
HETATM   43  C   UNL     1      -7.507  15.636  67.732  1.00  0.00    -0.145 C  
HETATM   44  N   UNL     1      -6.667  16.252  66.854  1.00  0.00    -0.185 N  
HETATM   45  H2  UNL     1      -5.654  16.249  66.977  1.00  0.00     0.000 HD 
HETATM   46  O   UNL     1      -8.720  15.698  67.558  1.00  0.00    -0.170 OA 
HETATM   47  H1  UNL     1      -7.117  16.717  66.065  1.00  0.00     0.000 HD 
ENDBRANCH  42  43
ENDBRANCH  36  37
ENDBRANCH  35  36
ENDBRANCH   4  30
TORSDOF 11
ENDMDL
MODEL      233
REMARK 921   NORMALIZED FREE ENERGY PREDICTED BY IDOCK:    0.88 KCAL/MOL
REMARK 922        TOTAL FREE ENERGY PREDICTED BY IDOCK:   -0.19 KCAL/MOL
REMARK 923 INTER-LIGAND FREE ENERGY PREDICTED BY IDOCK:   -5.05 KCAL/MOL
REMARK 924 INTRA-LIGAND FREE ENERGY PREDICTED BY IDOCK:    4.86 KCAL/MOL
REMARK 927      BINDING AFFINITY PREDICTED BY RF-SCORE:    0.00 PKD
ROOT
HETATM    1  C   UNL     1     -13.382   7.458  72.019  1.00  0.00    -0.123 C  
HETATM    2  N   UNL     1     -12.080   7.768  71.448  1.00  0.00    -0.304 N  
HETATM    3  O   UNL     1     -11.146   7.480  73.541  1.00  0.00    -0.312 OA 
HETATM    4  C   UNL     1     -10.985   7.703  72.339  1.00  0.00    -0.301 C  
ENDROOT
BRANCH   2   5
HETATM    5  C   UNL     1     -11.907   7.820  69.995  1.00  0.00     0.349 C  
BRANCH   5   6
HETATM    6  C   UNL     1     -11.442   9.105  69.290  1.00  0.00     0.404 C  
BRANCH   6   7
HETATM    7  N   UNL     1     -12.518  10.125  69.272  1.00  0.00     0.255 NA 
HETATM    8  C   UNL     1     -12.280  11.167  68.263  1.00  0.00     0.303 C  
HETATM    9  C   UNL     1     -12.779  10.756  70.577  1.00  0.00    -0.305 C  
HETATM   10  C   UNL     1     -11.291  12.700  70.032  1.00  0.00     0.131 C  
HETATM   11  C   UNL     1     -11.610  11.609  71.059  1.00  0.00     0.748 C  
HETATM   12  C   UNL     1     -11.134  12.113  68.626  1.00  0.00    -0.297 C  
BRANCH  10  13
HETATM   13  O   UNL     1     -12.371  13.653  69.995  1.00  0.00    -0.322 OA 
BRANCH  13  14
HETATM   14  C   UNL     1     -12.217  14.657  69.090  1.00  0.00    -0.188 C  
HETATM   15  H   UNL     1     -10.658  13.516  68.343  1.00  0.00     0.000 HD 
HETATM   16  O   UNL     1     -12.995  15.588  68.947  1.00  0.00     0.688 OA 
HETATM   17  N   UNL     1     -11.060  14.452  68.396  1.00  0.00    -0.246 N  
BRANCH  17  18
HETATM   18  C   UNL     1     -10.418  15.529  67.751  1.00  0.00    -0.273 A  
HETATM   19  C   UNL     1     -10.292  15.581  66.345  1.00  0.00    -0.303 A  
HETATM   20  C   UNL     1      -9.305  17.667  68.026  1.00  0.00    -0.274 A  
HETATM   21  C   UNL     1      -9.655  16.732  65.828  1.00  0.00    -0.114 A  
HETATM   22  C   UNL     1      -9.182  17.763  66.649  1.00  0.00    -0.280 A  
HETATM   23  C   UNL     1      -9.914  16.548  68.579  1.00  0.00    -0.251 A  
BRANCH  19  24
HETATM   24  C   UNL     1     -10.797  14.536  65.402  1.00  0.00    -0.362 A  
HETATM   25  C   UNL     1     -10.193  13.272  65.275  1.00  0.00    -0.303 A  
HETATM   26  C   UNL     1     -10.668  12.311  64.372  1.00  0.00    -0.369 A  
HETATM   27  C   UNL     1     -11.744  12.602  63.543  1.00  0.00    -0.604 A  
HETATM   28  C   UNL     1     -12.359  13.845  63.633  1.00  0.00    -0.177 A  
HETATM   29  C   UNL     1     -11.901  14.788  64.560  1.00  0.00    -0.428 A  
ENDBRANCH  19  24
ENDBRANCH  17  18
ENDBRANCH  13  14
ENDBRANCH  10  13
ENDBRANCH   6   7
ENDBRANCH   5   6
ENDBRANCH   2   5
BRANCH   4  30
HETATM   30  C   UNL     1      -9.571   7.803  71.845  1.00  0.00    -0.210 A  
HETATM   31  C   UNL     1      -9.287   7.299  70.566  1.00  0.00    -0.158 A  
HETATM   32  C   UNL     1      -8.526   8.367  72.581  1.00  0.00    -0.223 A  
HETATM   33  C   UNL     1      -7.277   8.582  72.000  1.00  0.00    -0.108 A  
HETATM   34  C   UNL     1      -8.013   7.452  70.004  1.00  0.00    -0.119 A  
HETATM   35  C   UNL     1      -7.008   8.130  70.703  1.00  0.00    -0.037 A  
BRANCH  35  36
HETATM   36  C   UNL     1      -5.636   8.347  70.098  1.00  0.00    -0.021 C  
BRANCH  36  37
HETATM   37  N   UNL     1      -5.610   8.098  68.649  1.00  0.00    -0.035 NA 
HETATM   38  C   UNL     1      -5.127   9.255  67.889  1.00  0.00    -0.034 C  
HETATM   39  C   UNL     1      -6.893   7.613  68.116  1.00  0.00    -0.064 C  
HETATM   40  C   UNL     1      -7.971   8.697  68.029  1.00  0.00    -0.107 C  
HETATM   41  C   UNL     1      -6.140  10.400  67.800  1.00  0.00    -0.052 C  
HETATM   42  C   UNL     1      -7.486   9.920  67.243  1.00  0.00    -0.087 C  
BRANCH  42  43
HETATM   43  C   UNL     1      -7.411   9.625  65.745  1.00  0.00    -0.100 C  
HETATM   44  N   UNL     1      -7.487  10.711  64.926  1.00  0.00    -0.354 N  
HETATM   45  H2  UNL     1      -7.586  11.659  65.289  1.00  0.00     0.000 HD 
HETATM   46  O   UNL     1      -7.326   8.502  65.258  1.00  0.00    -0.081 OA 
HETATM   47  H1  UNL     1      -7.437  10.514  63.926  1.00  0.00     0.000 HD 
ENDBRANCH  42  43
ENDBRANCH  36  37
ENDBRANCH  35  36
ENDBRANCH   4  30
TORSDOF 11
ENDMDL
MODEL      234
REMARK 921   NORMALIZED FREE ENERGY PREDICTED BY IDOCK:    1.35 KCAL/MOL
REMARK 922        TOTAL FREE ENERGY PREDICTED BY IDOCK:    0.58 KCAL/MOL
REMARK 923 INTER-LIGAND FREE ENERGY PREDICTED BY IDOCK:   -3.51 KCAL/MOL
REMARK 924 INTRA-LIGAND FREE ENERGY PREDICTED BY IDOCK:    4.09 KCAL/MOL
REMARK 927      BINDING AFFINITY PREDICTED BY RF-SCORE:    0.00 PKD
ROOT
HETATM    1  C   UNL     1      -9.591  10.415  62.357  1.00  0.00    -0.137 C  
HETATM    2  N   UNL     1      -9.354   9.675  63.588  1.00  0.00    -0.125 N  
HETATM    3  O   UNL     1      -8.282   8.048  62.346  1.00  0.00    -0.164 OA 
HETATM    4  C   UNL     1      -8.621   8.474  63.452  1.00  0.00     0.055 C  
ENDROOT
BRANCH   2   5
HETATM    5  C   UNL     1      -9.587  10.311  64.886  1.00  0.00    -0.304 C  
BRANCH   5   6
HETATM    6  C   UNL     1     -10.635   9.764  65.868  1.00  0.00     0.197 C  
BRANCH   6   7
HETATM    7  N   UNL     1     -10.407  10.283  67.238  1.00  0.00    -0.218 NA 
HETATM    8  C   UNL     1     -11.567  11.025  67.752  1.00  0.00    -0.194 C  
HETATM    9  C   UNL     1      -9.194  11.106  67.382  1.00  0.00    -0.153 C  
HETATM   10  C   UNL     1     -10.496  13.229  67.078  1.00  0.00    -0.249 C  
HETATM   11  C   UNL     1      -9.284  12.419  66.608  1.00  0.00    -0.218 C  
HETATM   12  C   UNL     1     -11.771  12.380  67.071  1.00  0.00    -0.423 C  
BRANCH  10  13
HETATM   13  O   UNL     1     -10.274  13.683  68.428  1.00  0.00    -0.236 OA 
BRANCH  13  14
HETATM   14  C   UNL     1     -11.219  13.293  69.326  1.00  0.00    -0.208 C  
HETATM   15  H   UNL     1      -9.662  12.323  70.288  1.00  0.00     0.000 HD 
HETATM   16  O   UNL     1     -12.367  13.708  69.349  1.00  0.00    -0.292 OA 
HETATM   17  N   UNL     1     -10.673  12.365  70.166  1.00  0.00     1.090 N  
BRANCH  17  18
HETATM   18  C   UNL     1     -11.504  11.466  70.865  1.00  0.00     0.671 A  
HETATM   19  C   UNL     1     -11.059  10.173  71.223  1.00  0.00    -0.024 A  
HETATM   20  C   UNL     1     -13.664  11.117  71.913  1.00  0.00     0.092 A  
HETATM   21  C   UNL     1     -11.981   9.385  71.948  1.00  0.00    -0.416 A  
HETATM   22  C   UNL     1     -13.255   9.851  72.300  1.00  0.00    -0.434 A  
HETATM   23  C   UNL     1     -12.794  11.921  71.188  1.00  0.00    -0.346 A  
BRANCH  19  24
HETATM   24  C   UNL     1      -9.706   9.618  70.910  1.00  0.00    -0.125 A  
HETATM   25  C   UNL     1      -9.177   9.595  69.607  1.00  0.00    -0.225 A  
HETATM   26  C   UNL     1      -7.915   9.053  69.329  1.00  0.00    -0.096 A  
HETATM   27  C   UNL     1      -7.159   8.484  70.346  1.00  0.00    -0.038 A  
HETATM   28  C   UNL     1      -7.654   8.479  71.644  1.00  0.00    -0.135 A  
HETATM   29  C   UNL     1      -8.901   9.051  71.921  1.00  0.00     0.034 A  
ENDBRANCH  19  24
ENDBRANCH  17  18
ENDBRANCH  13  14
ENDBRANCH  10  13
ENDBRANCH   6   7
ENDBRANCH   5   6
ENDBRANCH   2   5
BRANCH   4  30
HETATM   30  C   UNL     1      -8.136   7.718  64.655  1.00  0.00    -0.123 A  
HETATM   31  C   UNL     1      -8.518   6.374  64.782  1.00  0.00     0.036 A  
HETATM   32  C   UNL     1      -7.329   8.274  65.652  1.00  0.00    -0.072 A  
HETATM   33  C   UNL     1      -6.776   7.475  66.652  1.00  0.00    -0.058 A  
HETATM   34  C   UNL     1      -8.019   5.584  65.825  1.00  0.00    -0.108 A  
HETATM   35  C   UNL     1      -7.112   6.120  66.747  1.00  0.00    -0.073 A  
BRANCH  35  36
HETATM   36  C   UNL     1      -6.523   5.274  67.857  1.00  0.00    -0.048 C  
BRANCH  36  37
HETATM   37  N   UNL     1      -7.437   4.212  68.306  1.00  0.00    -0.063 NA 
HETATM   38  C   UNL     1      -8.718   4.740  68.784  1.00  0.00    -0.093 C  
HETATM   39  C   UNL     1      -6.836   3.304  69.295  1.00  0.00    -0.041 C  
HETATM   40  C   UNL     1      -6.685   3.924  70.687  1.00  0.00    -0.032 C  
HETATM   41  C   UNL     1      -8.632   5.418  70.154  1.00  0.00    -0.121 C  
HETATM   42  C   UNL     1      -8.013   4.488  71.205  1.00  0.00    -0.082 C  
BRANCH  42  43
HETATM   43  C   UNL     1      -8.970   3.369  71.614  1.00  0.00    -0.102 C  
HETATM   44  N   UNL     1     -10.296   3.639  71.449  1.00  0.00     0.157 N  
HETATM   45  H2  UNL     1     -10.627   4.529  71.077  1.00  0.00     0.000 HD 
HETATM   46  O   UNL     1      -8.625   2.296  72.096  1.00  0.00    -0.063 OA 
HETATM   47  H1  UNL     1     -10.935   2.892  71.722  1.00  0.00     0.000 HD 
ENDBRANCH  42  43
ENDBRANCH  36  37
ENDBRANCH  35  36
ENDBRANCH   4  30
TORSDOF 11
ENDMDL
MODEL      235
REMARK 921   NORMALIZED FREE ENERGY PREDICTED BY IDOCK:    1.71 KCAL/MOL
REMARK 922        TOTAL FREE ENERGY PREDICTED BY IDOCK:    1.18 KCAL/MOL
REMARK 923 INTER-LIGAND FREE ENERGY PREDICTED BY IDOCK:    0.32 KCAL/MOL
REMARK 924 INTRA-LIGAND FREE ENERGY PREDICTED BY IDOCK:    0.86 KCAL/MOL
REMARK 927      BINDING AFFINITY PREDICTED BY RF-SCORE:    0.00 PKD
ROOT
HETATM    1  C   UNL     1     -11.604   5.729  73.394  1.00  0.00     0.361 C  
HETATM    2  N   UNL     1     -10.626   6.617  72.785  1.00  0.00    -0.220 N  
HETATM    3  O   UNL     1      -9.210   6.197  74.561  1.00  0.00    -0.141 OA 
HETATM    4  C   UNL     1      -9.397   6.744  73.472  1.00  0.00    -0.156 C  
ENDROOT
BRANCH   2   5
HETATM    5  C   UNL     1     -10.805   7.075  71.406  1.00  0.00    -0.229 C  
BRANCH   5   6
HETATM    6  C   UNL     1     -12.032   6.661  70.578  1.00  0.00    -0.316 C  
BRANCH   6   7
HETATM    7  N   UNL     1     -11.717   5.519  69.687  1.00  0.00     1.418 NA 
HETATM    8  C   UNL     1     -10.445   4.872  70.041  1.00  0.00    -0.049 C  
HETATM    9  C   UNL     1     -11.717   5.850  68.252  1.00  0.00     1.707 C  
HETATM   10  C   UNL     1      -9.233   6.200  68.245  1.00  0.00    -0.114 C  
HETATM   11  C   UNL     1     -10.590   6.806  67.873  1.00  0.00    -0.296 C  
HETATM   12  C   UNL     1      -9.218   5.719  69.699  1.00  0.00    -0.159 C  
BRANCH  10  13
HETATM   13  O   UNL     1      -8.968   5.063  67.400  1.00  0.00    -0.109 OA 
BRANCH  13  14
HETATM   14  C   UNL     1      -7.783   5.110  66.733  1.00  0.00    -0.092 C  
HETATM   15  H   UNL     1      -8.910   5.771  65.124  1.00  0.00     0.000 HD 
HETATM   16  O   UNL     1      -6.689   4.956  67.251  1.00  0.00    -0.052 OA 
HETATM   17  N   UNL     1      -8.031   5.339  65.409  1.00  0.00    -0.104 N  
BRANCH  17  18
HETATM   18  C   UNL     1      -7.076   4.979  64.437  1.00  0.00    -0.050 A  
HETATM   19  C   UNL     1      -6.299   5.952  63.768  1.00  0.00    -0.029 A  
HETATM   20  C   UNL     1      -5.989   3.160  63.256  1.00  0.00    -0.014 A  
HETATM   21  C   UNL     1      -5.357   5.453  62.840  1.00  0.00    -0.013 A  
HETATM   22  C   UNL     1      -5.194   4.083  62.596  1.00  0.00    -0.005 A  
HETATM   23  C   UNL     1      -6.936   3.606  64.168  1.00  0.00    -0.046 A  
BRANCH  19  24
HETATM   24  C   UNL     1      -6.395   7.426  63.996  1.00  0.00    -0.048 A  
HETATM   25  C   UNL     1      -7.257   8.255  63.255  1.00  0.00    -0.093 A  
HETATM   26  C   UNL     1      -7.320   9.639  63.468  1.00  0.00    -0.113 A  
HETATM   27  C   UNL     1      -6.493  10.240  64.408  1.00  0.00    -0.087 A  
HETATM   28  C   UNL     1      -5.620   9.454  65.151  1.00  0.00    -0.054 A  
HETATM   29  C   UNL     1      -5.585   8.069  64.957  1.00  0.00    -0.044 A  
ENDBRANCH  19  24
ENDBRANCH  17  18
ENDBRANCH  13  14
ENDBRANCH  10  13
ENDBRANCH   6   7
ENDBRANCH   5   6
ENDBRANCH   2   5
BRANCH   4  30
HETATM   30  C   UNL     1      -8.233   7.466  72.858  1.00  0.00    -0.136 A  
HETATM   31  C   UNL     1      -7.727   6.980  71.642  1.00  0.00    -0.093 A  
HETATM   32  C   UNL     1      -7.627   8.590  73.425  1.00  0.00    -0.043 A  
HETATM   33  C   UNL     1      -6.662   9.313  72.723  1.00  0.00     0.517 A  
HETATM   34  C   UNL     1      -6.710   7.665  70.966  1.00  0.00    -0.042 A  
HETATM   35  C   UNL     1      -6.196   8.859  71.484  1.00  0.00    -0.069 A  
BRANCH  35  36
HETATM   36  C   UNL     1      -5.128   9.642  70.748  1.00  0.00    -0.039 C  
BRANCH  36  37
HETATM   37  N   UNL     1      -5.439   9.824  69.322  1.00  0.00    -0.035 NA 
HETATM   38  C   UNL     1      -5.238  11.206  68.875  1.00  0.00    -0.040 C  
HETATM   39  C   UNL     1      -6.777   9.337  68.950  1.00  0.00    -0.052 C  
HETATM   40  C   UNL     1      -7.916  10.239  69.434  1.00  0.00    -0.162 C  
HETATM   41  C   UNL     1      -6.318  12.175  69.363  1.00  0.00    -0.116 C  
HETATM   42  C   UNL     1      -7.722  11.691  68.982  1.00  0.00    -0.002 C  
BRANCH  42  43
HETATM   43  C   UNL     1      -7.996  11.849  67.486  1.00  0.00    -0.155 C  
HETATM   44  N   UNL     1      -8.777  10.884  66.925  1.00  0.00    -0.141 N  
HETATM   45  H2  UNL     1      -9.154  10.107  67.468  1.00  0.00     0.000 HD 
HETATM   46  O   UNL     1      -7.539  12.745  66.784  1.00  0.00     0.076 OA 
HETATM   47  H1  UNL     1      -8.960  10.989  65.927  1.00  0.00     0.000 HD 
ENDBRANCH  42  43
ENDBRANCH  36  37
ENDBRANCH  35  36
ENDBRANCH   4  30
TORSDOF 11
ENDMDL
MODEL      236
REMARK 921   NORMALIZED FREE ENERGY PREDICTED BY IDOCK:    1.90 KCAL/MOL
REMARK 922        TOTAL FREE ENERGY PREDICTED BY IDOCK:    1.49 KCAL/MOL
REMARK 923 INTER-LIGAND FREE ENERGY PREDICTED BY IDOCK:   -4.08 KCAL/MOL
REMARK 924 INTRA-LIGAND FREE ENERGY PREDICTED BY IDOCK:    5.58 KCAL/MOL
REMARK 927      BINDING AFFINITY PREDICTED BY RF-SCORE:    0.00 PKD
ROOT
HETATM    1  C   UNL     1      -5.670  15.891  70.911  1.00  0.00     0.144 C  
HETATM    2  N   UNL     1      -6.630  15.390  69.940  1.00  0.00    -0.165 N  
HETATM    3  O   UNL     1      -7.580  17.494  69.866  1.00  0.00     0.665 OA 
HETATM    4  C   UNL     1      -7.550  16.339  69.437  1.00  0.00    -0.126 C  
ENDROOT
BRANCH   2   5
HETATM    5  C   UNL     1      -6.430  14.083  69.312  1.00  0.00    -0.114 C  
BRANCH   5   6
HETATM    6  C   UNL     1      -7.607  13.289  68.723  1.00  0.00    -0.043 C  
BRANCH   6   7
HETATM    7  N   UNL     1      -7.610  11.891  69.218  1.00  0.00     0.119 NA 
HETATM    8  C   UNL     1      -6.288  11.468  69.700  1.00  0.00    -0.133 C  
HETATM    9  C   UNL     1      -8.118  10.905  68.249  1.00  0.00    -0.124 C  
HETATM   10  C   UNL     1      -5.800  10.345  67.473  1.00  0.00    -0.045 C  
HETATM   11  C   UNL     1      -7.208  10.757  67.034  1.00  0.00    -0.109 C  
HETATM   12  C   UNL     1      -5.269  11.266  68.577  1.00  0.00    -0.043 C  
BRANCH  10  13
HETATM   13  O   UNL     1      -5.834   9.002  67.996  1.00  0.00    -0.038 OA 
BRANCH  13  14
HETATM   14  C   UNL     1      -6.553   8.118  67.253  1.00  0.00    -0.058 C  
HETATM   15  H   UNL     1      -4.717   7.506  66.513  1.00  0.00     0.000 HD 
HETATM   16  O   UNL     1      -7.749   7.912  67.386  1.00  0.00    -0.105 OA 
HETATM   17  N   UNL     1      -5.722   7.527  66.344  1.00  0.00    -0.035 N  
BRANCH  17  18
HETATM   18  C   UNL     1      -6.251   6.946  65.173  1.00  0.00    -0.036 A  
HETATM   19  C   UNL     1      -6.478   5.554  65.076  1.00  0.00    -0.039 A  
HETATM   20  C   UNL     1      -7.104   7.339  62.937  1.00  0.00    -0.069 A  
HETATM   21  C   UNL     1      -7.040   5.108  63.858  1.00  0.00    -0.049 A  
HETATM   22  C   UNL     1      -7.360   5.983  62.812  1.00  0.00    -0.057 A  
HETATM   23  C   UNL     1      -6.541   7.820  64.112  1.00  0.00    -0.057 A  
BRANCH  19  24
HETATM   24  C   UNL     1      -6.190   4.564  66.158  1.00  0.00    -0.032 A  
HETATM   25  C   UNL     1      -5.410   3.412  65.946  1.00  0.00    -0.009 A  
HETATM   26  C   UNL     1      -5.166   2.484  66.967  1.00  0.00    -0.009 A  
HETATM   27  C   UNL     1      -5.728   2.664  68.225  1.00  0.00    -0.023 A  
HETATM   28  C   UNL     1      -6.514   3.784  68.467  1.00  0.00    -0.037 A  
HETATM   29  C   UNL     1      -6.726   4.725  67.453  1.00  0.00    -0.055 A  
ENDBRANCH  19  24
ENDBRANCH  17  18
ENDBRANCH  13  14
ENDBRANCH  10  13
ENDBRANCH   6   7
ENDBRANCH   5   6
ENDBRANCH   2   5
BRANCH   4  30
HETATM   30  C   UNL     1      -8.461  16.009  68.291  1.00  0.00    -0.177 A  
HETATM   31  C   UNL     1      -9.770  15.600  68.591  1.00  0.00    -0.204 A  
HETATM   32  C   UNL     1      -8.083  16.085  66.948  1.00  0.00    -0.282 A  
HETATM   33  C   UNL     1      -9.024  15.929  65.931  1.00  0.00    -0.251 A  
HETATM   34  C   UNL     1     -10.701  15.375  67.570  1.00  0.00    -0.295 A  
HETATM   35  C   UNL     1     -10.344  15.576  66.231  1.00  0.00    -0.312 A  
BRANCH  35  36
HETATM   36  C   UNL     1     -11.346  15.384  65.111  1.00  0.00    -0.281 C  
BRANCH  36  37
HETATM   37  N   UNL     1     -12.055  14.098  65.200  1.00  0.00    -0.394 NA 
HETATM   38  C   UNL     1     -12.482  13.787  66.568  1.00  0.00    -0.309 C  
HETATM   39  C   UNL     1     -11.308  12.977  64.610  1.00  0.00    -0.327 C  
HETATM   40  C   UNL     1     -10.121  12.515  65.460  1.00  0.00    -0.282 C  
HETATM   41  C   UNL     1     -11.336  13.361  67.489  1.00  0.00    -0.327 C  
HETATM   42  C   UNL     1     -10.544  12.188  66.897  1.00  0.00    -0.257 C  
BRANCH  42  43
HETATM   43  C   UNL     1     -11.328  10.878  66.962  1.00  0.00    -0.024 C  
HETATM   44  N   UNL     1     -12.033  10.670  68.109  1.00  0.00    -0.272 N  
HETATM   45  H2  UNL     1     -12.037  11.344  68.874  1.00  0.00     0.000 HD 
HETATM   46  O   UNL     1     -11.329  10.020  66.085  1.00  0.00     0.593 OA 
HETATM   47  H1  UNL     1     -12.557   9.795  68.153  1.00  0.00     0.000 HD 
ENDBRANCH  42  43
ENDBRANCH  36  37
ENDBRANCH  35  36
ENDBRANCH   4  30
TORSDOF 11
ENDMDL
MODEL      237
REMARK 921   NORMALIZED FREE ENERGY PREDICTED BY IDOCK:    2.13 KCAL/MOL
REMARK 922        TOTAL FREE ENERGY PREDICTED BY IDOCK:    1.86 KCAL/MOL
REMARK 923 INTER-LIGAND FREE ENERGY PREDICTED BY IDOCK:   -7.65 KCAL/MOL
REMARK 924 INTRA-LIGAND FREE ENERGY PREDICTED BY IDOCK:    9.51 KCAL/MOL
REMARK 927      BINDING AFFINITY PREDICTED BY RF-SCORE:    0.00 PKD
ROOT
HETATM    1  C   UNL     1      -7.230  11.421  66.912  1.00  0.00    -0.144 C  
HETATM    2  N   UNL     1      -7.649  10.315  66.064  1.00  0.00    -0.122 N  
HETATM    3  O   UNL     1      -5.433   9.695  65.861  1.00  0.00    -0.042 OA 
HETATM    4  C   UNL     1      -6.618   9.460  65.613  1.00  0.00    -0.070 C  
ENDROOT
BRANCH   2   5
HETATM    5  C   UNL     1      -9.065   9.955  65.969  1.00  0.00    -0.158 C  
BRANCH   5   6
HETATM    6  C   UNL     1     -10.150  11.023  65.753  1.00  0.00    -0.252 C  
BRANCH   6   7
HETATM    7  N   UNL     1     -11.178  10.964  66.819  1.00  0.00    -0.256 NA 
HETATM    8  C   UNL     1     -10.946  11.964  67.872  1.00  0.00    -0.222 C  
HETATM    9  C   UNL     1     -11.343   9.635  67.432  1.00  0.00     0.616 C  
HETATM   10  C   UNL     1      -9.798  10.220  69.320  1.00  0.00    -0.228 C  
HETATM   11  C   UNL     1     -10.112   9.199  68.221  1.00  0.00    -0.221 C  
HETATM   12  C   UNL     1      -9.740  11.643  68.757  1.00  0.00    -0.107 C  
BRANCH  10  13
HETATM   13  O   UNL     1     -10.834  10.180  70.321  1.00  0.00    -0.282 OA 
BRANCH  13  14
HETATM   14  C   UNL     1     -11.840  11.078  70.138  1.00  0.00    -0.357 C  
HETATM   15  H   UNL     1     -10.424  12.509  70.628  1.00  0.00     0.000 HD 
HETATM   16  O   UNL     1     -12.936  10.807  69.674  1.00  0.00    -0.137 OA 
HETATM   17  N   UNL     1     -11.421  12.304  70.570  1.00  0.00     0.306 N  
BRANCH  17  18
HETATM   18  C   UNL     1     -12.363  13.288  70.935  1.00  0.00    -0.329 A  
HETATM   19  C   UNL     1     -12.477  14.503  70.223  1.00  0.00    -0.405 A  
HETATM   20  C   UNL     1     -14.166  13.889  72.442  1.00  0.00    -0.506 A  
HETATM   21  C   UNL     1     -13.482  15.387  70.675  1.00  0.00    -0.213 A  
HETATM   22  C   UNL     1     -14.321  15.083  71.755  1.00  0.00    -0.674 A  
HETATM   23  C   UNL     1     -13.182  12.996  72.039  1.00  0.00    -0.543 A  
BRANCH  19  24
HETATM   24  C   UNL     1     -11.640  14.885  69.045  1.00  0.00    -0.330 A  
HETATM   25  C   UNL     1     -10.470  15.658  69.162  1.00  0.00    -0.236 A  
HETATM   26  C   UNL     1      -9.707  16.023  68.045  1.00  0.00    -0.217 A  
HETATM   27  C   UNL     1     -10.115  15.654  66.769  1.00  0.00    -0.277 A  
HETATM   28  C   UNL     1     -11.272  14.900  66.613  1.00  0.00    -0.340 A  
HETATM   29  C   UNL     1     -12.011  14.510  67.736  1.00  0.00    -0.345 A  
ENDBRANCH  19  24
ENDBRANCH  17  18
ENDBRANCH  13  14
ENDBRANCH  10  13
ENDBRANCH   6   7
ENDBRANCH   5   6
ENDBRANCH   2   5
BRANCH   4  30
HETATM   30  C   UNL     1      -6.927   8.176  64.900  1.00  0.00    -0.074 A  
HETATM   31  C   UNL     1      -8.092   7.485  65.270  1.00  0.00    -0.130 A  
HETATM   32  C   UNL     1      -6.126   7.631  63.894  1.00  0.00    -0.049 A  
HETATM   33  C   UNL     1      -6.555   6.527  63.157  1.00  0.00    -0.038 A  
HETATM   34  C   UNL     1      -8.492   6.336  64.577  1.00  0.00     0.080 A  
HETATM   35  C   UNL     1      -7.745   5.871  63.488  1.00  0.00    -0.095 A  
BRANCH  35  36
HETATM   36  C   UNL     1      -8.182   4.656  62.694  1.00  0.00    -0.083 C  
BRANCH  36  37
HETATM   37  N   UNL     1      -8.119   3.414  63.479  1.00  0.00    -0.084 NA 
HETATM   38  C   UNL     1      -9.401   3.084  64.110  1.00  0.00    -0.127 C  
HETATM   39  C   UNL     1      -7.025   3.398  64.462  1.00  0.00    -0.053 C  
HETATM   40  C   UNL     1      -7.280   4.292  65.678  1.00  0.00    -0.072 C  
HETATM   41  C   UNL     1      -9.743   3.971  65.310  1.00  0.00    -0.197 C  
HETATM   42  C   UNL     1      -8.618   3.968  66.352  1.00  0.00    -0.110 C  
BRANCH  42  43
HETATM   43  C   UNL     1      -8.550   2.645  67.116  1.00  0.00    -0.108 C  
HETATM   44  N   UNL     1      -9.727   2.213  67.649  1.00  0.00    -0.365 N  
HETATM   45  H2  UNL     1     -10.596   2.737  67.546  1.00  0.00     0.000 HD 
HETATM   46  O   UNL     1      -7.526   1.995  67.297  1.00  0.00    -0.058 OA 
HETATM   47  H1  UNL     1      -9.682   1.330  68.159  1.00  0.00     0.000 HD 
ENDBRANCH  42  43
ENDBRANCH  36  37
ENDBRANCH  35  36
ENDBRANCH   4  30
TORSDOF 11
ENDMDL
MODEL      238
REMARK 921   NORMALIZED FREE ENERGY PREDICTED BY IDOCK:    2.38 KCAL/MOL
REMARK 922        TOTAL FREE ENERGY PREDICTED BY IDOCK:    2.28 KCAL/MOL
REMARK 923 INTER-LIGAND FREE ENERGY PREDICTED BY IDOCK:   -4.70 KCAL/MOL
REMARK 924 INTRA-LIGAND FREE ENERGY PREDICTED BY IDOCK:    6.98 KCAL/MOL
REMARK 927      BINDING AFFINITY PREDICTED BY RF-SCORE:    0.00 PKD
ROOT
HETATM    1  C   UNL     1     -13.788   9.717  70.205  1.00  0.00     1.003 C  
HETATM    2  N   UNL     1     -12.378   9.672  70.563  1.00  0.00    -0.113 N  
HETATM    3  O   UNL     1     -12.619   7.422  71.029  1.00  0.00    -0.304 OA 
HETATM    4  C   UNL     1     -11.878   8.403  70.936  1.00  0.00    -0.217 C  
ENDROOT
BRANCH   2   5
HETATM    5  C   UNL     1     -11.500  10.798  70.241  1.00  0.00    -0.319 C  
BRANCH   5   6
HETATM    6  C   UNL     1     -12.027  12.242  70.214  1.00  0.00    -0.290 C  
BRANCH   6   7
HETATM    7  N   UNL     1     -11.212  13.092  69.313  1.00  0.00    -0.238 NA 
HETATM    8  C   UNL     1     -11.983  13.579  68.160  1.00  0.00    -0.341 C  
HETATM    9  C   UNL     1      -9.969  12.460  68.841  1.00  0.00     0.079 C  
HETATM   10  C   UNL     1     -11.059  11.706  66.711  1.00  0.00    -0.309 C  
HETATM   11  C   UNL     1     -10.230  11.269  67.923  1.00  0.00    -0.201 C  
HETATM   12  C   UNL     1     -12.307  12.484  67.141  1.00  0.00     0.399 C  
BRANCH  10  13
HETATM   13  O   UNL     1     -10.265  12.571  65.874  1.00  0.00    -0.251 OA 
BRANCH  13  14
HETATM   14  C   UNL     1      -9.412  13.391  66.545  1.00  0.00    -0.245 C  
HETATM   15  H   UNL     1     -11.057  14.629  66.780  1.00  0.00     0.000 HD 
HETATM   16  O   UNL     1      -8.272  13.095  66.864  1.00  0.00    -0.103 OA 
HETATM   17  N   UNL     1     -10.039  14.582  66.780  1.00  0.00    -0.259 N  
BRANCH  17  18
HETATM   18  C   UNL     1      -9.282  15.746  67.022  1.00  0.00    -0.216 A  
HETATM   19  C   UNL     1      -9.499  16.545  68.167  1.00  0.00    -0.222 A  
HETATM   20  C   UNL     1      -7.479  17.174  66.249  1.00  0.00    -0.344 A  
HETATM   21  C   UNL     1      -8.650  17.667  68.303  1.00  0.00    -0.268 A  
HETATM   22  C   UNL     1      -7.649  17.970  67.370  1.00  0.00    -0.213 A  
HETATM   23  C   UNL     1      -8.300  16.069  66.068  1.00  0.00     0.027 A  
BRANCH  19  24
HETATM   24  C   UNL     1     -10.524  16.270  69.219  1.00  0.00    -0.285 A  
HETATM   25  C   UNL     1     -10.185  15.917  70.538  1.00  0.00     0.287 A  
HETATM   26  C   UNL     1     -11.160  15.643  71.507  1.00  0.00    -0.252 A  
HETATM   27  C   UNL     1     -12.507  15.680  71.173  1.00  0.00    -0.505 A  
HETATM   28  C   UNL     1     -12.880  16.014  69.876  1.00  0.00     0.747 A  
HETATM   29  C   UNL     1     -11.903  16.319  68.922  1.00  0.00    -0.060 A  
ENDBRANCH  19  24
ENDBRANCH  17  18
ENDBRANCH  13  14
ENDBRANCH  10  13
ENDBRANCH   6   7
ENDBRANCH   5   6
ENDBRANCH   2   5
BRANCH   4  30
HETATM   30  C   UNL     1     -10.408   8.174  71.136  1.00  0.00    -0.237 A  
HETATM   31  C   UNL     1      -9.853   8.524  72.376  1.00  0.00    -0.358 A  
HETATM   32  C   UNL     1      -9.565   7.633  70.162  1.00  0.00    -0.168 A  
HETATM   33  C   UNL     1      -8.248   7.289  70.468  1.00  0.00    -0.124 A  
HETATM   34  C   UNL     1      -8.512   8.243  72.664  1.00  0.00    -0.248 A  
HETATM   35  C   UNL     1      -7.709   7.588  71.724  1.00  0.00    -0.085 A  
BRANCH  35  36
HETATM   36  C   UNL     1      -6.268   7.232  72.029  1.00  0.00    -0.040 C  
BRANCH  36  37
HETATM   37  N   UNL     1      -6.148   6.071  72.925  1.00  0.00    -0.048 NA 
HETATM   38  C   UNL     1      -5.308   5.011  72.359  1.00  0.00    -0.008 C  
HETATM   39  C   UNL     1      -7.446   5.538  73.367  1.00  0.00    -0.095 C  
HETATM   40  C   UNL     1      -8.198   4.769  72.277  1.00  0.00    -0.115 C  
HETATM   41  C   UNL     1      -5.981   4.228  71.229  1.00  0.00    -0.017 C  
HETATM   42  C   UNL     1      -7.335   3.658  71.667  1.00  0.00    -0.051 C  
BRANCH  42  43
HETATM   43  C   UNL     1      -7.175   2.484  72.634  1.00  0.00    -0.032 C  
HETATM   44  N   UNL     1      -8.278   2.175  73.372  1.00  0.00    -0.050 N  
HETATM   45  H2  UNL     1      -9.153   2.693  73.285  1.00  0.00     0.000 HD 
HETATM   46  O   UNL     1      -6.137   1.852  72.800  1.00  0.00    -0.008 OA 
HETATM   47  H1  UNL     1      -8.172   1.392  74.017  1.00  0.00     0.000 HD 
ENDBRANCH  42  43
ENDBRANCH  36  37
ENDBRANCH  35  36
ENDBRANCH   4  30
TORSDOF 11
ENDMDL
MODEL      239
REMARK 921   NORMALIZED FREE ENERGY PREDICTED BY IDOCK:    2.46 KCAL/MOL
REMARK 922        TOTAL FREE ENERGY PREDICTED BY IDOCK:    2.41 KCAL/MOL
REMARK 923 INTER-LIGAND FREE ENERGY PREDICTED BY IDOCK:   -2.38 KCAL/MOL
REMARK 924 INTRA-LIGAND FREE ENERGY PREDICTED BY IDOCK:    4.78 KCAL/MOL
REMARK 927      BINDING AFFINITY PREDICTED BY RF-SCORE:    0.00 PKD
ROOT
HETATM    1  C   UNL     1     -11.963  14.932  73.166  1.00  0.00    -0.216 C  
HETATM    2  N   UNL     1     -11.935  14.022  72.031  1.00  0.00     0.186 N  
HETATM    3  O   UNL     1     -11.316  15.795  70.686  1.00  0.00    -0.324 OA 
HETATM    4  C   UNL     1     -11.539  14.588  70.798  1.00  0.00    -0.205 C  
ENDROOT
BRANCH   2   5
HETATM    5  C   UNL     1     -12.002  12.575  72.245  1.00  0.00     2.660 C  
BRANCH   5   6
HETATM    6  C   UNL     1     -12.965  11.691  71.436  1.00  0.00    -0.324 C  
BRANCH   6   7
HETATM    7  N   UNL     1     -12.238  10.592  70.756  1.00  0.00    -0.336 NA 
HETATM    8  C   UNL     1     -13.145   9.690  70.031  1.00  0.00     0.931 C  
HETATM    9  C   UNL     1     -11.364   9.803  71.640  1.00  0.00    -0.160 C  
HETATM   10  C   UNL     1     -13.138   8.063  71.982  1.00  0.00    -0.265 C  
HETATM   11  C   UNL     1     -12.149   9.004  72.677  1.00  0.00    -0.014 C  
HETATM   12  C   UNL     1     -13.992   8.811  70.953  1.00  0.00     0.155 C  
BRANCH  10  13
HETATM   13  O   UNL     1     -12.410   7.031  71.287  1.00  0.00    -0.349 OA 
BRANCH  13  14
HETATM   14  C   UNL     1     -11.474   6.388  72.037  1.00  0.00    -0.305 C  
HETATM   15  H   UNL     1     -11.254   5.148  70.392  1.00  0.00     0.000 HD 
HETATM   16  O   UNL     1     -11.051   6.787  73.110  1.00  0.00    -0.256 OA 
HETATM   17  N   UNL     1     -11.111   5.237  71.397  1.00  0.00    -0.010 N  
BRANCH  17  18
HETATM   18  C   UNL     1     -10.539   4.173  72.123  1.00  0.00     0.044 A  
HETATM   19  C   UNL     1      -9.285   3.625  71.770  1.00  0.00    -0.181 A  
HETATM   20  C   UNL     1     -10.771   2.669  74.012  1.00  0.00    -0.262 A  
HETATM   21  C   UNL     1      -8.814   2.583  72.600  1.00  0.00    -0.091 A  
HETATM   22  C   UNL     1      -9.534   2.121  73.709  1.00  0.00    -0.102 A  
HETATM   23  C   UNL     1     -11.278   3.687  73.216  1.00  0.00    -0.214 A  
BRANCH  19  24
HETATM   24  C   UNL     1      -8.445   4.085  70.621  1.00  0.00    -0.097 A  
HETATM   25  C   UNL     1      -7.074   3.789  70.516  1.00  0.00    -0.037 A  
HETATM   26  C   UNL     1      -6.298   4.245  69.441  1.00  0.00    -0.028 A  
HETATM   27  C   UNL     1      -6.866   5.042  68.456  1.00  0.00    -0.055 A  
HETATM   28  C   UNL     1      -8.216   5.364  68.533  1.00  0.00    -0.094 A  
HETATM   29  C   UNL     1      -8.994   4.879  69.591  1.00  0.00    -0.137 A  
ENDBRANCH  19  24
ENDBRANCH  17  18
ENDBRANCH  13  14
ENDBRANCH  10  13
ENDBRANCH   6   7
ENDBRANCH   5   6
ENDBRANCH   2   5
BRANCH   4  30
HETATM   30  C   UNL     1     -11.276  13.728  69.595  1.00  0.00    -0.175 A  
HETATM   31  C   UNL     1      -9.940  13.463  69.259  1.00  0.00     0.443 A  
HETATM   32  C   UNL     1     -12.282  13.179  68.796  1.00  0.00    -0.090 A  
HETATM   33  C   UNL     1     -11.976  12.254  67.797  1.00  0.00    -0.229 A  
HETATM   34  C   UNL     1      -9.627  12.587  68.212  1.00  0.00    -0.209 A  
HETATM   35  C   UNL     1     -10.645  11.946  67.498  1.00  0.00    -0.250 A  
BRANCH  35  36
HETATM   36  C   UNL     1     -10.331  10.960  66.391  1.00  0.00    -0.251 C  
BRANCH  36  37
HETATM   37  N   UNL     1     -10.560  11.521  65.050  1.00  0.00    -0.287 NA 
HETATM   38  C   UNL     1      -9.765  12.728  64.804  1.00  0.00     0.098 C  
HETATM   39  C   UNL     1     -11.981  11.752  64.750  1.00  0.00    -0.038 C  
HETATM   40  C   UNL     1     -12.576  12.957  65.484  1.00  0.00    -0.359 C  
HETATM   41  C   UNL     1     -10.277  13.965  65.546  1.00  0.00    -0.348 C  
HETATM   42  C   UNL     1     -11.757  14.230  65.244  1.00  0.00    -0.357 C  
BRANCH  42  43
HETATM   43  C   UNL     1     -11.965  14.767  63.828  1.00  0.00     0.267 C  
HETATM   44  N   UNL     1     -11.948  16.124  63.704  1.00  0.00    -0.243 N  
HETATM   45  H2  UNL     1     -11.806  16.741  64.504  1.00  0.00     0.000 HD 
HETATM   46  O   UNL     1     -12.172  14.069  62.840  1.00  0.00    -0.261 OA 
HETATM   47  H1  UNL     1     -12.086  16.482  62.759  1.00  0.00     0.000 HD 
ENDBRANCH  42  43
ENDBRANCH  36  37
ENDBRANCH  35  36
ENDBRANCH   4  30
TORSDOF 11
ENDMDL
MODEL      240
REMARK 921   NORMALIZED FREE ENERGY PREDICTED BY IDOCK:    2.57 KCAL/MOL
REMARK 922        TOTAL FREE ENERGY PREDICTED BY IDOCK:    2.60 KCAL/MOL
REMARK 923 INTER-LIGAND FREE ENERGY PREDICTED BY IDOCK:   -1.59 KCAL/MOL
REMARK 924 INTRA-LIGAND FREE ENERGY PREDICTED BY IDOCK:    4.18 KCAL/MOL
REMARK 927      BINDING AFFINITY PREDICTED BY RF-SCORE:    0.00 PKD
ROOT
HETATM    1  C   UNL     1      -7.225  11.420  66.905  1.00  0.00    -0.144 C  
HETATM    2  N   UNL     1      -7.598  10.347  65.996  1.00  0.00    -0.131 N  
HETATM    3  O   UNL     1      -5.362   9.802  65.799  1.00  0.00    -0.041 OA 
HETATM    4  C   UNL     1      -6.535   9.545  65.521  1.00  0.00    -0.072 C  
ENDROOT
BRANCH   2   5
HETATM    5  C   UNL     1      -9.001   9.951  65.860  1.00  0.00    -0.152 C  
BRANCH   5   6
HETATM    6  C   UNL     1     -10.105  10.990  65.611  1.00  0.00    -0.256 C  
BRANCH   6   7
HETATM    7  N   UNL     1     -11.143  10.933  66.669  1.00  0.00    -0.173 NA 
HETATM    8  C   UNL     1     -10.998  12.019  67.649  1.00  0.00    -0.238 C  
HETATM    9  C   UNL     1     -11.221   9.642  67.373  1.00  0.00     0.291 C  
HETATM   10  C   UNL     1      -9.750  10.469  69.229  1.00  0.00    -0.196 C  
HETATM   11  C   UNL     1      -9.974   9.353  68.204  1.00  0.00    -0.202 C  
HETATM   12  C   UNL     1      -9.786  11.849  68.567  1.00  0.00    -0.173 C  
BRANCH  10  13
HETATM   13  O   UNL     1     -10.796  10.426  70.221  1.00  0.00    -0.292 OA 
BRANCH  13  14
HETATM   14  C   UNL     1     -10.601   9.522  71.219  1.00  0.00    -0.288 C  
HETATM   15  H   UNL     1     -10.741   8.094  69.724  1.00  0.00     0.000 HD 
HETATM   16  O   UNL     1     -10.295   9.810  72.365  1.00  0.00     1.355 OA 
HETATM   17  N   UNL     1     -10.816   8.267  70.726  1.00  0.00    -0.223 N  
BRANCH  17  18
HETATM   18  C   UNL     1     -11.142   7.209  71.599  1.00  0.00    -0.235 A  
HETATM   19  C   UNL     1     -10.261   6.124  71.808  1.00  0.00    -0.236 A  
HETATM   20  C   UNL     1     -12.769   6.313  73.159  1.00  0.00     1.664 A  
HETATM   21  C   UNL     1     -10.698   5.148  72.731  1.00  0.00    -0.294 A  
HETATM   22  C   UNL     1     -11.922   5.244  73.406  1.00  0.00     0.510 A  
HETATM   23  C   UNL     1     -12.386   7.290  72.249  1.00  0.00    -0.149 A  
BRANCH  19  24
HETATM   24  C   UNL     1      -8.928   5.967  71.150  1.00  0.00    -0.145 A  
HETATM   25  C   UNL     1      -8.629   4.898  70.285  1.00  0.00    -0.111 A  
HETATM   26  C   UNL     1      -7.367   4.755  69.692  1.00  0.00    -0.055 A  
HETATM   27  C   UNL     1      -6.354   5.663  69.975  1.00  0.00    -0.030 A  
HETATM   28  C   UNL     1      -6.610   6.725  70.833  1.00  0.00    -0.053 A  
HETATM   29  C   UNL     1      -7.882   6.881  71.397  1.00  0.00    -0.100 A  
ENDBRANCH  19  24
ENDBRANCH  17  18
ENDBRANCH  13  14
ENDBRANCH  10  13
ENDBRANCH   6   7
ENDBRANCH   5   6
ENDBRANCH   2   5
BRANCH   4  30
HETATM   30  C   UNL     1      -6.795   8.289  64.741  1.00  0.00    -0.067 A  
HETATM   31  C   UNL     1      -7.940   7.543  65.062  1.00  0.00    -0.132 A  
HETATM   32  C   UNL     1      -5.966   7.823  63.717  1.00  0.00    -0.057 A  
HETATM   33  C   UNL     1      -6.352   6.745  62.920  1.00  0.00    -0.043 A  
HETATM   34  C   UNL     1      -8.295   6.419  64.307  1.00  0.00     0.074 A  
HETATM   35  C   UNL     1      -7.523   6.034  63.205  1.00  0.00    -0.070 A  
BRANCH  35  36
HETATM   36  C   UNL     1      -7.912   4.848  62.346  1.00  0.00    -0.075 C  
BRANCH  36  37
HETATM   37  N   UNL     1      -7.794   3.567  63.060  1.00  0.00    -0.070 NA 
HETATM   38  C   UNL     1      -9.060   3.142  63.663  1.00  0.00    -0.096 C  
HETATM   39  C   UNL     1      -6.704   3.549  64.047  1.00  0.00    -0.043 C  
HETATM   40  C   UNL     1      -7.005   4.360  65.311  1.00  0.00    -0.058 C  
HETATM   41  C   UNL     1      -9.449   3.944  64.909  1.00  0.00    -0.170 C  
HETATM   42  C   UNL     1      -8.329   3.935  65.956  1.00  0.00    -0.109 C  
BRANCH  42  43
HETATM   43  C   UNL     1      -8.201   2.576  66.645  1.00  0.00    -0.086 C  
HETATM   44  N   UNL     1      -9.359   2.058  67.143  1.00  0.00    -0.365 N  
HETATM   45  H2  UNL     1     -10.252   2.544  67.061  1.00  0.00     0.000 HD 
HETATM   46  O   UNL     1      -7.147   1.968  66.799  1.00  0.00    -0.049 OA 
HETATM   47  H1  UNL     1      -9.273   1.150  67.603  1.00  0.00     0.000 HD 
ENDBRANCH  42  43
ENDBRANCH  36  37
ENDBRANCH  35  36
ENDBRANCH   4  30
TORSDOF 11
ENDMDL
MODEL      241
REMARK 921   NORMALIZED FREE ENERGY PREDICTED BY IDOCK:    2.60 KCAL/MOL
REMARK 922        TOTAL FREE ENERGY PREDICTED BY IDOCK:    2.64 KCAL/MOL
REMARK 923 INTER-LIGAND FREE ENERGY PREDICTED BY IDOCK:   -2.59 KCAL/MOL
REMARK 924 INTRA-LIGAND FREE ENERGY PREDICTED BY IDOCK:    5.23 KCAL/MOL
REMARK 927      BINDING AFFINITY PREDICTED BY RF-SCORE:    0.00 PKD
ROOT
HETATM    1  C   UNL     1      -9.595  10.433  62.412  1.00  0.00    -0.137 C  
HETATM    2  N   UNL     1      -9.247   9.809  63.679  1.00  0.00    -0.240 N  
HETATM    3  O   UNL     1      -8.711   7.880  62.526  1.00  0.00     0.014 OA 
HETATM    4  C   UNL     1      -8.757   8.485  63.599  1.00  0.00     0.197 C  
ENDROOT
BRANCH   2   5
HETATM    5  C   UNL     1      -9.119  10.621  64.890  1.00  0.00    -0.204 C  
BRANCH   5   6
HETATM    6  C   UNL     1     -10.220  11.608  65.312  1.00  0.00    -0.272 C  
BRANCH   6   7
HETATM    7  N   UNL     1     -10.130  11.924  66.758  1.00  0.00    -0.200 NA 
HETATM    8  C   UNL     1      -9.941  13.361  67.002  1.00  0.00    -0.246 C  
HETATM    9  C   UNL     1      -9.100  11.162  67.483  1.00  0.00    -0.146 C  
HETATM   10  C   UNL     1      -7.434  13.022  67.243  1.00  0.00    -0.074 C  
HETATM   11  C   UNL     1      -7.685  11.524  67.041  1.00  0.00    -0.158 C  
HETATM   12  C   UNL     1      -8.548  13.864  66.615  1.00  0.00     0.040 C  
BRANCH  10  13
HETATM   13  O   UNL     1      -7.399  13.315  68.654  1.00  0.00    -0.104 OA 
BRANCH  13  14
HETATM   14  C   UNL     1      -8.348  14.192  69.080  1.00  0.00     0.083 C  
HETATM   15  H   UNL     1      -8.965  12.657  70.327  1.00  0.00     0.000 HD 
HETATM   16  O   UNL     1      -8.384  15.375  68.779  1.00  0.00    -0.156 OA 
HETATM   17  N   UNL     1      -9.239  13.527  69.872  1.00  0.00     1.994 N  
BRANCH  17  18
HETATM   18  C   UNL     1     -10.539  14.040  70.061  1.00  0.00     0.551 A  
HETATM   19  C   UNL     1     -11.665  13.190  70.146  1.00  0.00    -0.250 A  
HETATM   20  C   UNL     1     -11.893  16.025  70.394  1.00  0.00    -0.286 A  
HETATM   21  C   UNL     1     -12.904  13.832  70.368  1.00  0.00    -0.160 A  
HETATM   22  C   UNL     1     -13.017  15.222  70.503  1.00  0.00    -0.380 A  
HETATM   23  C   UNL     1     -10.656  15.437  70.163  1.00  0.00    -0.314 A  
BRANCH  19  24
HETATM   24  C   UNL     1     -11.619  11.699  70.042  1.00  0.00    -0.338 A  
HETATM   25  C   UNL     1     -11.411  11.028  68.823  1.00  0.00    -0.349 A  
HETATM   26  C   UNL     1     -11.391   9.629  68.740  1.00  0.00     0.089 A  
HETATM   27  C   UNL     1     -11.615   8.859  69.874  1.00  0.00     0.204 A  
HETATM   28  C   UNL     1     -11.835   9.486  71.094  1.00  0.00    -0.436 A  
HETATM   29  C   UNL     1     -11.821  10.884  71.176  1.00  0.00    -0.189 A  
ENDBRANCH  19  24
ENDBRANCH  17  18
ENDBRANCH  13  14
ENDBRANCH  10  13
ENDBRANCH   6   7
ENDBRANCH   5   6
ENDBRANCH   2   5
BRANCH   4  30
HETATM   30  C   UNL     1      -8.177   7.796  64.799  1.00  0.00    -0.100 A  
HETATM   31  C   UNL     1      -8.695   6.538  65.147  1.00  0.00     0.086 A  
HETATM   32  C   UNL     1      -7.155   8.331  65.587  1.00  0.00    -0.071 A  
HETATM   33  C   UNL     1      -6.546   7.569  66.584  1.00  0.00    -0.054 A  
HETATM   34  C   UNL     1      -8.131   5.797  66.192  1.00  0.00    -0.108 A  
HETATM   35  C   UNL     1      -7.026   6.291  66.895  1.00  0.00    -0.071 A  
BRANCH  35  36
HETATM   36  C   UNL     1      -6.371   5.488  68.000  1.00  0.00    -0.042 C  
BRANCH  36  37
HETATM   37  N   UNL     1      -7.307   4.569  68.664  1.00  0.00    -0.060 NA 
HETATM   38  C   UNL     1      -8.483   5.259  69.203  1.00  0.00    -0.098 C  
HETATM   39  C   UNL     1      -6.671   3.727  69.689  1.00  0.00    -0.034 C  
HETATM   40  C   UNL     1      -6.319   4.483  70.973  1.00  0.00    -0.019 C  
HETATM   41  C   UNL     1      -8.194   6.075  70.465  1.00  0.00    -0.113 C  
HETATM   42  C   UNL     1      -7.534   5.217  71.552  1.00  0.00    -0.096 C  
BRANCH  42  43
HETATM   43  C   UNL     1      -8.523   4.240  72.188  1.00  0.00    -0.107 C  
HETATM   44  N   UNL     1      -9.835   4.599  72.113  1.00  0.00    -0.168 N  
HETATM   45  H2  UNL     1     -10.138   5.463  71.663  1.00  0.00     0.000 HD 
HETATM   46  O   UNL     1      -8.208   3.208  72.770  1.00  0.00    -0.073 OA 
HETATM   47  H1  UNL     1     -10.495   3.947  72.538  1.00  0.00     0.000 HD 
ENDBRANCH  42  43
ENDBRANCH  36  37
ENDBRANCH  35  36
ENDBRANCH   4  30
TORSDOF 11
ENDMDL
MODEL      242
REMARK 921   NORMALIZED FREE ENERGY PREDICTED BY IDOCK:    2.65 KCAL/MOL
REMARK 922        TOTAL FREE ENERGY PREDICTED BY IDOCK:    2.72 KCAL/MOL
REMARK 923 INTER-LIGAND FREE ENERGY PREDICTED BY IDOCK:   -2.34 KCAL/MOL
REMARK 924 INTRA-LIGAND FREE ENERGY PREDICTED BY IDOCK:    5.06 KCAL/MOL
REMARK 927      BINDING AFFINITY PREDICTED BY RF-SCORE:    0.00 PKD
ROOT
HETATM    1  C   UNL     1     -11.883  16.049  72.448  1.00  0.00    -0.535 C  
HETATM    2  N   UNL     1     -11.443  15.083  71.453  1.00  0.00    -0.341 N  
HETATM    3  O   UNL     1     -13.519  14.078  71.580  1.00  0.00    -0.342 OA 
HETATM    4  C   UNL     1     -12.407  14.130  71.051  1.00  0.00    -0.366 C  
ENDROOT
BRANCH   2   5
HETATM    5  C   UNL     1     -10.203  15.305  70.708  1.00  0.00     0.398 C  
BRANCH   5   6
HETATM    6  C   UNL     1     -10.199  15.422  69.175  1.00  0.00    -0.239 C  
BRANCH   6   7
HETATM    7  N   UNL     1      -9.060  14.678  68.585  1.00  0.00    -0.188 NA 
HETATM    8  C   UNL     1      -8.438  13.757  69.547  1.00  0.00     0.958 C  
HETATM    9  C   UNL     1      -8.024  15.532  67.981  1.00  0.00    -0.133 C  
HETATM   10  C   UNL     1      -6.637  15.472  70.070  1.00  0.00    -0.079 C  
HETATM   11  C   UNL     1      -7.286  16.376  69.016  1.00  0.00    -0.215 C  
HETATM   12  C   UNL     1      -7.645  14.472  70.643  1.00  0.00     1.370 C  
BRANCH  10  13
HETATM   13  O   UNL     1      -5.565  14.722  69.464  1.00  0.00    -0.091 OA 
BRANCH  13  14
HETATM   14  C   UNL     1      -5.947  13.888  68.459  1.00  0.00    -0.091 C  
HETATM   15  H   UNL     1      -5.702  12.374  69.853  1.00  0.00     0.000 HD 
HETATM   16  O   UNL     1      -6.382  14.256  67.380  1.00  0.00    -0.324 OA 
HETATM   17  N   UNL     1      -5.749  12.597  68.859  1.00  0.00    -0.066 N  
BRANCH  17  18
HETATM   18  C   UNL     1      -5.609  11.572  67.901  1.00  0.00    -0.045 A  
HETATM   19  C   UNL     1      -5.772  10.211  68.245  1.00  0.00    -0.041 A  
HETATM   20  C   UNL     1      -5.188  11.034  65.574  1.00  0.00    -0.084 A  
HETATM   21  C   UNL     1      -5.635   9.289  67.183  1.00  0.00    -0.041 A  
HETATM   22  C   UNL     1      -5.361   9.691  65.869  1.00  0.00    -0.039 A  
HETATM   23  C   UNL     1      -5.301  11.974  66.590  1.00  0.00     0.104 A  
BRANCH  19  24
HETATM   24  C   UNL     1      -6.093   9.709  69.616  1.00  0.00    -0.043 A  
HETATM   25  C   UNL     1      -5.190   8.943  70.376  1.00  0.00    -0.020 A  
HETATM   26  C   UNL     1      -5.515   8.463  71.652  1.00  0.00    -0.036 A  
HETATM   27  C   UNL     1      -6.771   8.708  72.191  1.00  0.00    -0.072 A  
HETATM   28  C   UNL     1      -7.693   9.451  71.465  1.00  0.00     0.369 A  
HETATM   29  C   UNL     1      -7.351   9.956  70.205  1.00  0.00    -0.166 A  
ENDBRANCH  19  24
ENDBRANCH  17  18
ENDBRANCH  13  14
ENDBRANCH  10  13
ENDBRANCH   6   7
ENDBRANCH   5   6
ENDBRANCH   2   5
BRANCH   4  30
HETATM   30  C   UNL     1     -12.154  13.206  69.896  1.00  0.00    -0.357 A  
HETATM   31  C   UNL     1     -12.511  13.649  68.612  1.00  0.00     0.254 A  
HETATM   32  C   UNL     1     -11.586  11.936  70.024  1.00  0.00    -0.301 A  
HETATM   33  C   UNL     1     -11.223  11.198  68.897  1.00  0.00    -0.317 A  
HETATM   34  C   UNL     1     -12.209  12.880  67.482  1.00  0.00    -0.077 A  
HETATM   35  C   UNL     1     -11.528  11.665  67.613  1.00  0.00    -0.373 A  
BRANCH  35  36
HETATM   36  C   UNL     1     -11.151  10.837  66.402  1.00  0.00     0.057 C  
BRANCH  36  37
HETATM   37  N   UNL     1      -9.706  10.862  66.126  1.00  0.00    -0.202 NA 
HETATM   38  C   UNL     1      -9.368  11.718  64.984  1.00  0.00     0.017 C  
HETATM   39  C   UNL     1      -9.117   9.522  65.976  1.00  0.00    -0.176 C  
HETATM   40  C   UNL     1      -9.477   8.837  64.654  1.00  0.00     0.694 C  
HETATM   41  C   UNL     1      -9.743  11.114  63.629  1.00  0.00    -0.352 C  
HETATM   42  C   UNL     1      -9.136   9.717  63.446  1.00  0.00    -0.262 C  
BRANCH  42  43
HETATM   43  C   UNL     1      -7.627   9.777  63.209  1.00  0.00    -0.128 C  
HETATM   44  N   UNL     1      -7.137  10.992  62.834  1.00  0.00    -0.329 N  
HETATM   45  H2  UNL     1      -7.738  11.808  62.719  1.00  0.00     0.000 HD 
HETATM   46  O   UNL     1      -6.868   8.818  63.301  1.00  0.00    -0.090 OA 
HETATM   47  H1  UNL     1      -6.130  11.031  62.676  1.00  0.00     0.000 HD 
ENDBRANCH  42  43
ENDBRANCH  36  37
ENDBRANCH  35  36
ENDBRANCH   4  30
TORSDOF 11
ENDMDL
MODEL      243
REMARK 921   NORMALIZED FREE ENERGY PREDICTED BY IDOCK:    3.09 KCAL/MOL
REMARK 922        TOTAL FREE ENERGY PREDICTED BY IDOCK:    3.44 KCAL/MOL
REMARK 923 INTER-LIGAND FREE ENERGY PREDICTED BY IDOCK:    1.49 KCAL/MOL
REMARK 924 INTRA-LIGAND FREE ENERGY PREDICTED BY IDOCK:    1.95 KCAL/MOL
REMARK 927      BINDING AFFINITY PREDICTED BY RF-SCORE:    0.00 PKD
ROOT
HETATM    1  C   UNL     1      -6.840  13.699  68.126  1.00  0.00    -0.121 C  
HETATM    2  N   UNL     1      -7.164  12.282  68.082  1.00  0.00    -0.092 N  
HETATM    3  O   UNL     1      -5.236  11.853  69.281  1.00  0.00    -0.052 OA 
HETATM    4  C   UNL     1      -6.268  11.424  68.761  1.00  0.00    -0.050 C  
ENDROOT
BRANCH   2   5
HETATM    5  C   UNL     1      -8.489  11.842  67.641  1.00  0.00    -0.149 C  
BRANCH   5   6
HETATM    6  C   UNL     1      -8.853  11.773  66.149  1.00  0.00    -0.107 C  
BRANCH   6   7
HETATM    7  N   UNL     1     -10.126  12.483  65.876  1.00  0.00    -0.252 NA 
HETATM    8  C   UNL     1     -10.152  13.083  64.534  1.00  0.00    -0.230 C  
HETATM    9  C   UNL     1     -10.479  13.503  66.877  1.00  0.00    -0.271 C  
HETATM   10  C   UNL     1      -9.468  15.334  65.493  1.00  0.00    -0.106 C  
HETATM   11  C   UNL     1      -9.510  14.682  66.878  1.00  0.00    -0.259 C  
HETATM   12  C   UNL     1      -9.229  14.295  64.394  1.00  0.00     3.555 C  
BRANCH  10  13
HETATM   13  O   UNL     1     -10.731  15.977  65.227  1.00  0.00    -0.398 OA 
BRANCH  13  14
HETATM   14  C   UNL     1     -11.064  16.966  66.100  1.00  0.00     0.335 C  
HETATM   15  H   UNL     1      -9.989  18.209  64.838  1.00  0.00     0.000 HD 
HETATM   16  O   UNL     1     -11.857  16.841  67.020  1.00  0.00     0.991 OA 
HETATM   17  N   UNL     1     -10.360  18.092  65.780  1.00  0.00    -0.270 N  
BRANCH  17  18
HETATM   18  C   UNL     1     -10.144  19.092  66.750  1.00  0.00    -0.379 A  
HETATM   19  C   UNL     1      -8.851  19.596  67.018  1.00  0.00    -0.376 A  
HETATM   20  C   UNL     1     -11.164  20.577  68.375  1.00  0.00     1.404 A  
HETATM   21  C   UNL     1      -8.780  20.618  67.992  1.00  0.00     0.107 A  
HETATM   22  C   UNL     1      -9.914  21.110  68.649  1.00  0.00     0.927 A  
HETATM   23  C   UNL     1     -11.279  19.562  67.434  1.00  0.00    -0.052 A  
BRANCH  19  24
HETATM   24  C   UNL     1      -7.599  19.142  66.338  1.00  0.00    -0.276 A  
HETATM   25  C   UNL     1      -6.997  19.866  65.292  1.00  0.00    -0.273 A  
HETATM   26  C   UNL     1      -5.834  19.417  64.652  1.00  0.00    -0.304 A  
HETATM   27  C   UNL     1      -5.258  18.207  65.018  1.00  0.00    -0.107 A  
HETATM   28  C   UNL     1      -5.832  17.459  66.039  1.00  0.00    -0.089 A  
HETATM   29  C   UNL     1      -6.974  17.929  66.697  1.00  0.00    -0.248 A  
ENDBRANCH  19  24
ENDBRANCH  17  18
ENDBRANCH  13  14
ENDBRANCH  10  13
ENDBRANCH   6   7
ENDBRANCH   5   6
ENDBRANCH   2   5
BRANCH   4  30
HETATM   30  C   UNL     1      -6.585   9.971  68.964  1.00  0.00    -0.052 A  
HETATM   31  C   UNL     1      -7.869   9.637  69.420  1.00  0.00    -0.104 A  
HETATM   32  C   UNL     1      -5.677   8.935  68.725  1.00  0.00    -0.041 A  
HETATM   33  C   UNL     1      -6.086   7.602  68.771  1.00  0.00    -0.031 A  
HETATM   34  C   UNL     1      -8.263   8.298  69.533  1.00  0.00    -0.119 A  
HETATM   35  C   UNL     1      -7.384   7.270  69.172  1.00  0.00    -0.087 A  
BRANCH  35  36
HETATM   36  C   UNL     1      -7.802   5.815  69.243  1.00  0.00    -0.090 C  
BRANCH  36  37
HETATM   37  N   UNL     1      -8.086   5.373  70.617  1.00  0.00    -0.107 NA 
HETATM   38  C   UNL     1      -9.029   4.251  70.661  1.00  0.00    -0.100 C  
HETATM   39  C   UNL     1      -8.520   6.464  71.503  1.00  0.00    -0.129 C  
HETATM   40  C   UNL     1      -9.950   6.942  71.235  1.00  0.00    -0.189 C  
HETATM   41  C   UNL     1     -10.475   4.649  70.356  1.00  0.00     0.050 C  
HETATM   42  C   UNL     1     -10.953   5.783  71.271  1.00  0.00    -0.299 C  
BRANCH  42  43
HETATM   43  C   UNL     1     -11.193   5.300  72.702  1.00  0.00    -0.248 C  
HETATM   44  N   UNL     1     -12.338   5.748  73.290  1.00  0.00     0.340 N  
HETATM   45  H2  UNL     1     -12.992   6.365  72.807  1.00  0.00     0.000 HD 
HETATM   46  O   UNL     1     -10.423   4.587  73.337  1.00  0.00    -0.166 OA 
HETATM   47  H1  UNL     1     -12.499   5.426  74.244  1.00  0.00     0.000 HD 
ENDBRANCH  42  43
ENDBRANCH  36  37
ENDBRANCH  35  36
ENDBRANCH   4  30
TORSDOF 11
ENDMDL
MODEL      244
REMARK 921   NORMALIZED FREE ENERGY PREDICTED BY IDOCK:    5.94 KCAL/MOL
REMARK 922        TOTAL FREE ENERGY PREDICTED BY IDOCK:    8.12 KCAL/MOL
REMARK 923 INTER-LIGAND FREE ENERGY PREDICTED BY IDOCK:    3.24 KCAL/MOL
REMARK 924 INTRA-LIGAND FREE ENERGY PREDICTED BY IDOCK:    4.89 KCAL/MOL
REMARK 927      BINDING AFFINITY PREDICTED BY RF-SCORE:    0.00 PKD
ROOT
HETATM    1  C   UNL     1      -8.844  14.302  66.629  1.00  0.00    -0.139 C  
HETATM    2  N   UNL     1      -8.604  12.874  66.773  1.00  0.00    -0.124 N  
HETATM    3  O   UNL     1      -6.561  13.364  67.734  1.00  0.00    -0.135 OA 
HETATM    4  C   UNL     1      -7.392  12.514  67.406  1.00  0.00    -0.147 C  
ENDROOT
BRANCH   2   5
HETATM    5  C   UNL     1      -9.693  11.919  66.564  1.00  0.00    -0.210 C  
BRANCH   5   6
HETATM    6  C   UNL     1     -10.732  11.638  67.661  1.00  0.00    -0.207 C  
BRANCH   6   7
HETATM    7  N   UNL     1     -11.912  12.525  67.522  1.00  0.00    -0.472 NA 
HETATM    8  C   UNL     1     -11.650  13.663  66.629  1.00  0.00    -0.364 C  
HETATM    9  C   UNL     1     -12.457  13.016  68.798  1.00  0.00     0.412 C  
HETATM   10  C   UNL     1     -11.160  15.156  68.627  1.00  0.00    -0.271 C  
HETATM   11  C   UNL     1     -11.497  13.958  69.520  1.00  0.00    -0.332 C  
HETATM   12  C   UNL     1     -10.706  14.703  67.235  1.00  0.00    -0.290 C  
BRANCH  10  13
HETATM   13  O   UNL     1     -12.332  15.979  68.464  1.00  0.00     0.161 OA 
BRANCH  13  14
HETATM   14  C   UNL     1     -12.092  17.229  67.984  1.00  0.00     1.985 C  
HETATM   15  H   UNL     1     -10.798  16.290  66.666  1.00  0.00     0.000 HD 
HETATM   16  O   UNL     1     -12.719  18.226  68.303  1.00  0.00     4.515 OA 
HETATM   17  N   UNL     1     -11.040  17.173  67.115  1.00  0.00     0.064 N  
BRANCH  17  18
HETATM   18  C   UNL     1     -10.287  18.332  66.837  1.00  0.00    -0.385 A  
HETATM   19  C   UNL     1      -8.976  18.500  67.335  1.00  0.00    -0.280 A  
HETATM   20  C   UNL     1     -10.224  20.463  65.679  1.00  0.00    -0.039 A  
HETATM   21  C   UNL     1      -8.323  19.694  66.955  1.00  0.00    -0.328 A  
HETATM   22  C   UNL     1      -8.928  20.653  66.132  1.00  0.00     0.199 A  
HETATM   23  C   UNL     1     -10.908  19.309  66.038  1.00  0.00    -0.365 A  
BRANCH  19  24
HETATM   24  C   UNL     1      -8.254  17.510  68.192  1.00  0.00    -0.251 A  
HETATM   25  C   UNL     1      -8.789  17.014  69.395  1.00  0.00     0.276 A  
HETATM   26  C   UNL     1      -8.090  16.101  70.197  1.00  0.00     1.267 A  
HETATM   27  C   UNL     1      -6.816  15.685  69.834  1.00  0.00    -0.073 A  
HETATM   28  C   UNL     1      -6.251  16.163  68.658  1.00  0.00    -0.117 A  
HETATM   29  C   UNL     1      -6.967  17.048  67.845  1.00  0.00    -0.169 A  
ENDBRANCH  19  24
ENDBRANCH  17  18
ENDBRANCH  13  14
ENDBRANCH  10  13
ENDBRANCH   6   7
ENDBRANCH   5   6
ENDBRANCH   2   5
BRANCH   4  30
HETATM   30  C   UNL     1      -7.110  11.093  67.796  1.00  0.00    -0.086 A  
HETATM   31  C   UNL     1      -6.928  10.155  66.768  1.00  0.00    -0.091 A  
HETATM   32  C   UNL     1      -7.018  10.652  69.119  1.00  0.00    -0.085 A  
HETATM   33  C   UNL     1      -6.587   9.358  69.412  1.00  0.00    -0.044 A  
HETATM   34  C   UNL     1      -6.561   8.835  67.060  1.00  0.00    -0.062 A  
HETATM   35  C   UNL     1      -6.350   8.437  68.386  1.00  0.00    -0.055 A  
BRANCH  35  36
HETATM   36  C   UNL     1      -5.910   7.027  68.724  1.00  0.00    -0.019 C  
BRANCH  36  37
HETATM   37  N   UNL     1      -7.044   6.120  68.959  1.00  0.00    -0.078 NA 
HETATM   38  C   UNL     1      -7.628   6.286  70.294  1.00  0.00    -0.096 C  
HETATM   39  C   UNL     1      -6.729   4.709  68.690  1.00  0.00    -0.050 C  
HETATM   40  C   UNL     1      -5.840   4.064  69.758  1.00  0.00    -0.018 C  
HETATM   41  C   UNL     1      -6.767   5.703  71.419  1.00  0.00    -0.060 C  
HETATM   42  C   UNL     1      -6.429   4.230  71.164  1.00  0.00    -0.029 C  
BRANCH  42  43
HETATM   43  C   UNL     1      -7.640   3.320  71.370  1.00  0.00    -0.047 C  
HETATM   44  N   UNL     1      -7.491   2.035  70.943  1.00  0.00    -0.033 N  
HETATM   45  H2  UNL     1      -6.627   1.701  70.515  1.00  0.00     0.000 HD 
HETATM   46  O   UNL     1      -8.710   3.681  71.848  1.00  0.00    -0.091 OA 
HETATM   47  H1  UNL     1      -8.299   1.428  71.081  1.00  0.00     0.000 HD 
ENDBRANCH  42  43
ENDBRANCH  36  37
ENDBRANCH  35  36
ENDBRANCH   4  30
TORSDOF 11
ENDMDL
MODEL      245
REMARK 921   NORMALIZED FREE ENERGY PREDICTED BY IDOCK:    6.06 KCAL/MOL
REMARK 922        TOTAL FREE ENERGY PREDICTED BY IDOCK:    8.32 KCAL/MOL
REMARK 923 INTER-LIGAND FREE ENERGY PREDICTED BY IDOCK:    6.50 KCAL/MOL
REMARK 924 INTRA-LIGAND FREE ENERGY PREDICTED BY IDOCK:    1.82 KCAL/MOL
REMARK 927      BINDING AFFINITY PREDICTED BY RF-SCORE:    0.00 PKD
ROOT
HETATM    1  C   UNL     1      -5.368  15.609  65.269  1.00  0.00     8.466 C  
HETATM    2  N   UNL     1      -6.255  15.658  66.421  1.00  0.00     1.657 N  
HETATM    3  O   UNL     1      -7.500  17.271  65.333  1.00  0.00     0.047 OA 
HETATM    4  C   UNL     1      -7.357  16.536  66.312  1.00  0.00     0.014 C  
ENDROOT
BRANCH   2   5
HETATM    5  C   UNL     1      -6.169  14.631  67.461  1.00  0.00     0.021 C  
BRANCH   5   6
HETATM    6  C   UNL     1      -7.011  13.347  67.389  1.00  0.00    -0.083 C  
BRANCH   6   7
HETATM    7  N   UNL     1      -7.321  12.834  68.745  1.00  0.00    -0.097 NA 
HETATM    8  C   UNL     1      -6.108  12.579  69.535  1.00  0.00    -0.120 C  
HETATM    9  C   UNL     1      -8.178  11.636  68.760  1.00  0.00    -0.055 C  
HETATM   10  C   UNL     1      -6.192  10.113  68.927  1.00  0.00    -0.043 C  
HETATM   11  C   UNL     1      -7.485  10.415  68.163  1.00  0.00    -0.090 C  
HETATM   12  C   UNL     1      -5.315  11.363  69.053  1.00  0.00    -0.043 C  
BRANCH  10  13
HETATM   13  O   UNL     1      -6.515   9.663  70.258  1.00  0.00    -0.062 OA 
BRANCH  13  14
HETATM   14  C   UNL     1      -7.816   9.313  70.443  1.00  0.00    -0.148 C  
HETATM   15  H   UNL     1      -7.085   7.395  70.722  1.00  0.00     0.000 HD 
HETATM   16  O   UNL     1      -8.740  10.106  70.541  1.00  0.00     0.079 OA 
HETATM   17  N   UNL     1      -7.906   7.951  70.484  1.00  0.00    -0.093 N  
BRANCH  17  18
HETATM   18  C   UNL     1      -9.130   7.312  70.199  1.00  0.00    -0.148 A  
HETATM   19  C   UNL     1      -9.350   6.649  68.971  1.00  0.00    -0.133 A  
HETATM   20  C   UNL     1     -11.337   6.729  71.020  1.00  0.00    -0.356 A  
HETATM   21  C   UNL     1     -10.610   6.025  68.828  1.00  0.00    -0.345 A  
HETATM   22  C   UNL     1     -11.582   6.051  69.837  1.00  0.00    -0.047 A  
HETATM   23  C   UNL     1     -10.117   7.368  71.199  1.00  0.00    -0.189 A  
BRANCH  19  24
HETATM   24  C   UNL     1      -8.353   6.553  67.861  1.00  0.00    -0.115 A  
HETATM   25  C   UNL     1      -7.213   5.732  67.932  1.00  0.00    -0.072 A  
HETATM   26  C   UNL     1      -6.279   5.669  66.890  1.00  0.00    -0.034 A  
HETATM   27  C   UNL     1      -6.441   6.456  65.757  1.00  0.00    -0.043 A  
HETATM   28  C   UNL     1      -7.549   7.288  65.656  1.00  0.00    -0.089 A  
HETATM   29  C   UNL     1      -8.496   7.322  66.686  1.00  0.00    -0.124 A  
ENDBRANCH  19  24
ENDBRANCH  17  18
ENDBRANCH  13  14
ENDBRANCH  10  13
ENDBRANCH   6   7
ENDBRANCH   5   6
ENDBRANCH   2   5
BRANCH   4  30
HETATM   30  C   UNL     1      -8.454  16.539  67.337  1.00  0.00    -0.194 A  
HETATM   31  C   UNL     1      -8.115  16.218  68.661  1.00  0.00    -0.213 A  
HETATM   32  C   UNL     1      -9.788  16.841  67.050  1.00  0.00    -0.262 A  
HETATM   33  C   UNL     1     -10.723  16.991  68.074  1.00  0.00    -0.365 A  
HETATM   34  C   UNL     1      -9.069  16.301  69.683  1.00  0.00     0.204 A  
HETATM   35  C   UNL     1     -10.372  16.726  69.402  1.00  0.00    -0.276 A  
BRANCH  35  36
HETATM   36  C   UNL     1     -11.409  16.868  70.498  1.00  0.00     0.562 C  
BRANCH  36  37
HETATM   37  N   UNL     1     -12.527  15.924  70.345  1.00  0.00    -0.285 NA 
HETATM   38  C   UNL     1     -13.198  15.639  71.617  1.00  0.00    -0.472 C  
HETATM   39  C   UNL     1     -12.153  14.681  69.653  1.00  0.00    -0.311 C  
HETATM   40  C   UNL     1     -11.314  13.730  70.511  1.00  0.00     0.224 C  
HETATM   41  C   UNL     1     -12.393  14.727  72.547  1.00  0.00    -0.388 C  
HETATM   42  C   UNL     1     -11.994  13.421  71.849  1.00  0.00     0.991 C  
BRANCH  42  43
HETATM   43  C   UNL     1     -13.188  12.485  71.663  1.00  0.00    -0.284 C  
HETATM   44  N   UNL     1     -14.367  12.921  72.190  1.00  0.00     0.114 N  
HETATM   45  H2  UNL     1     -14.447  13.814  72.677  1.00  0.00     0.000 HD 
HETATM   46  O   UNL     1     -13.137  11.388  71.116  1.00  0.00    -0.294 OA 
HETATM   47  H1  UNL     1     -15.164  12.296  72.066  1.00  0.00     0.000 HD 
ENDBRANCH  42  43
ENDBRANCH  36  37
ENDBRANCH  35  36
ENDBRANCH   4  30
TORSDOF 11
ENDMDL
MODEL      246
REMARK 921   NORMALIZED FREE ENERGY PREDICTED BY IDOCK:    6.07 KCAL/MOL
REMARK 922        TOTAL FREE ENERGY PREDICTED BY IDOCK:    8.34 KCAL/MOL
REMARK 923 INTER-LIGAND FREE ENERGY PREDICTED BY IDOCK:   -5.98 KCAL/MOL
REMARK 924 INTRA-LIGAND FREE ENERGY PREDICTED BY IDOCK:   14.32 KCAL/MOL
REMARK 927      BINDING AFFINITY PREDICTED BY RF-SCORE:    0.00 PKD
ROOT
HETATM    1  C   UNL     1      -8.214   2.613  66.348  1.00  0.00    -0.087 C  
HETATM    2  N   UNL     1      -8.125   4.063  66.420  1.00  0.00    -0.097 N  
HETATM    3  O   UNL     1      -6.992   4.045  64.407  1.00  0.00    -0.045 OA 
HETATM    4  C   UNL     1      -7.501   4.697  65.321  1.00  0.00    -0.077 C  
ENDROOT
BRANCH   2   5
HETATM    5  C   UNL     1      -8.915   4.802  67.406  1.00  0.00    -0.109 C  
BRANCH   5   6
HETATM    6  C   UNL     1      -9.590   4.088  68.588  1.00  0.00    -0.120 C  
BRANCH   6   7
HETATM    7  N   UNL     1      -9.231   4.729  69.876  1.00  0.00    -0.114 NA 
HETATM    8  C   UNL     1      -9.824   6.068  70.015  1.00  0.00    -0.172 C  
HETATM    9  C   UNL     1      -7.784   4.803  70.136  1.00  0.00    -0.058 C  
HETATM   10  C   UNL     1      -7.655   7.142  69.239  1.00  0.00    -0.102 C  
HETATM   11  C   UNL     1      -7.062   5.731  69.163  1.00  0.00    -0.065 C  
HETATM   12  C   UNL     1      -9.181   7.113  69.101  1.00  0.00    -0.139 C  
BRANCH  10  13
HETATM   13  O   UNL     1      -7.337   7.729  70.516  1.00  0.00    -0.069 OA 
BRANCH  13  14
HETATM   14  C   UNL     1      -8.386   7.831  71.376  1.00  0.00    -0.111 C  
HETATM   15  H   UNL     1      -9.560   7.381  69.729  1.00  0.00     0.000 HD 
HETATM   16  O   UNL     1      -8.282   7.946  72.587  1.00  0.00    -0.113 OA 
HETATM   17  N   UNL     1      -9.548   7.798  70.660  1.00  0.00    -0.167 N  
BRANCH  17  18
HETATM   18  C   UNL     1     -10.731   8.339  71.203  1.00  0.00    -0.226 A  
HETATM   19  C   UNL     1     -11.449   7.676  72.223  1.00  0.00    -0.366 A  
HETATM   20  C   UNL     1     -12.289  10.199  71.185  1.00  0.00    -0.488 A  
HETATM   21  C   UNL     1     -12.600   8.343  72.698  1.00  0.00    -0.224 A  
HETATM   22  C   UNL     1     -13.007   9.588  72.200  1.00  0.00    -0.497 A  
HETATM   23  C   UNL     1     -11.158   9.572  70.678  1.00  0.00    -0.364 A  
BRANCH  19  24
HETATM   24  C   UNL     1     -11.061   6.363  72.825  1.00  0.00    -0.281 A  
HETATM   25  C   UNL     1     -10.249   6.262  73.970  1.00  0.00    -0.327 A  
HETATM   26  C   UNL     1      -9.879   5.022  74.509  1.00  0.00    -0.218 A  
HETATM   27  C   UNL     1     -10.284   3.844  73.895  1.00  0.00    -0.214 A  
HETATM   28  C   UNL     1     -11.077   3.905  72.756  1.00  0.00     0.022 A  
HETATM   29  C   UNL     1     -11.471   5.145  72.241  1.00  0.00     0.008 A  
ENDBRANCH  19  24
ENDBRANCH  17  18
ENDBRANCH  13  14
ENDBRANCH  10  13
ENDBRANCH   6   7
ENDBRANCH   5   6
ENDBRANCH   2   5
BRANCH   4  30
HETATM   30  C   UNL     1      -7.518   6.190  65.171  1.00  0.00    -0.085 A  
HETATM   31  C   UNL     1      -7.295   6.723  63.891  1.00  0.00    -0.079 A  
HETATM   32  C   UNL     1      -7.744   7.077  66.227  1.00  0.00    -0.094 A  
HETATM   33  C   UNL     1      -7.915   8.441  65.991  1.00  0.00    -0.101 A  
HETATM   34  C   UNL     1      -7.399   8.100  63.662  1.00  0.00    -0.105 A  
HETATM   35  C   UNL     1      -7.748   8.967  64.705  1.00  0.00    -0.117 A  
BRANCH  35  36
HETATM   36  C   UNL     1      -7.910  10.455  64.472  1.00  0.00    -0.066 C  
BRANCH  36  37
HETATM   37  N   UNL     1      -8.162  11.199  65.716  1.00  0.00    -0.069 NA 
HETATM   38  C   UNL     1      -8.861  10.391  66.720  1.00  0.00    -0.130 C  
HETATM   39  C   UNL     1      -8.846  12.483  65.500  1.00  0.00     0.755 C  
HETATM   40  C   UNL     1     -10.329  12.338  65.147  1.00  0.00    -0.316 C  
HETATM   41  C   UNL     1     -10.343  10.166  66.407  1.00  0.00    -0.258 C  
HETATM   42  C   UNL     1     -11.079  11.492  66.182  1.00  0.00    -0.302 C  
BRANCH  42  43
HETATM   43  C   UNL     1     -11.282  12.262  67.488  1.00  0.00    -0.297 C  
HETATM   44  N   UNL     1     -12.393  11.927  68.202  1.00  0.00     0.329 N  
HETATM   45  H2  UNL     1     -13.046  11.209  67.887  1.00  0.00     0.000 HD 
HETATM   46  O   UNL     1     -10.546  13.155  67.894  1.00  0.00    -0.225 OA 
HETATM   47  H1  UNL     1     -12.528  12.440  69.073  1.00  0.00     0.000 HD 
ENDBRANCH  42  43
ENDBRANCH  36  37
ENDBRANCH  35  36
ENDBRANCH   4  30
TORSDOF 11
ENDMDL
MODEL      247
REMARK 921   NORMALIZED FREE ENERGY PREDICTED BY IDOCK:    6.97 KCAL/MOL
REMARK 922        TOTAL FREE ENERGY PREDICTED BY IDOCK:    9.82 KCAL/MOL
REMARK 923 INTER-LIGAND FREE ENERGY PREDICTED BY IDOCK:    5.14 KCAL/MOL
REMARK 924 INTRA-LIGAND FREE ENERGY PREDICTED BY IDOCK:    4.68 KCAL/MOL
REMARK 927      BINDING AFFINITY PREDICTED BY RF-SCORE:    0.00 PKD
ROOT
HETATM    1  C   UNL     1     -11.463   9.448  66.602  1.00  0.00     2.085 C  
HETATM    2  N   UNL     1     -10.532  10.545  66.386  1.00  0.00    -0.220 N  
HETATM    3  O   UNL     1     -10.512  10.912  68.666  1.00  0.00    -0.175 OA 
HETATM    4  C   UNL     1     -10.076  11.203  67.551  1.00  0.00    -0.183 C  
ENDROOT
BRANCH   2   5
HETATM    5  C   UNL     1      -9.887  10.718  65.083  1.00  0.00    -0.277 C  
BRANCH   5   6
HETATM    6  C   UNL     1     -10.646  10.454  63.773  1.00  0.00     0.669 C  
BRANCH   6   7
HETATM    7  N   UNL     1     -11.000  11.724  63.094  1.00  0.00    -0.266 NA 
HETATM    8  C   UNL     1     -10.180  12.851  63.560  1.00  0.00     0.377 C  
HETATM    9  C   UNL     1     -12.425  12.084  63.183  1.00  0.00    -0.263 C  
HETATM   10  C   UNL     1     -12.016  13.565  65.165  1.00  0.00    -0.368 C  
HETATM   11  C   UNL     1     -12.857  12.412  64.609  1.00  0.00    -0.252 C  
HETATM   12  C   UNL     1     -10.518  13.300  64.983  1.00  0.00    -0.367 C  
BRANCH  10  13
HETATM   13  O   UNL     1     -12.340  14.779  64.460  1.00  0.00    -0.479 OA 
BRANCH  13  14
HETATM   14  C   UNL     1     -11.508  15.826  64.710  1.00  0.00    -0.255 C  
HETATM   15  H   UNL     1     -12.193  15.686  66.660  1.00  0.00     0.000 HD 
HETATM   16  O   UNL     1     -10.691  16.267  63.917  1.00  0.00     0.206 OA 
HETATM   17  N   UNL     1     -11.752  16.293  65.969  1.00  0.00     0.856 N  
BRANCH  17  18
HETATM   18  C   UNL     1     -11.397  17.612  66.318  1.00  0.00     1.146 A  
HETATM   19  C   UNL     1     -11.085  17.966  67.650  1.00  0.00     0.065 A  
HETATM   20  C   UNL     1     -10.985  19.865  65.520  1.00  0.00    -0.106 A  
HETATM   21  C   UNL     1     -10.716  19.315  67.856  1.00  0.00    -0.417 A  
HETATM   22  C   UNL     1     -10.653  20.245  66.811  1.00  0.00    -0.210 A  
HETATM   23  C   UNL     1     -11.366  18.553  65.274  1.00  0.00     1.580 A  
BRANCH  19  24
HETATM   24  C   UNL     1     -11.101  17.025  68.811  1.00  0.00    -0.086 A  
HETATM   25  C   UNL     1     -11.928  15.887  68.856  1.00  0.00    -0.202 A  
HETATM   26  C   UNL     1     -11.945  15.025  69.961  1.00  0.00    -0.375 A  
HETATM   27  C   UNL     1     -11.157  15.298  71.072  1.00  0.00    -0.337 A  
HETATM   28  C   UNL     1     -10.335  16.419  71.068  1.00  0.00     1.402 A  
HETATM   29  C   UNL     1     -10.298  17.257  69.948  1.00  0.00     0.292 A  
ENDBRANCH  19  24
ENDBRANCH  17  18
ENDBRANCH  13  14
ENDBRANCH  10  13
ENDBRANCH   6   7
ENDBRANCH   5   6
ENDBRANCH   2   5
BRANCH   4  30
HETATM   30  C   UNL     1      -8.968  12.214  67.490  1.00  0.00    -0.177 A  
HETATM   31  C   UNL     1      -8.889  13.162  68.523  1.00  0.00    -0.045 A  
HETATM   32  C   UNL     1      -8.015  12.265  66.470  1.00  0.00     0.202 A  
HETATM   33  C   UNL     1      -6.916  13.120  66.561  1.00  0.00     1.795 A  
HETATM   34  C   UNL     1      -7.822  14.068  68.581  1.00  0.00    -0.130 A  
HETATM   35  C   UNL     1      -6.806  14.027  67.620  1.00  0.00    -0.195 A  
BRANCH  35  36
HETATM   36  C   UNL     1      -5.619  14.966  67.687  1.00  0.00     0.021 C  
BRANCH  36  37
HETATM   37  N   UNL     1      -6.001  16.376  67.505  1.00  0.00    -0.144 NA 
HETATM   38  C   UNL     1      -5.157  17.290  68.281  1.00  0.00    -0.128 C  
HETATM   39  C   UNL     1      -7.428  16.631  67.754  1.00  0.00    -0.155 C  
HETATM   40  C   UNL     1      -7.807  16.598  69.238  1.00  0.00    -0.084 C  
HETATM   41  C   UNL     1      -5.452  17.274  69.783  1.00  0.00    -0.208 C  
HETATM   42  C   UNL     1      -6.934  17.543  70.070  1.00  0.00     0.790 C  
BRANCH  42  43
HETATM   43  C   UNL     1      -7.307  19.006  69.825  1.00  0.00     0.279 C  
HETATM   44  N   UNL     1      -6.447  19.927  70.342  1.00  0.00    -0.274 N  
HETATM   45  H2  UNL     1      -5.610  19.659  70.858  1.00  0.00     0.000 HD 
HETATM   46  O   UNL     1      -8.318  19.379  69.240  1.00  0.00    -0.242 OA 
HETATM   47  H1  UNL     1      -6.696  20.903  70.178  1.00  0.00     0.000 HD 
ENDBRANCH  42  43
ENDBRANCH  36  37
ENDBRANCH  35  36
ENDBRANCH   4  30
TORSDOF 11
ENDMDL
MODEL      248
REMARK 921   NORMALIZED FREE ENERGY PREDICTED BY IDOCK:    7.07 KCAL/MOL
REMARK 922        TOTAL FREE ENERGY PREDICTED BY IDOCK:    9.99 KCAL/MOL
REMARK 923 INTER-LIGAND FREE ENERGY PREDICTED BY IDOCK:    1.58 KCAL/MOL
REMARK 924 INTRA-LIGAND FREE ENERGY PREDICTED BY IDOCK:    8.41 KCAL/MOL
REMARK 927      BINDING AFFINITY PREDICTED BY RF-SCORE:    0.00 PKD
ROOT
HETATM    1  C   UNL     1      -9.918  10.204  64.014  1.00  0.00     0.023 C  
HETATM    2  N   UNL     1      -9.981  11.528  64.615  1.00  0.00    -0.251 N  
HETATM    3  O   UNL     1     -12.179  11.109  65.190  1.00  0.00     0.648 OA 
HETATM    4  C   UNL     1     -11.206  11.864  65.236  1.00  0.00    -0.295 C  
ENDROOT
BRANCH   2   5
HETATM    5  C   UNL     1      -8.755  12.299  64.828  1.00  0.00     1.445 C  
BRANCH   5   6
HETATM    6  C   UNL     1      -7.996  12.243  66.164  1.00  0.00     0.704 C  
BRANCH   6   7
HETATM    7  N   UNL     1      -8.426  11.079  66.975  1.00  0.00    -0.137 NA 
HETATM    8  C   UNL     1      -9.152  11.483  68.188  1.00  0.00    -0.181 C  
HETATM    9  C   UNL     1      -7.337  10.157  67.339  1.00  0.00    -0.089 C  
HETATM   10  C   UNL     1      -7.031  11.262  69.569  1.00  0.00    -0.089 C  
HETATM   11  C   UNL     1      -6.329  10.790  68.292  1.00  0.00    -0.057 C  
HETATM   12  C   UNL     1      -8.254  12.126  69.246  1.00  0.00     0.626 C  
BRANCH  10  13
HETATM   13  O   UNL     1      -7.483  10.117  70.319  1.00  0.00    -0.178 OA 
BRANCH  13  14
HETATM   14  C   UNL     1      -8.165   9.191  69.592  1.00  0.00    -0.116 C  
HETATM   15  H   UNL     1      -9.070   8.695  71.389  1.00  0.00     0.000 HD 
HETATM   16  O   UNL     1      -8.147   9.115  68.374  1.00  0.00    -0.102 OA 
HETATM   17  N   UNL     1      -8.846   8.373  70.447  1.00  0.00    -0.142 N  
BRANCH  17  18
HETATM   18  C   UNL     1      -9.241   7.084  70.033  1.00  0.00    -0.148 A  
HETATM   19  C   UNL     1     -10.585   6.656  70.127  1.00  0.00    -0.264 A  
HETATM   20  C   UNL     1      -8.539   4.981  69.048  1.00  0.00    -0.091 A  
HETATM   21  C   UNL     1     -10.849   5.353  69.648  1.00  0.00    -0.158 A  
HETATM   22  C   UNL     1      -9.850   4.534  69.106  1.00  0.00    -0.222 A  
HETATM   23  C   UNL     1      -8.232   6.251  69.520  1.00  0.00    -0.117 A  
BRANCH  19  24
HETATM   24  C   UNL     1     -11.709   7.482  70.664  1.00  0.00    -0.240 A  
HETATM   25  C   UNL     1     -12.804   6.923  71.349  1.00  0.00    -0.365 A  
HETATM   26  C   UNL     1     -13.859   7.710  71.829  1.00  0.00    -0.432 A  
HETATM   27  C   UNL     1     -13.866   9.081  71.607  1.00  0.00    -0.422 A  
HETATM   28  C   UNL     1     -12.807   9.667  70.924  1.00  0.00    -0.265 A  
HETATM   29  C   UNL     1     -11.740   8.881  70.476  1.00  0.00    -0.137 A  
ENDBRANCH  19  24
ENDBRANCH  17  18
ENDBRANCH  13  14
ENDBRANCH  10  13
ENDBRANCH   6   7
ENDBRANCH   5   6
ENDBRANCH   2   5
BRANCH   4  30
HETATM   30  C   UNL     1     -11.343  13.110  66.062  1.00  0.00    -0.337 A  
HETATM   31  C   UNL     1     -12.286  13.105  67.102  1.00  0.00    -0.250 A  
HETATM   32  C   UNL     1     -10.589  14.268  65.856  1.00  0.00    -0.306 A  
HETATM   33  C   UNL     1     -10.645  15.328  66.762  1.00  0.00    -0.304 A  
HETATM   34  C   UNL     1     -12.393  14.196  67.974  1.00  0.00    -0.016 A  
HETATM   35  C   UNL     1     -11.545  15.301  67.833  1.00  0.00    -0.301 A  
BRANCH  35  36
HETATM   36  C   UNL     1     -11.612  16.473  68.791  1.00  0.00    -0.042 C  
BRANCH  36  37
HETATM   37  N   UNL     1     -10.969  16.186  70.083  1.00  0.00    -0.358 NA 
HETATM   38  C   UNL     1     -11.266  14.835  70.570  1.00  0.00    -0.148 C  
HETATM   39  C   UNL     1     -11.254  17.195  71.114  1.00  0.00     1.111 C  
HETATM   40  C   UNL     1     -12.678  17.117  71.672  1.00  0.00     4.862 C  
HETATM   41  C   UNL     1     -12.693  14.672  71.101  1.00  0.00    -0.409 C  
HETATM   42  C   UNL     1     -13.013  15.711  72.183  1.00  0.00    -0.527 C  
BRANCH  42  43
HETATM   43  C   UNL     1     -12.292  15.410  73.497  1.00  0.00    -0.542 C  
HETATM   44  N   UNL     1     -11.396  14.385  73.455  1.00  0.00     0.880 N  
HETATM   45  H2  UNL     1     -11.218  13.853  72.603  1.00  0.00     0.000 HD 
HETATM   46  O   UNL     1     -12.494  15.997  74.554  1.00  0.00    -0.676 OA 
HETATM   47  H1  UNL     1     -10.914  14.184  74.332  1.00  0.00     0.000 HD 
ENDBRANCH  42  43
ENDBRANCH  36  37
ENDBRANCH  35  36
ENDBRANCH   4  30
TORSDOF 11
ENDMDL
MODEL      249
REMARK 921   NORMALIZED FREE ENERGY PREDICTED BY IDOCK:    7.27 KCAL/MOL
REMARK 922        TOTAL FREE ENERGY PREDICTED BY IDOCK:   10.31 KCAL/MOL
REMARK 923 INTER-LIGAND FREE ENERGY PREDICTED BY IDOCK:    0.29 KCAL/MOL
REMARK 924 INTRA-LIGAND FREE ENERGY PREDICTED BY IDOCK:   10.02 KCAL/MOL
REMARK 927      BINDING AFFINITY PREDICTED BY RF-SCORE:    0.00 PKD
ROOT
HETATM    1  C   UNL     1     -12.643   6.031  71.592  1.00  0.00     0.559 C  
HETATM    2  N   UNL     1     -11.576   6.974  71.292  1.00  0.00    -0.286 N  
HETATM    3  O   UNL     1     -10.933   6.875  73.509  1.00  0.00    -0.274 OA 
HETATM    4  C   UNL     1     -10.723   7.302  72.371  1.00  0.00    -0.246 C  
ENDROOT
BRANCH   2   5
HETATM    5  C   UNL     1     -11.239   7.289  69.903  1.00  0.00    -0.170 C  
BRANCH   5   6
HETATM    6  C   UNL     1     -10.551   8.611  69.526  1.00  0.00    -0.213 C  
BRANCH   6   7
HETATM    7  N   UNL     1     -11.467   9.491  68.760  1.00  0.00     0.230 NA 
HETATM    8  C   UNL     1     -10.742  10.404  67.866  1.00  0.00    -0.261 C  
HETATM    9  C   UNL     1     -12.407  10.261  69.593  1.00  0.00     0.112 C  
HETATM   10  C   UNL     1     -10.901  12.267  69.587  1.00  0.00     0.272 C  
HETATM   11  C   UNL     1     -11.702  11.298  70.462  1.00  0.00    -0.345 C  
HETATM   12  C   UNL     1      -9.995  11.514  68.608  1.00  0.00    -0.207 C  
BRANCH  10  13
HETATM   13  O   UNL     1     -11.808  13.079  68.816  1.00  0.00    -0.303 OA 
BRANCH  13  14
HETATM   14  C   UNL     1     -11.230  13.774  67.799  1.00  0.00    -0.288 C  
HETATM   15  H   UNL     1     -12.898  14.999  67.915  1.00  0.00     0.000 HD 
HETATM   16  O   UNL     1     -10.097  13.586  67.387  1.00  0.00    -0.233 OA 
HETATM   17  N   UNL     1     -12.127  14.688  67.324  1.00  0.00    -0.289 N  
BRANCH  17  18
HETATM   18  C   UNL     1     -11.991  15.203  66.019  1.00  0.00     0.188 A  
HETATM   19  C   UNL     1     -11.138  16.294  65.739  1.00  0.00     0.059 A  
HETATM   20  C   UNL     1     -12.639  14.988  63.691  1.00  0.00     0.814 A  
HETATM   21  C   UNL     1     -11.072  16.690  64.384  1.00  0.00     0.271 A  
HETATM   22  C   UNL     1     -11.796  16.042  63.375  1.00  0.00     2.318 A  
HETATM   23  C   UNL     1     -12.744  14.574  65.012  1.00  0.00    -0.153 A  
BRANCH  19  24
HETATM   24  C   UNL     1     -10.312  17.016  66.755  1.00  0.00    -0.302 A  
HETATM   25  C   UNL     1      -9.097  16.506  67.248  1.00  0.00    -0.214 A  
HETATM   26  C   UNL     1      -8.346  17.186  68.215  1.00  0.00    -0.232 A  
HETATM   27  C   UNL     1      -8.808  18.385  68.744  1.00  0.00    -0.239 A  
HETATM   28  C   UNL     1     -10.009  18.914  68.289  1.00  0.00    -0.431 A  
HETATM   29  C   UNL     1     -10.739  18.246  67.299  1.00  0.00    -0.366 A  
ENDBRANCH  19  24
ENDBRANCH  17  18
ENDBRANCH  13  14
ENDBRANCH  10  13
ENDBRANCH   6   7
ENDBRANCH   5   6
ENDBRANCH   2   5
BRANCH   4  30
HETATM   30  C   UNL     1      -9.471   8.101  72.159  1.00  0.00    -0.291 A  
HETATM   31  C   UNL     1      -9.258   8.661  70.890  1.00  0.00    -0.234 A  
HETATM   32  C   UNL     1      -8.509   8.319  73.149  1.00  0.00    -0.265 A  
HETATM   33  C   UNL     1      -7.455   9.208  72.938  1.00  0.00     0.743 A  
HETATM   34  C   UNL     1      -8.162   9.500  70.653  1.00  0.00    -0.155 A  
HETATM   35  C   UNL     1      -7.273   9.811  71.688  1.00  0.00     0.917 A  
BRANCH  35  36
HETATM   36  C   UNL     1      -6.106  10.753  71.469  1.00  0.00     0.705 C  
BRANCH  36  37
HETATM   37  N   UNL     1      -5.430  10.527  70.183  1.00  0.00    -0.048 NA 
HETATM   38  C   UNL     1      -5.132  11.778  69.478  1.00  0.00    -0.057 C  
HETATM   39  C   UNL     1      -6.140   9.582  69.307  1.00  0.00    -0.037 C  
HETATM   40  C   UNL     1      -7.406  10.166  68.673  1.00  0.00    -0.082 C  
HETATM   41  C   UNL     1      -6.363  12.442  68.856  1.00  0.00    -0.085 C  
HETATM   42  C   UNL     1      -7.119  11.478  67.935  1.00  0.00    -0.076 C  
BRANCH  42  43
HETATM   43  C   UNL     1      -6.366  11.228  66.628  1.00  0.00    -0.135 C  
HETATM   44  N   UNL     1      -6.995  10.416  65.732  1.00  0.00    -0.131 N  
HETATM   45  H2  UNL     1      -7.909  10.003  65.921  1.00  0.00     0.000 HD 
HETATM   46  O   UNL     1      -5.254  11.673  66.367  1.00  0.00    -0.248 OA 
HETATM   47  H1  UNL     1      -6.493  10.249  64.860  1.00  0.00     0.000 HD 
ENDBRANCH  42  43
ENDBRANCH  36  37
ENDBRANCH  35  36
ENDBRANCH   4  30
TORSDOF 11
ENDMDL
MODEL      250
REMARK 921   NORMALIZED FREE ENERGY PREDICTED BY IDOCK:    7.58 KCAL/MOL
REMARK 922        TOTAL FREE ENERGY PREDICTED BY IDOCK:   10.82 KCAL/MOL
REMARK 923 INTER-LIGAND FREE ENERGY PREDICTED BY IDOCK:    4.96 KCAL/MOL
REMARK 924 INTRA-LIGAND FREE ENERGY PREDICTED BY IDOCK:    5.86 KCAL/MOL
REMARK 927      BINDING AFFINITY PREDICTED BY RF-SCORE:    0.00 PKD
ROOT
HETATM    1  C   UNL     1     -11.711   9.050  65.440  1.00  0.00     8.397 C  
HETATM    2  N   UNL     1     -11.152  10.346  65.790  1.00  0.00     0.329 N  
HETATM    3  O   UNL     1     -11.581   9.877  68.011  1.00  0.00    -0.061 OA 
HETATM    4  C   UNL     1     -11.101  10.642  67.172  1.00  0.00    -0.196 C  
ENDROOT
BRANCH   2   5
HETATM    5  C   UNL     1     -10.412  11.124  64.795  1.00  0.00    -0.323 C  
BRANCH   5   6
HETATM    6  C   UNL     1      -9.203  10.531  64.054  1.00  0.00    -0.253 C  
BRANCH   6   7
HETATM    7  N   UNL     1      -8.036  10.392  64.959  1.00  0.00    -0.153 NA 
HETATM    8  C   UNL     1      -7.058   9.415  64.459  1.00  0.00    -0.101 C  
HETATM    9  C   UNL     1      -8.384  10.069  66.353  1.00  0.00    -0.126 C  
HETATM   10  C   UNL     1      -8.039   7.616  65.962  1.00  0.00    -0.118 C  
HETATM   11  C   UNL     1      -9.002   8.681  66.495  1.00  0.00    -0.187 C  
HETATM   12  C   UNL     1      -7.542   7.967  64.556  1.00  0.00    -0.114 C  
BRANCH  10  13
HETATM   13  O   UNL     1      -6.890   7.531  66.829  1.00  0.00    -0.066 OA 
BRANCH  13  14
HETATM   14  C   UNL     1      -7.060   6.746  67.927  1.00  0.00    -0.085 C  
HETATM   15  H   UNL     1      -5.241   5.907  67.398  1.00  0.00     0.000 HD 
HETATM   16  O   UNL     1      -7.938   6.900  68.760  1.00  0.00    -0.116 OA 
HETATM   17  N   UNL     1      -6.104   5.771  67.924  1.00  0.00    -0.021 N  
BRANCH  17  18
HETATM   18  C   UNL     1      -6.307   4.577  68.645  1.00  0.00    -0.036 A  
HETATM   19  C   UNL     1      -6.183   4.532  70.052  1.00  0.00    -0.026 A  
HETATM   20  C   UNL     1      -6.901   2.228  68.526  1.00  0.00    -0.039 A  
HETATM   21  C   UNL     1      -6.444   3.279  70.652  1.00  0.00    -0.031 A  
HETATM   22  C   UNL     1      -6.809   2.150  69.907  1.00  0.00    -0.033 A  
HETATM   23  C   UNL     1      -6.641   3.436  67.894  1.00  0.00    -0.038 A  
BRANCH  19  24
HETATM   24  C   UNL     1      -5.827   5.699  70.916  1.00  0.00    -0.024 A  
HETATM   25  C   UNL     1      -5.584   5.576  72.297  1.00  0.00    -0.018 A  
HETATM   26  C   UNL     1      -5.270   6.684  73.095  1.00  0.00    -0.037 A  
HETATM   27  C   UNL     1      -5.224   7.957  72.539  1.00  0.00    -0.036 A  
HETATM   28  C   UNL     1      -5.469   8.117  71.181  1.00  0.00    -0.033 A  
HETATM   29  C   UNL     1      -5.749   7.003  70.382  1.00  0.00    -0.024 A  
ENDBRANCH  19  24
ENDBRANCH  17  18
ENDBRANCH  13  14
ENDBRANCH  10  13
ENDBRANCH   6   7
ENDBRANCH   5   6
ENDBRANCH   2   5
BRANCH   4  30
HETATM   30  C   UNL     1     -10.373  11.850  67.684  1.00  0.00    -0.217 A  
HETATM   31  C   UNL     1     -10.762  13.106  67.194  1.00  0.00    -0.263 A  
HETATM   32  C   UNL     1      -9.334  11.796  68.617  1.00  0.00    -0.096 A  
HETATM   33  C   UNL     1      -8.814  12.964  69.176  1.00  0.00     0.710 A  
HETATM   34  C   UNL     1     -10.194  14.280  67.704  1.00  0.00    -0.237 A  
HETATM   35  C   UNL     1      -9.242  14.218  68.728  1.00  0.00    -0.112 A  
BRANCH  35  36
HETATM   36  C   UNL     1      -8.647  15.476  69.328  1.00  0.00    -0.263 C  
BRANCH  36  37
HETATM   37  N   UNL     1      -9.081  16.696  68.631  1.00  0.00    -0.237 NA 
HETATM   38  C   UNL     1      -8.521  16.801  67.280  1.00  0.00    -0.184 C  
HETATM   39  C   UNL     1      -8.838  17.926  69.401  1.00  0.00     0.487 C  
HETATM   40  C   UNL     1      -7.364  18.338  69.452  1.00  0.00     0.056 C  
HETATM   41  C   UNL     1      -7.034  17.166  67.257  1.00  0.00    -0.196 C  
HETATM   42  C   UNL     1      -6.756  18.448  68.050  1.00  0.00    -0.217 C  
BRANCH  42  43
HETATM   43  C   UNL     1      -7.262  19.693  67.320  1.00  0.00    -0.219 C  
HETATM   44  N   UNL     1      -6.780  19.872  66.058  1.00  0.00    -0.228 N  
HETATM   45  H2  UNL     1      -6.125  19.219  65.629  1.00  0.00     0.000 HD 
HETATM   46  O   UNL     1      -8.023  20.525  67.804  1.00  0.00    -0.252 OA 
HETATM   47  H1  UNL     1      -7.118  20.703  65.571  1.00  0.00     0.000 HD 
ENDBRANCH  42  43
ENDBRANCH  36  37
ENDBRANCH  35  36
ENDBRANCH   4  30
TORSDOF 11
ENDMDL
MODEL      251
REMARK 921   NORMALIZED FREE ENERGY PREDICTED BY IDOCK:    8.23 KCAL/MOL
REMARK 922        TOTAL FREE ENERGY PREDICTED BY IDOCK:   11.89 KCAL/MOL
REMARK 923 INTER-LIGAND FREE ENERGY PREDICTED BY IDOCK:   -2.46 KCAL/MOL
REMARK 924 INTRA-LIGAND FREE ENERGY PREDICTED BY IDOCK:   14.35 KCAL/MOL
REMARK 927      BINDING AFFINITY PREDICTED BY RF-SCORE:    0.00 PKD
ROOT
HETATM    1  C   UNL     1      -6.484  10.984  69.408  1.00  0.00    -0.095 C  
HETATM    2  N   UNL     1      -6.775  10.069  68.315  1.00  0.00    -0.055 N  
HETATM    3  O   UNL     1      -7.772   8.645  69.837  1.00  0.00    -0.079 OA 
HETATM    4  C   UNL     1      -7.492   8.901  68.664  1.00  0.00    -0.088 C  
ENDROOT
BRANCH   2   5
HETATM    5  C   UNL     1      -6.612  10.503  66.927  1.00  0.00    -0.081 C  
BRANCH   5   6
HETATM    6  C   UNL     1      -7.692  11.337  66.217  1.00  0.00    -0.053 C  
BRANCH   6   7
HETATM    7  N   UNL     1      -8.490  12.119  67.191  1.00  0.00    -0.177 NA 
HETATM    8  C   UNL     1      -8.943  13.402  66.635  1.00  0.00    -0.122 C  
HETATM    9  C   UNL     1      -7.817  12.352  68.480  1.00  0.00    -0.112 C  
HETATM   10  C   UNL     1      -6.998  14.605  67.742  1.00  0.00    -0.177 C  
HETATM   11  C   UNL     1      -6.595  13.256  68.347  1.00  0.00    -0.093 C  
HETATM   12  C   UNL     1      -7.814  14.420  66.460  1.00  0.00     0.918 C  
BRANCH  10  13
HETATM   13  O   UNL     1      -7.813  15.329  68.686  1.00  0.00    -0.127 OA 
BRANCH  13  14
HETATM   14  C   UNL     1      -8.669  16.228  68.130  1.00  0.00    -0.182 C  
HETATM   15  H   UNL     1      -7.005  17.451  67.959  1.00  0.00     0.000 HD 
HETATM   16  O   UNL     1      -9.826  15.987  67.824  1.00  0.00    -0.227 OA 
HETATM   17  N   UNL     1      -8.024  17.424  67.991  1.00  0.00    -0.217 N  
BRANCH  17  18
HETATM   18  C   UNL     1      -8.762  18.621  67.893  1.00  0.00    -0.288 A  
HETATM   19  C   UNL     1     -10.070  18.728  68.414  1.00  0.00    -0.443 A  
HETATM   20  C   UNL     1      -8.766  20.930  67.148  1.00  0.00    -0.124 A  
HETATM   21  C   UNL     1     -10.685  19.993  68.275  1.00  0.00    -0.082 A  
HETATM   22  C   UNL     1     -10.042  21.079  67.666  1.00  0.00     0.120 A  
HETATM   23  C   UNL     1      -8.129  19.700  67.251  1.00  0.00    -0.317 A  
BRANCH  19  24
HETATM   24  C   UNL     1     -10.809  17.626  69.103  1.00  0.00     0.333 A  
HETATM   25  C   UNL     1     -11.645  16.726  68.416  1.00  0.00     0.229 A  
HETATM   26  C   UNL     1     -12.346  15.710  69.080  1.00  0.00     0.044 A  
HETATM   27  C   UNL     1     -12.256  15.587  70.461  1.00  0.00    -0.444 A  
HETATM   28  C   UNL     1     -11.449  16.464  71.174  1.00  0.00    -0.252 A  
HETATM   29  C   UNL     1     -10.726  17.456  70.501  1.00  0.00     1.122 A  
ENDBRANCH  19  24
ENDBRANCH  17  18
ENDBRANCH  13  14
ENDBRANCH  10  13
ENDBRANCH   6   7
ENDBRANCH   5   6
ENDBRANCH   2   5
BRANCH   4  30
HETATM   30  C   UNL     1      -8.029   7.974  67.613  1.00  0.00    -0.123 A  
HETATM   31  C   UNL     1      -7.154   7.555  66.599  1.00  0.00    -0.078 A  
HETATM   32  C   UNL     1      -9.346   7.506  67.587  1.00  0.00    -0.151 A  
HETATM   33  C   UNL     1      -9.735   6.516  66.684  1.00  0.00    -0.201 A  
HETATM   34  C   UNL     1      -7.562   6.612  65.648  1.00  0.00    -0.086 A  
HETATM   35  C   UNL     1      -8.845   6.056  65.707  1.00  0.00    -0.143 A  
BRANCH  35  36
HETATM   36  C   UNL     1      -9.294   5.002  64.716  1.00  0.00     0.061 C  
BRANCH  36  37
HETATM   37  N   UNL     1      -9.106   3.633  65.222  1.00  0.00    -0.138 NA 
HETATM   38  C   UNL     1      -9.597   3.470  66.594  1.00  0.00    -0.106 C  
HETATM   39  C   UNL     1      -7.724   3.147  65.092  1.00  0.00    -0.081 C  
HETATM   40  C   UNL     1      -6.755   3.777  66.097  1.00  0.00    -0.049 C  
HETATM   41  C   UNL     1      -8.698   4.117  67.650  1.00  0.00    -0.119 C  
HETATM   42  C   UNL     1      -7.251   3.623  67.539  1.00  0.00    -0.059 C  
BRANCH  42  43
HETATM   43  C   UNL     1      -7.100   2.182  68.028  1.00  0.00    -0.047 C  
HETATM   44  N   UNL     1      -6.065   1.482  67.485  1.00  0.00    -0.020 N  
HETATM   45  H2  UNL     1      -5.432   1.892  66.798  1.00  0.00     0.000 HD 
HETATM   46  O   UNL     1      -7.852   1.633  68.826  1.00  0.00    -0.046 OA 
HETATM   47  H1  UNL     1      -5.963   0.520  67.811  1.00  0.00     0.000 HD 
ENDBRANCH  42  43
ENDBRANCH  36  37
ENDBRANCH  35  36
ENDBRANCH   4  30
TORSDOF 11
ENDMDL
MODEL      252
REMARK 921   NORMALIZED FREE ENERGY PREDICTED BY IDOCK:    8.38 KCAL/MOL
REMARK 922        TOTAL FREE ENERGY PREDICTED BY IDOCK:   12.14 KCAL/MOL
REMARK 923 INTER-LIGAND FREE ENERGY PREDICTED BY IDOCK:    6.48 KCAL/MOL
REMARK 924 INTRA-LIGAND FREE ENERGY PREDICTED BY IDOCK:    5.66 KCAL/MOL
REMARK 927      BINDING AFFINITY PREDICTED BY RF-SCORE:    0.00 PKD
ROOT
HETATM    1  C   UNL     1     -10.854  15.478  70.392  1.00  0.00    -0.335 C  
HETATM    2  N   UNL     1      -9.758  14.527  70.278  1.00  0.00     0.866 N  
HETATM    3  O   UNL     1     -11.213  13.045  69.268  1.00  0.00    -0.250 OA 
HETATM    4  C   UNL     1     -10.065  13.308  69.632  1.00  0.00     1.084 C  
ENDROOT
BRANCH   2   5
HETATM    5  C   UNL     1      -8.381  14.956  70.532  1.00  0.00     1.486 C  
BRANCH   5   6
HETATM    6  C   UNL     1      -7.577  15.731  69.475  1.00  0.00    -0.177 C  
BRANCH   6   7
HETATM    7  N   UNL     1      -8.473  16.510  68.586  1.00  0.00    -0.232 NA 
HETATM    8  C   UNL     1      -9.604  15.710  68.096  1.00  0.00    -0.196 C  
HETATM    9  C   UNL     1      -7.792  17.149  67.447  1.00  0.00    -0.172 C  
HETATM   10  C   UNL     1      -8.372  15.244  65.922  1.00  0.00     1.099 C  
HETATM   11  C   UNL     1      -7.242  16.133  66.450  1.00  0.00     0.245 C  
HETATM   12  C   UNL     1      -9.197  14.651  67.068  1.00  0.00    -0.252 C  
BRANCH  10  13
HETATM   13  O   UNL     1      -9.258  16.032  65.101  1.00  0.00    -0.000 OA 
BRANCH  13  14
HETATM   14  C   UNL     1     -10.397  15.396  64.715  1.00  0.00    -0.055 C  
HETATM   15  H   UNL     1      -9.616  13.755  65.710  1.00  0.00     0.000 HD 
HETATM   16  O   UNL     1     -11.353  15.944  64.191  1.00  0.00    -0.362 OA 
HETATM   17  N   UNL     1     -10.277  14.065  64.998  1.00  0.00    -0.391 N  
BRANCH  17  18
HETATM   18  C   UNL     1     -11.065  13.120  64.310  1.00  0.00    -0.396 A  
HETATM   19  C   UNL     1     -10.499  11.952  63.752  1.00  0.00    -0.468 A  
HETATM   20  C   UNL     1     -13.296  12.502  63.586  1.00  0.00     0.639 A  
HETATM   21  C   UNL     1     -11.406  11.074  63.116  1.00  0.00     0.643 A  
HETATM   22  C   UNL     1     -12.781  11.335  63.044  1.00  0.00     0.993 A  
HETATM   23  C   UNL     1     -12.439  13.399  64.210  1.00  0.00    -0.321 A  
BRANCH  19  24
HETATM   24  C   UNL     1      -9.050  11.591  63.813  1.00  0.00     0.120 A  
HETATM   25  C   UNL     1      -8.275  11.750  64.977  1.00  0.00     1.205 A  
HETATM   26  C   UNL     1      -6.912  11.425  65.011  1.00  0.00     1.333 A  
HETATM   27  C   UNL     1      -6.275  10.962  63.866  1.00  0.00     0.434 A  
HETATM   28  C   UNL     1      -7.006  10.802  62.695  1.00  0.00     0.006 A  
HETATM   29  C   UNL     1      -8.374  11.097  62.676  1.00  0.00    -0.117 A  
ENDBRANCH  19  24
ENDBRANCH  17  18
ENDBRANCH  13  14
ENDBRANCH  10  13
ENDBRANCH   6   7
ENDBRANCH   5   6
ENDBRANCH   2   5
BRANCH   4  30
HETATM   30  C   UNL     1      -8.990  12.325  69.272  1.00  0.00     0.877 A  
HETATM   31  C   UNL     1      -9.259  10.961  69.461  1.00  0.00     0.218 A  
HETATM   32  C   UNL     1      -7.741  12.689  68.761  1.00  0.00     0.007 A  
HETATM   33  C   UNL     1      -6.852  11.723  68.290  1.00  0.00    -0.068 A  
HETATM   34  C   UNL     1      -8.340   9.987  69.052  1.00  0.00    -0.134 A  
HETATM   35  C   UNL     1      -7.144  10.361  68.427  1.00  0.00    -0.078 A  
BRANCH  35  36
HETATM   36  C   UNL     1      -6.154   9.325  67.934  1.00  0.00    -0.050 C  
BRANCH  36  37
HETATM   37  N   UNL     1      -6.648   8.580  66.765  1.00  0.00    -0.057 NA 
HETATM   38  C   UNL     1      -8.069   8.236  66.880  1.00  0.00    -0.103 C  
HETATM   39  C   UNL     1      -5.840   7.394  66.445  1.00  0.00    -0.036 C  
HETATM   40  C   UNL     1      -6.043   6.230  67.420  1.00  0.00    -0.018 C  
HETATM   41  C   UNL     1      -8.352   7.108  67.875  1.00  0.00    -0.118 C  
HETATM   42  C   UNL     1      -7.523   5.857  67.559  1.00  0.00    -0.078 C  
BRANCH  42  43
HETATM   43  C   UNL     1      -8.034   5.133  66.312  1.00  0.00    -0.104 C  
HETATM   44  N   UNL     1      -7.072   4.620  65.495  1.00  0.00    -0.063 N  
HETATM   45  H2  UNL     1      -6.077   4.712  65.701  1.00  0.00     0.000 HD 
HETATM   46  O   UNL     1      -9.215   5.024  66.003  1.00  0.00    -0.142 OA 
HETATM   47  H1  UNL     1      -7.412   4.137  64.663  1.00  0.00     0.000 HD 
ENDBRANCH  42  43
ENDBRANCH  36  37
ENDBRANCH  35  36
ENDBRANCH   4  30
TORSDOF 11
ENDMDL
MODEL      253
REMARK 921   NORMALIZED FREE ENERGY PREDICTED BY IDOCK:    8.67 KCAL/MOL
REMARK 922        TOTAL FREE ENERGY PREDICTED BY IDOCK:   12.62 KCAL/MOL
REMARK 923 INTER-LIGAND FREE ENERGY PREDICTED BY IDOCK:   -4.60 KCAL/MOL
REMARK 924 INTRA-LIGAND FREE ENERGY PREDICTED BY IDOCK:   17.22 KCAL/MOL
REMARK 927      BINDING AFFINITY PREDICTED BY RF-SCORE:    0.00 PKD
ROOT
HETATM    1  C   UNL     1     -13.669  10.240  69.741  1.00  0.00     1.991 C  
HETATM    2  N   UNL     1     -12.289  10.227  70.203  1.00  0.00    -0.195 N  
HETATM    3  O   UNL     1     -12.595   8.048  70.906  1.00  0.00    -0.137 OA 
HETATM    4  C   UNL     1     -11.836   9.007  70.755  1.00  0.00    -0.206 C  
ENDROOT
BRANCH   2   5
HETATM    5  C   UNL     1     -11.374  11.303  69.819  1.00  0.00    -0.271 C  
BRANCH   5   6
HETATM    6  C   UNL     1     -11.886  12.591  69.154  1.00  0.00    -0.296 C  
BRANCH   6   7
HETATM    7  N   UNL     1     -10.787  13.315  68.472  1.00  0.00    -0.258 NA 
HETATM    8  C   UNL     1     -10.632  12.900  67.071  1.00  0.00    -0.252 C  
HETATM    9  C   UNL     1      -9.486  13.229  69.157  1.00  0.00     0.560 C  
HETATM   10  C   UNL     1      -8.758  11.309  67.717  1.00  0.00    -0.134 C  
HETATM   11  C   UNL     1      -8.917  11.813  69.155  1.00  0.00     0.405 C  
HETATM   12  C   UNL     1     -10.051  11.493  66.916  1.00  0.00    -0.241 C  
BRANCH  10  13
HETATM   13  O   UNL     1      -7.719  12.059  67.057  1.00  0.00    -0.159 OA 
BRANCH  13  14
HETATM   14  C   UNL     1      -7.852  13.411  67.134  1.00  0.00    -0.019 C  
HETATM   15  H   UNL     1      -9.890  13.041  67.117  1.00  0.00     0.000 HD 
HETATM   16  O   UNL     1      -6.931  14.188  67.329  1.00  0.00    -0.189 OA 
HETATM   17  N   UNL     1      -9.164  13.736  66.945  1.00  0.00    -0.249 N  
BRANCH  17  18
HETATM   18  C   UNL     1      -9.519  15.030  66.513  1.00  0.00    -0.282 A  
HETATM   19  C   UNL     1     -10.377  15.233  65.409  1.00  0.00    -0.421 A  
HETATM   20  C   UNL     1      -9.307  17.414  66.908  1.00  0.00    -0.271 A  
HETATM   21  C   UNL     1     -10.675  16.579  65.102  1.00  0.00    -0.261 A  
HETATM   22  C   UNL     1     -10.162  17.652  65.844  1.00  0.00    -0.240 A  
HETATM   23  C   UNL     1      -8.977  16.106  67.237  1.00  0.00    -0.210 A  
BRANCH  19  24
HETATM   24  C   UNL     1     -10.986  14.141  64.589  1.00  0.00    -0.393 A  
HETATM   25  C   UNL     1     -12.375  14.008  64.411  1.00  0.00    -0.401 A  
HETATM   26  C   UNL     1     -12.930  12.967  63.655  1.00  0.00     0.190 A  
HETATM   27  C   UNL     1     -12.108  12.005  63.081  1.00  0.00    -0.347 A  
HETATM   28  C   UNL     1     -10.732  12.098  63.244  1.00  0.00    -0.373 A  
HETATM   29  C   UNL     1     -10.182  13.159  63.973  1.00  0.00    -0.050 A  
ENDBRANCH  19  24
ENDBRANCH  17  18
ENDBRANCH  13  14
ENDBRANCH  10  13
ENDBRANCH   6   7
ENDBRANCH   5   6
ENDBRANCH   2   5
BRANCH   4  30
HETATM   30  C   UNL     1     -10.387   8.793  71.086  1.00  0.00    -0.315 A  
HETATM   31  C   UNL     1     -10.069   8.351  72.379  1.00  0.00    -0.386 A  
HETATM   32  C   UNL     1      -9.342   9.009  70.184  1.00  0.00    -0.213 A  
HETATM   33  C   UNL     1      -8.037   8.631  70.500  1.00  0.00    -0.115 A  
HETATM   34  C   UNL     1      -8.749   8.034  72.722  1.00  0.00    -0.262 A  
HETATM   35  C   UNL     1      -7.727   8.136  71.771  1.00  0.00    -0.121 A  
BRANCH  35  36
HETATM   36  C   UNL     1      -6.299   7.757  72.105  1.00  0.00    -0.044 C  
BRANCH  36  37
HETATM   37  N   UNL     1      -6.092   6.301  72.136  1.00  0.00    -0.041 NA 
HETATM   38  C   UNL     1      -5.213   5.836  71.058  1.00  0.00    -0.009 C  
HETATM   39  C   UNL     1      -7.346   5.533  72.165  1.00  0.00    -0.090 C  
HETATM   40  C   UNL     1      -8.088   5.517  70.825  1.00  0.00    -0.113 C  
HETATM   41  C   UNL     1      -5.877   5.839  69.678  1.00  0.00    -0.023 C  
HETATM   42  C   UNL     1      -7.186   5.039  69.681  1.00  0.00    -0.056 C  
BRANCH  42  43
HETATM   43  C   UNL     1      -6.936   3.533  69.762  1.00  0.00    -0.041 C  
HETATM   44  N   UNL     1      -7.995   2.783  70.178  1.00  0.00    -0.042 N  
HETATM   45  H2  UNL     1      -8.894   3.198  70.419  1.00  0.00     0.000 HD 
HETATM   46  O   UNL     1      -5.865   2.989  69.516  1.00  0.00    -0.021 OA 
HETATM   47  H1  UNL     1      -7.828   1.777  70.231  1.00  0.00     0.000 HD 
ENDBRANCH  42  43
ENDBRANCH  36  37
ENDBRANCH  35  36
ENDBRANCH   4  30
TORSDOF 11
ENDMDL
MODEL      254
REMARK 921   NORMALIZED FREE ENERGY PREDICTED BY IDOCK:    9.05 KCAL/MOL
REMARK 922        TOTAL FREE ENERGY PREDICTED BY IDOCK:   13.23 KCAL/MOL
REMARK 923 INTER-LIGAND FREE ENERGY PREDICTED BY IDOCK:   13.31 KCAL/MOL
REMARK 924 INTRA-LIGAND FREE ENERGY PREDICTED BY IDOCK:   -0.07 KCAL/MOL
REMARK 927      BINDING AFFINITY PREDICTED BY RF-SCORE:    0.00 PKD
ROOT
HETATM    1  C   UNL     1     -12.279   5.874  65.304  1.00  0.00     5.352 C  
HETATM    2  N   UNL     1     -10.998   6.348  65.807  1.00  0.00     1.579 N  
HETATM    3  O   UNL     1     -11.626   8.498  65.241  1.00  0.00     7.247 OA 
HETATM    4  C   UNL     1     -10.796   7.746  65.757  1.00  0.00     3.335 C  
ENDROOT
BRANCH   2   5
HETATM    5  C   UNL     1     -10.140   5.459  66.592  1.00  0.00    -0.216 C  
BRANCH   5   6
HETATM    6  C   UNL     1     -10.065   3.952  66.295  1.00  0.00     0.087 C  
BRANCH   6   7
HETATM    7  N   UNL     1      -8.667   3.463  66.361  1.00  0.00    -0.120 NA 
HETATM    8  C   UNL     1      -8.595   2.003  66.518  1.00  0.00    -0.112 C  
HETATM    9  C   UNL     1      -7.845   4.110  67.398  1.00  0.00    -0.091 C  
HETATM   10  C   UNL     1      -8.291   2.257  69.028  1.00  0.00    -0.052 C  
HETATM   11  C   UNL     1      -8.314   3.773  68.810  1.00  0.00    -0.088 C  
HETATM   12  C   UNL     1      -9.027   1.520  67.904  1.00  0.00    -0.163 C  
BRANCH  10  13
HETATM   13  O   UNL     1      -6.925   1.795  69.040  1.00  0.00    -0.036 OA 
BRANCH  13  14
HETATM   14  C   UNL     1      -6.296   1.904  70.242  1.00  0.00    -0.024 C  
HETATM   15  H   UNL     1      -8.137   2.528  70.959  1.00  0.00     0.000 HD 
HETATM   16  O   UNL     1      -5.163   1.510  70.469  1.00  0.00    -0.004 OA 
HETATM   17  N   UNL     1      -7.130   2.532  71.122  1.00  0.00    -0.032 N  
BRANCH  17  18
HETATM   18  C   UNL     1      -6.604   3.185  72.255  1.00  0.00    -0.015 A  
HETATM   19  C   UNL     1      -6.995   4.498  72.601  1.00  0.00    -0.062 A  
HETATM   20  C   UNL     1      -5.137   3.013  74.179  1.00  0.00     0.000 A  
HETATM   21  C   UNL     1      -6.414   5.022  73.777  1.00  0.00    -0.063 A  
HETATM   22  C   UNL     1      -5.513   4.291  74.561  1.00  0.00    -0.008 A  
HETATM   23  C   UNL     1      -5.673   2.463  73.022  1.00  0.00    -0.004 A  
BRANCH  19  24
HETATM   24  C   UNL     1      -7.972   5.329  71.832  1.00  0.00    -0.113 A  
HETATM   25  C   UNL     1      -7.600   6.497  71.142  1.00  0.00    -0.090 A  
HETATM   26  C   UNL     1      -8.533   7.274  70.443  1.00  0.00    -0.139 A  
HETATM   27  C   UNL     1      -9.877   6.922  70.443  1.00  0.00    -0.187 A  
HETATM   28  C   UNL     1     -10.283   5.781  71.123  1.00  0.00    -0.275 A  
HETATM   29  C   UNL     1      -9.342   4.990  71.792  1.00  0.00    -0.184 A  
ENDBRANCH  19  24
ENDBRANCH  17  18
ENDBRANCH  13  14
ENDBRANCH  10  13
ENDBRANCH   6   7
ENDBRANCH   5   6
ENDBRANCH   2   5
BRANCH   4  30
HETATM   30  C   UNL     1      -9.611   8.385  66.420  1.00  0.00    -0.307 A  
HETATM   31  C   UNL     1      -8.416   8.466  65.688  1.00  0.00    -0.179 A  
HETATM   32  C   UNL     1      -9.629   8.903  67.718  1.00  0.00    -0.176 A  
HETATM   33  C   UNL     1      -8.548   9.633  68.211  1.00  0.00    -0.119 A  
HETATM   34  C   UNL     1      -7.304   9.140  66.208  1.00  0.00    -0.092 A  
HETATM   35  C   UNL     1      -7.375   9.763  67.460  1.00  0.00    -0.090 A  
BRANCH  35  36
HETATM   36  C   UNL     1      -6.200  10.536  68.023  1.00  0.00    -0.054 C  
BRANCH  36  37
HETATM   37  N   UNL     1      -6.606  11.527  69.032  1.00  0.00    -0.080 NA 
HETATM   38  C   UNL     1      -7.854  12.211  68.676  1.00  0.00    -0.078 C  
HETATM   39  C   UNL     1      -5.547  12.495  69.358  1.00  0.00    -0.080 C  
HETATM   40  C   UNL     1      -5.306  13.535  68.261  1.00  0.00    -0.101 C  
HETATM   41  C   UNL     1      -7.695  13.236  67.550  1.00  0.00    -0.175 C  
HETATM   42  C   UNL     1      -6.599  14.259  67.869  1.00  0.00    -0.175 C  
BRANCH  42  43
HETATM   43  C   UNL     1      -7.035  15.244  68.954  1.00  0.00    -0.125 C  
HETATM   44  N   UNL     1      -6.041  16.001  69.496  1.00  0.00    -0.151 N  
HETATM   45  H2  UNL     1      -5.069  15.916  69.198  1.00  0.00     0.000 HD 
HETATM   46  O   UNL     1      -8.183  15.361  69.370  1.00  0.00    -0.236 OA 
HETATM   47  H1  UNL     1      -6.332  16.659  70.220  1.00  0.00     0.000 HD 
ENDBRANCH  42  43
ENDBRANCH  36  37
ENDBRANCH  35  36
ENDBRANCH   4  30
TORSDOF 11
ENDMDL
MODEL      255
REMARK 921   NORMALIZED FREE ENERGY PREDICTED BY IDOCK:    9.18 KCAL/MOL
REMARK 922        TOTAL FREE ENERGY PREDICTED BY IDOCK:   13.45 KCAL/MOL
REMARK 923 INTER-LIGAND FREE ENERGY PREDICTED BY IDOCK:    5.57 KCAL/MOL
REMARK 924 INTRA-LIGAND FREE ENERGY PREDICTED BY IDOCK:    7.88 KCAL/MOL
REMARK 927      BINDING AFFINITY PREDICTED BY RF-SCORE:    0.00 PKD
ROOT
HETATM    1  C   UNL     1      -9.857  15.552  70.134  1.00  0.00     0.022 C  
HETATM    2  N   UNL     1      -8.762  14.596  70.078  1.00  0.00     0.586 N  
HETATM    3  O   UNL     1     -10.210  13.066  69.130  1.00  0.00     0.037 OA 
HETATM    4  C   UNL     1      -9.065  13.346  69.491  1.00  0.00     1.382 C  
ENDROOT
BRANCH   2   5
HETATM    5  C   UNL     1      -7.387  15.035  70.322  1.00  0.00     0.319 C  
BRANCH   5   6
HETATM    6  C   UNL     1      -6.558  15.718  69.221  1.00  0.00    -0.160 C  
BRANCH   6   7
HETATM    7  N   UNL     1      -7.373  16.705  68.473  1.00  0.00    -0.190 NA 
HETATM    8  C   UNL     1      -8.794  16.333  68.427  1.00  0.00    -0.202 C  
HETATM    9  C   UNL     1      -6.892  16.979  67.108  1.00  0.00    -0.179 C  
HETATM   10  C   UNL     1      -8.485  15.312  66.121  1.00  0.00     0.266 C  
HETATM   11  C   UNL     1      -7.024  15.769  66.188  1.00  0.00     2.035 C  
HETATM   12  C   UNL     1      -9.078  15.133  67.522  1.00  0.00    -0.187 C  
BRANCH  10  13
HETATM   13  O   UNL     1      -9.268  16.308  65.432  1.00  0.00    -0.316 OA 
BRANCH  13  14
HETATM   14  C   UNL     1     -10.482  15.878  64.994  1.00  0.00    -0.266 C  
HETATM   15  H   UNL     1      -9.919  14.038  65.762  1.00  0.00     0.000 HD 
HETATM   16  O   UNL     1     -11.360  16.606  64.560  1.00  0.00    -0.877 OA 
HETATM   17  N   UNL     1     -10.536  14.518  65.108  1.00  0.00    -0.383 N  
BRANCH  17  18
HETATM   18  C   UNL     1     -11.443  13.776  64.323  1.00  0.00    -0.340 A  
HETATM   19  C   UNL     1     -11.704  12.413  64.585  1.00  0.00    -0.426 A  
HETATM   20  C   UNL     1     -13.013  13.822  62.475  1.00  0.00     3.001 A  
HETATM   21  C   UNL     1     -12.657  11.797  63.743  1.00  0.00    -0.413 A  
HETATM   22  C   UNL     1     -13.310  12.489  62.715  1.00  0.00     1.789 A  
HETATM   23  C   UNL     1     -12.073  14.463  63.271  1.00  0.00     0.850 A  
BRANCH  19  24
HETATM   24  C   UNL     1     -11.070  11.616  65.680  1.00  0.00    -0.308 A  
HETATM   25  C   UNL     1      -9.874  10.897  65.502  1.00  0.00    -0.298 A  
HETATM   26  C   UNL     1      -9.304  10.139  66.534  1.00  0.00    -0.200 A  
HETATM   27  C   UNL     1      -9.935  10.051  67.768  1.00  0.00    -0.203 A  
HETATM   28  C   UNL     1     -11.124  10.740  67.977  1.00  0.00    -0.359 A  
HETATM   29  C   UNL     1     -11.671  11.521  66.953  1.00  0.00    -0.038 A  
ENDBRANCH  19  24
ENDBRANCH  17  18
ENDBRANCH  13  14
ENDBRANCH  10  13
ENDBRANCH   6   7
ENDBRANCH   5   6
ENDBRANCH   2   5
BRANCH   4  30
HETATM   30  C   UNL     1      -7.988  12.345  69.189  1.00  0.00     0.399 A  
HETATM   31  C   UNL     1      -7.875  11.230  70.034  1.00  0.00     1.179 A  
HETATM   32  C   UNL     1      -7.095  12.460  68.120  1.00  0.00    -0.097 A  
HETATM   33  C   UNL     1      -6.231  11.414  67.796  1.00  0.00    -0.050 A  
HETATM   34  C   UNL     1      -6.960  10.208  69.750  1.00  0.00    -0.118 A  
HETATM   35  C   UNL     1      -6.157  10.276  68.606  1.00  0.00    -0.047 A  
BRANCH  35  36
HETATM   36  C   UNL     1      -5.191   9.162  68.254  1.00  0.00    -0.037 C  
BRANCH  36  37
HETATM   37  N   UNL     1      -5.765   8.194  67.307  1.00  0.00    -0.037 NA 
HETATM   38  C   UNL     1      -7.225   8.106  67.409  1.00  0.00    -0.088 C  
HETATM   39  C   UNL     1      -5.147   6.861  67.388  1.00  0.00    -0.008 C  
HETATM   40  C   UNL     1      -5.559   6.068  68.631  1.00  0.00    -0.011 C  
HETATM   41  C   UNL     1      -7.711   7.362  68.657  1.00  0.00    -0.120 C  
HETATM   42  C   UNL     1      -7.083   5.967  68.761  1.00  0.00    -0.081 C  
BRANCH  42  43
HETATM   43  C   UNL     1      -7.667   4.999  67.732  1.00  0.00    -0.087 C  
HETATM   44  N   UNL     1      -8.871   5.357  67.204  1.00  0.00    -0.110 N  
HETATM   45  H2  UNL     1      -9.351   6.214  67.477  1.00  0.00     0.000 HD 
HETATM   46  O   UNL     1      -7.146   3.941  67.395  1.00  0.00    -0.061 OA 
HETATM   47  H1  UNL     1      -9.261   4.711  66.517  1.00  0.00     0.000 HD 
ENDBRANCH  42  43
ENDBRANCH  36  37
ENDBRANCH  35  36
ENDBRANCH   4  30
TORSDOF 11
ENDMDL
MODEL      256
REMARK 921   NORMALIZED FREE ENERGY PREDICTED BY IDOCK:    9.32 KCAL/MOL
REMARK 922        TOTAL FREE ENERGY PREDICTED BY IDOCK:   13.67 KCAL/MOL
REMARK 923 INTER-LIGAND FREE ENERGY PREDICTED BY IDOCK:    7.44 KCAL/MOL
REMARK 924 INTRA-LIGAND FREE ENERGY PREDICTED BY IDOCK:    6.23 KCAL/MOL
REMARK 927      BINDING AFFINITY PREDICTED BY RF-SCORE:    0.00 PKD
ROOT
HETATM    1  C   UNL     1     -12.986  16.933  67.315  1.00  0.00     5.647 C  
HETATM    2  N   UNL     1     -12.565  15.653  66.765  1.00  0.00     1.660 N  
HETATM    3  O   UNL     1     -11.659  16.779  64.964  1.00  0.00     0.067 OA 
HETATM    4  C   UNL     1     -11.842  15.712  65.552  1.00  0.00     0.472 C  
ENDROOT
BRANCH   2   5
HETATM    5  C   UNL     1     -12.619  14.444  67.589  1.00  0.00     0.521 C  
BRANCH   5   6
HETATM    6  C   UNL     1     -11.469  14.072  68.540  1.00  0.00    -0.302 C  
BRANCH   6   7
HETATM    7  N   UNL     1     -10.347  15.035  68.426  1.00  0.00    -0.227 NA 
HETATM    8  C   UNL     1      -9.341  14.603  67.445  1.00  0.00    -0.196 C  
HETATM    9  C   UNL     1      -9.685  15.350  69.703  1.00  0.00    -0.246 C  
HETATM   10  C   UNL     1      -7.903  13.632  69.301  1.00  0.00     0.361 C  
HETATM   11  C   UNL     1      -8.950  14.150  70.292  1.00  0.00     2.294 C  
HETATM   12  C   UNL     1      -8.512  13.406  67.914  1.00  0.00    -0.173 C  
BRANCH  10  13
HETATM   13  O   UNL     1      -6.846  14.604  69.168  1.00  0.00    -0.109 OA 
BRANCH  13  14
HETATM   14  C   UNL     1      -6.912  15.370  68.046  1.00  0.00    -0.133 C  
HETATM   15  H   UNL     1      -5.630  16.651  69.050  1.00  0.00     0.000 HD 
HETATM   16  O   UNL     1      -7.438  15.024  67.000  1.00  0.00    -0.166 OA 
HETATM   17  N   UNL     1      -6.311  16.570  68.295  1.00  0.00    -0.125 N  
BRANCH  17  18
HETATM   18  C   UNL     1      -6.629  17.699  67.513  1.00  0.00    -0.162 A  
HETATM   19  C   UNL     1      -6.503  19.011  68.021  1.00  0.00    -0.241 A  
HETATM   20  C   UNL     1      -7.371  18.505  65.348  1.00  0.00     0.241 A  
HETATM   21  C   UNL     1      -6.826  20.052  67.121  1.00  0.00    -0.254 A  
HETATM   22  C   UNL     1      -7.239  19.807  65.805  1.00  0.00    -0.336 A  
HETATM   23  C   UNL     1      -7.076  17.451  66.203  1.00  0.00    -0.320 A  
BRANCH  19  24
HETATM   24  C   UNL     1      -6.041  19.352  69.401  1.00  0.00    -0.314 A  
HETATM   25  C   UNL     1      -5.820  18.378  70.391  1.00  0.00    -0.109 A  
HETATM   26  C   UNL     1      -5.406  18.717  71.687  1.00  0.00    -0.167 A  
HETATM   27  C   UNL     1      -5.234  20.050  72.039  1.00  0.00    -0.254 A  
HETATM   28  C   UNL     1      -5.455  21.040  71.091  1.00  0.00     0.163 A  
HETATM   29  C   UNL     1      -5.836  20.694  69.789  1.00  0.00    -0.343 A  
ENDBRANCH  19  24
ENDBRANCH  17  18
ENDBRANCH  13  14
ENDBRANCH  10  13
ENDBRANCH   6   7
ENDBRANCH   5   6
ENDBRANCH   2   5
BRANCH   4  30
HETATM   30  C   UNL     1     -11.180  14.492  64.981  1.00  0.00    -0.384 A  
HETATM   31  C   UNL     1     -12.001  13.424  64.588  1.00  0.00    -0.441 A  
HETATM   32  C   UNL     1      -9.798  14.360  64.817  1.00  0.00     0.228 A  
HETATM   33  C   UNL     1      -9.261  13.274  64.126  1.00  0.00     2.364 A  
HETATM   34  C   UNL     1     -11.458  12.299  63.954  1.00  0.00    -0.512 A  
HETATM   35  C   UNL     1     -10.086  12.234  63.684  1.00  0.00    -0.369 A  
BRANCH  35  36
HETATM   36  C   UNL     1      -9.481  11.048  62.960  1.00  0.00    -0.363 C  
BRANCH  36  37
HETATM   37  N   UNL     1      -9.560   9.806  63.743  1.00  0.00    -0.023 NA 
HETATM   38  C   UNL     1      -8.952   9.939  65.070  1.00  0.00    -0.201 C  
HETATM   39  C   UNL     1      -9.027   8.633  63.032  1.00  0.00     0.404 C  
HETATM   40  C   UNL     1      -7.499   8.614  62.936  1.00  0.00    -0.104 C  
HETATM   41  C   UNL     1      -7.421   9.974  65.046  1.00  0.00    -0.139 C  
HETATM   42  C   UNL     1      -6.841   8.758  64.313  1.00  0.00    -0.078 C  
BRANCH  42  43
HETATM   43  C   UNL     1      -6.982   7.476  65.134  1.00  0.00    -0.058 C  
HETATM   44  N   UNL     1      -6.205   7.403  66.250  1.00  0.00    -0.040 N  
HETATM   45  H2  UNL     1      -5.571   8.155  66.521  1.00  0.00     0.000 HD 
HETATM   46  O   UNL     1      -7.704   6.531  64.833  1.00  0.00    -0.090 OA 
HETATM   47  H1  UNL     1      -6.299   6.547  66.798  1.00  0.00     0.000 HD 
ENDBRANCH  42  43
ENDBRANCH  36  37
ENDBRANCH  35  36
ENDBRANCH   4  30
TORSDOF 11
ENDMDL
MODEL      257
REMARK 921   NORMALIZED FREE ENERGY PREDICTED BY IDOCK:   10.81 KCAL/MOL
REMARK 922        TOTAL FREE ENERGY PREDICTED BY IDOCK:   16.13 KCAL/MOL
REMARK 923 INTER-LIGAND FREE ENERGY PREDICTED BY IDOCK:    6.90 KCAL/MOL
REMARK 924 INTRA-LIGAND FREE ENERGY PREDICTED BY IDOCK:    9.23 KCAL/MOL
REMARK 927      BINDING AFFINITY PREDICTED BY RF-SCORE:    0.00 PKD
ROOT
HETATM    1  C   UNL     1      -9.934  10.200  63.986  1.00  0.00     0.023 C  
HETATM    2  N   UNL     1     -10.086  11.513  64.595  1.00  0.00    -0.257 N  
HETATM    3  O   UNL     1     -12.283  10.982  65.073  1.00  0.00     0.878 OA 
HETATM    4  C   UNL     1     -11.350  11.783  65.166  1.00  0.00    -0.218 C  
ENDROOT
BRANCH   2   5
HETATM    5  C   UNL     1      -8.909  12.340  64.865  1.00  0.00     1.084 C  
BRANCH   5   6
HETATM    6  C   UNL     1      -8.179  12.276  66.217  1.00  0.00     0.353 C  
BRANCH   6   7
HETATM    7  N   UNL     1      -8.517  11.031  66.949  1.00  0.00    -0.135 NA 
HETATM    8  C   UNL     1      -9.342  11.291  68.137  1.00  0.00    -0.181 C  
HETATM    9  C   UNL     1      -7.351  10.215  67.329  1.00  0.00    -0.090 C  
HETATM   10  C   UNL     1      -7.281  11.230  69.621  1.00  0.00     0.036 C  
HETATM   11  C   UNL     1      -6.468  10.905  68.364  1.00  0.00    -0.057 C  
HETATM   12  C   UNL     1      -8.575  11.972  69.272  1.00  0.00     0.712 C  
BRANCH  10  13
HETATM   13  O   UNL     1      -7.639  10.005  70.291  1.00  0.00    -0.170 OA 
BRANCH  13  14
HETATM   14  C   UNL     1      -8.158   9.042  69.482  1.00  0.00    -0.105 C  
HETATM   15  H   UNL     1      -6.255   8.225  69.519  1.00  0.00     0.000 HD 
HETATM   16  O   UNL     1      -9.345   8.920  69.223  1.00  0.00    -0.147 OA 
HETATM   17  N   UNL     1      -7.139   8.265  69.012  1.00  0.00    -0.064 N  
BRANCH  17  18
HETATM   18  C   UNL     1      -7.305   7.517  67.829  1.00  0.00    -0.103 A  
HETATM   19  C   UNL     1      -7.062   6.125  67.793  1.00  0.00    -0.081 A  
HETATM   20  C   UNL     1      -7.956   7.561  65.493  1.00  0.00    -0.121 A  
HETATM   21  C   UNL     1      -7.296   5.493  66.551  1.00  0.00    -0.082 A  
HETATM   22  C   UNL     1      -7.748   6.193  65.424  1.00  0.00    -0.093 A  
HETATM   23  C   UNL     1      -7.726   8.226  66.690  1.00  0.00    -0.093 A  
BRANCH  19  24
HETATM   24  C   UNL     1      -6.608   5.307  68.958  1.00  0.00    -0.051 A  
HETATM   25  C   UNL     1      -5.777   4.180  68.819  1.00  0.00    -0.021 A  
HETATM   26  C   UNL     1      -5.377   3.412  69.921  1.00  0.00    -0.008 A  
HETATM   27  C   UNL     1      -5.828   3.731  71.196  1.00  0.00    -0.013 A  
HETATM   28  C   UNL     1      -6.659   4.830  71.371  1.00  0.00    -0.030 A  
HETATM   29  C   UNL     1      -7.028   5.613  70.270  1.00  0.00    -0.058 A  
ENDBRANCH  19  24
ENDBRANCH  17  18
ENDBRANCH  13  14
ENDBRANCH  10  13
ENDBRANCH   6   7
ENDBRANCH   5   6
ENDBRANCH   2   5
BRANCH   4  30
HETATM   30  C   UNL     1     -11.582  13.012  65.996  1.00  0.00    -0.409 A  
HETATM   31  C   UNL     1     -12.553  12.946  67.008  1.00  0.00     0.692 A  
HETATM   32  C   UNL     1     -10.890  14.213  65.820  1.00  0.00    -0.297 A  
HETATM   33  C   UNL     1     -11.033  15.261  66.730  1.00  0.00    -0.306 A  
HETATM   34  C   UNL     1     -12.747  14.022  67.883  1.00  0.00     0.891 A  
HETATM   35  C   UNL     1     -11.960  15.174  67.774  1.00  0.00    -0.047 A  
BRANCH  35  36
HETATM   36  C   UNL     1     -12.121  16.333  68.737  1.00  0.00     0.334 C  
BRANCH  36  37
HETATM   37  N   UNL     1     -11.475  16.084  70.035  1.00  0.00    -0.335 NA 
HETATM   38  C   UNL     1     -11.757  14.742  70.554  1.00  0.00    -0.293 C  
HETATM   39  C   UNL     1     -11.774  17.114  71.043  1.00  0.00     1.760 C  
HETATM   40  C   UNL     1     -13.197  17.033  71.602  1.00  0.00     5.814 C  
HETATM   41  C   UNL     1     -13.182  14.575  71.089  1.00  0.00    -0.423 C  
HETATM   42  C   UNL     1     -13.515  15.635  72.145  1.00  0.00    -0.561 C  
BRANCH  42  43
HETATM   43  C   UNL     1     -12.791  15.374  73.466  1.00  0.00    -0.552 C  
HETATM   44  N   UNL     1     -11.871  14.369  73.445  1.00  0.00     0.251 N  
HETATM   45  H2  UNL     1     -11.678  13.827  72.602  1.00  0.00     0.000 HD 
HETATM   46  O   UNL     1     -13.010  15.974  74.513  1.00  0.00    -0.529 OA 
HETATM   47  H1  UNL     1     -11.387  14.195  74.326  1.00  0.00     0.000 HD 
ENDBRANCH  42  43
ENDBRANCH  36  37
ENDBRANCH  35  36
ENDBRANCH   4  30
TORSDOF 11
ENDMDL
MODEL      258
REMARK 921   NORMALIZED FREE ENERGY PREDICTED BY IDOCK:   12.29 KCAL/MOL
REMARK 922        TOTAL FREE ENERGY PREDICTED BY IDOCK:   18.57 KCAL/MOL
REMARK 923 INTER-LIGAND FREE ENERGY PREDICTED BY IDOCK:   -2.73 KCAL/MOL
REMARK 924 INTRA-LIGAND FREE ENERGY PREDICTED BY IDOCK:   21.29 KCAL/MOL
REMARK 927      BINDING AFFINITY PREDICTED BY RF-SCORE:    0.00 PKD
ROOT
HETATM    1  C   UNL     1     -12.744  13.315  66.131  1.00  0.00     0.027 C  
HETATM    2  N   UNL     1     -11.860  12.279  65.619  1.00  0.00    -0.402 N  
HETATM    3  O   UNL     1     -11.105  13.777  64.030  1.00  0.00    -0.252 OA 
HETATM    4  C   UNL     1     -11.022  12.660  64.546  1.00  0.00    -0.332 C  
ENDROOT
BRANCH   2   5
HETATM    5  C   UNL     1     -11.645  11.049  66.384  1.00  0.00     0.593 C  
BRANCH   5   6
HETATM    6  C   UNL     1     -10.257  10.394  66.471  1.00  0.00    -0.229 C  
BRANCH   6   7
HETATM    7  N   UNL     1     -10.039   9.777  67.802  1.00  0.00    -0.169 NA 
HETATM    8  C   UNL     1     -10.380  10.691  68.901  1.00  0.00    -0.207 C  
HETATM    9  C   UNL     1      -8.683   9.243  68.010  1.00  0.00    -0.125 C  
HETATM   10  C   UNL     1      -7.938  11.346  69.156  1.00  0.00     0.055 C  
HETATM   11  C   UNL     1      -7.622  10.339  68.045  1.00  0.00    -0.088 C  
HETATM   12  C   UNL     1      -9.385  11.841  69.064  1.00  0.00     0.194 C  
BRANCH  10  13
HETATM   13  O   UNL     1      -7.767  10.712  70.440  1.00  0.00     0.098 OA 
BRANCH  13  14
HETATM   14  C   UNL     1      -8.673   9.736  70.721  1.00  0.00     0.332 C  
HETATM   15  H   UNL     1      -9.993  10.874  69.601  1.00  0.00     0.000 HD 
HETATM   16  O   UNL     1      -8.403   8.675  71.260  1.00  0.00    -0.139 OA 
HETATM   17  N   UNL     1      -9.909  10.151  70.315  1.00  0.00    -0.083 N  
BRANCH  17  18
HETATM   18  C   UNL     1     -11.068   9.582  70.880  1.00  0.00    -0.336 A  
HETATM   19  C   UNL     1     -11.578   8.343  70.432  1.00  0.00    -0.066 A  
HETATM   20  C   UNL     1     -12.811   9.804  72.553  1.00  0.00    -0.112 A  
HETATM   21  C   UNL     1     -12.728   7.873  71.105  1.00  0.00    -0.175 A  
HETATM   22  C   UNL     1     -13.328   8.581  72.155  1.00  0.00    -0.382 A  
HETATM   23  C   UNL     1     -11.689  10.310  71.910  1.00  0.00     0.477 A  
BRANCH  19  24
HETATM   24  C   UNL     1     -10.978   7.516  69.340  1.00  0.00    -0.099 A  
HETATM   25  C   UNL     1     -10.000   6.534  69.581  1.00  0.00    -0.186 A  
HETATM   26  C   UNL     1      -9.434   5.781  68.543  1.00  0.00    -0.141 A  
HETATM   27  C   UNL     1      -9.806   6.016  67.225  1.00  0.00    -0.155 A  
HETATM   28  C   UNL     1     -10.761   6.987  66.949  1.00  0.00    -0.376 A  
HETATM   29  C   UNL     1     -11.347   7.712  67.992  1.00  0.00     0.636 A  
ENDBRANCH  19  24
ENDBRANCH  17  18
ENDBRANCH  13  14
ENDBRANCH  10  13
ENDBRANCH   6   7
ENDBRANCH   5   6
ENDBRANCH   2   5
BRANCH   4  30
HETATM   30  C   UNL     1      -9.927  11.758  64.055  1.00  0.00    -0.320 A  
HETATM   31  C   UNL     1      -9.673  10.582  64.777  1.00  0.00    -0.365 A  
HETATM   32  C   UNL     1      -9.151  12.021  62.923  1.00  0.00     0.778 A  
HETATM   33  C   UNL     1      -8.267  11.064  62.424  1.00  0.00    -0.246 A  
HETATM   34  C   UNL     1      -8.737   9.648  64.317  1.00  0.00    -0.229 A  
HETATM   35  C   UNL     1      -8.054   9.865  63.114  1.00  0.00    -0.151 A  
BRANCH  35  36
HETATM   36  C   UNL     1      -7.070   8.849  62.572  1.00  0.00    -0.095 C  
BRANCH  36  37
HETATM   37  N   UNL     1      -7.429   7.467  62.926  1.00  0.00    -0.098 NA 
HETATM   38  C   UNL     1      -7.878   7.343  64.316  1.00  0.00    -0.127 C  
HETATM   39  C   UNL     1      -6.371   6.492  62.622  1.00  0.00    -0.031 C  
HETATM   40  C   UNL     1      -5.183   6.554  63.587  1.00  0.00    -0.026 C  
HETATM   41  C   UNL     1      -6.745   7.443  65.341  1.00  0.00    -0.048 C  
HETATM   42  C   UNL     1      -5.630   6.432  65.048  1.00  0.00    -0.022 C  
BRANCH  42  43
HETATM   43  C   UNL     1      -6.053   5.001  65.382  1.00  0.00    -0.033 C  
HETATM   44  N   UNL     1      -5.342   4.017  64.762  1.00  0.00    -0.009 N  
HETATM   45  H2  UNL     1      -4.578   4.222  64.118  1.00  0.00     0.000 HD 
HETATM   46  O   UNL     1      -6.985   4.703  66.122  1.00  0.00    -0.063 OA 
HETATM   47  H1  UNL     1      -5.625   3.062  64.985  1.00  0.00     0.000 HD 
ENDBRANCH  42  43
ENDBRANCH  36  37
ENDBRANCH  35  36
ENDBRANCH   4  30
TORSDOF 11
ENDMDL
MODEL      259
REMARK 921   NORMALIZED FREE ENERGY PREDICTED BY IDOCK:   13.52 KCAL/MOL
REMARK 922        TOTAL FREE ENERGY PREDICTED BY IDOCK:   20.58 KCAL/MOL
REMARK 923 INTER-LIGAND FREE ENERGY PREDICTED BY IDOCK:   -1.70 KCAL/MOL
REMARK 924 INTRA-LIGAND FREE ENERGY PREDICTED BY IDOCK:   22.28 KCAL/MOL
REMARK 927      BINDING AFFINITY PREDICTED BY RF-SCORE:    0.00 PKD
ROOT
HETATM    1  C   UNL     1      -8.206   2.629  66.317  1.00  0.00    -0.087 C  
HETATM    2  N   UNL     1      -7.945   4.046  66.522  1.00  0.00    -0.097 N  
HETATM    3  O   UNL     1      -6.504   3.991  64.717  1.00  0.00    -0.039 OA 
HETATM    4  C   UNL     1      -7.070   4.651  65.591  1.00  0.00    -0.067 C  
ENDROOT
BRANCH   2   5
HETATM    5  C   UNL     1      -8.787   4.826  67.429  1.00  0.00    -0.104 C  
BRANCH   5   6
HETATM    6  C   UNL     1      -9.430   4.189  68.672  1.00  0.00    -0.156 C  
BRANCH   6   7
HETATM    7  N   UNL     1      -8.461   4.104  69.792  1.00  0.00    -0.060 NA 
HETATM    8  C   UNL     1      -8.260   5.401  70.454  1.00  0.00    -0.105 C  
HETATM    9  C   UNL     1      -7.154   3.534  69.422  1.00  0.00    -0.042 C  
HETATM   10  C   UNL     1      -6.160   5.812  69.084  1.00  0.00    -0.024 C  
HETATM   11  C   UNL     1      -6.377   4.429  68.461  1.00  0.00    -0.036 C  
HETATM   12  C   UNL     1      -7.475   6.401  69.603  1.00  0.00    -0.085 C  
BRANCH  10  13
HETATM   13  O   UNL     1      -5.254   5.699  70.199  1.00  0.00    -0.004 OA 
BRANCH  13  14
HETATM   14  C   UNL     1      -5.849   5.702  71.422  1.00  0.00    -0.025 C  
HETATM   15  H   UNL     1      -7.610   6.014  70.376  1.00  0.00     0.000 HD 
HETATM   16  O   UNL     1      -5.291   5.403  72.466  1.00  0.00    -0.016 OA 
HETATM   17  N   UNL     1      -7.147   6.103  71.280  1.00  0.00    -0.075 N  
BRANCH  17  18
HETATM   18  C   UNL     1      -7.848   6.639  72.380  1.00  0.00    -0.099 A  
HETATM   19  C   UNL     1      -8.520   5.809  73.305  1.00  0.00    -0.116 A  
HETATM   20  C   UNL     1      -8.469   8.650  73.586  1.00  0.00     0.155 A  
HETATM   21  C   UNL     1      -9.156   6.474  74.377  1.00  0.00    -0.206 A  
HETATM   22  C   UNL     1      -9.122   7.867  74.525  1.00  0.00     0.441 A  
HETATM   23  C   UNL     1      -7.841   8.039  72.509  1.00  0.00    -0.163 A  
BRANCH  19  24
HETATM   24  C   UNL     1      -8.576   4.317  73.231  1.00  0.00    -0.093 A  
HETATM   25  C   UNL     1      -7.708   3.486  73.963  1.00  0.00    -0.066 A  
HETATM   26  C   UNL     1      -7.761   2.089  73.866  1.00  0.00    -0.041 A  
HETATM   27  C   UNL     1      -8.666   1.482  73.004  1.00  0.00    -0.061 A  
HETATM   28  C   UNL     1      -9.532   2.271  72.257  1.00  0.00    -0.167 A  
HETATM   29  C   UNL     1      -9.496   3.664  72.382  1.00  0.00    -0.185 A  
ENDBRANCH  19  24
ENDBRANCH  17  18
ENDBRANCH  13  14
ENDBRANCH  10  13
ENDBRANCH   6   7
ENDBRANCH   5   6
ENDBRANCH   2   5
BRANCH   4  30
HETATM   30  C   UNL     1      -6.870   6.138  65.564  1.00  0.00    -0.052 A  
HETATM   31  C   UNL     1      -6.460   6.723  64.356  1.00  0.00    -0.038 A  
HETATM   32  C   UNL     1      -7.068   6.971  66.669  1.00  0.00    -0.078 A  
HETATM   33  C   UNL     1      -7.029   8.359  66.534  1.00  0.00    -0.071 A  
HETATM   34  C   UNL     1      -6.354   8.114  64.234  1.00  0.00    -0.065 A  
HETATM   35  C   UNL     1      -6.675   8.945  65.313  1.00  0.00    -0.068 A  
BRANCH  35  36
HETATM   36  C   UNL     1      -6.611  10.454  65.193  1.00  0.00    -0.090 C  
BRANCH  36  37
HETATM   37  N   UNL     1      -6.654  11.129  66.499  1.00  0.00    -0.131 NA 
HETATM   38  C   UNL     1      -7.144  10.253  67.568  1.00  0.00    -0.086 C  
HETATM   39  C   UNL     1      -7.395  12.400  66.475  1.00  0.00     0.579 C  
HETATM   40  C   UNL     1      -8.914  12.224  66.384  1.00  0.00    -0.117 C  
HETATM   41  C   UNL     1      -8.652   9.995  67.511  1.00  0.00    -0.122 C  
HETATM   42  C   UNL     1      -9.447  11.306  67.490  1.00  0.00    -0.177 C  
BRANCH  42  43
HETATM   43  C   UNL     1      -9.432  12.005  68.850  1.00  0.00     0.148 C  
HETATM   44  N   UNL     1     -10.407  11.622  69.720  1.00  0.00    -0.094 N  
HETATM   45  H2  UNL     1     -11.101  10.914  69.481  1.00  0.00     0.000 HD 
HETATM   46  O   UNL     1      -8.640  12.885  69.173  1.00  0.00     0.391 OA 
HETATM   47  H1  UNL     1     -10.396  12.088  70.628  1.00  0.00     0.000 HD 
ENDBRANCH  42  43
ENDBRANCH  36  37
ENDBRANCH  35  36
ENDBRANCH   4  30
TORSDOF 11
ENDMDL
MODEL      260
REMARK 921   NORMALIZED FREE ENERGY PREDICTED BY IDOCK:   13.54 KCAL/MOL
REMARK 922        TOTAL FREE ENERGY PREDICTED BY IDOCK:   20.61 KCAL/MOL
REMARK 923 INTER-LIGAND FREE ENERGY PREDICTED BY IDOCK:    5.61 KCAL/MOL
REMARK 924 INTRA-LIGAND FREE ENERGY PREDICTED BY IDOCK:   15.00 KCAL/MOL
REMARK 927      BINDING AFFINITY PREDICTED BY RF-SCORE:    0.00 PKD
ROOT
HETATM    1  C   UNL     1     -11.388  16.464  70.065  1.00  0.00    -0.175 C  
HETATM    2  N   UNL     1     -11.114  15.655  68.887  1.00  0.00    -0.270 N  
HETATM    3  O   UNL     1     -13.247  16.118  68.132  1.00  0.00     2.679 OA 
HETATM    4  C   UNL     1     -12.153  15.589  67.930  1.00  0.00     0.323 C  
ENDROOT
BRANCH   2   5
HETATM    5  C   UNL     1      -9.747  15.222  68.592  1.00  0.00    -0.212 C  
BRANCH   5   6
HETATM    6  C   UNL     1      -9.178  15.285  67.166  1.00  0.00    -0.209 C  
BRANCH   6   7
HETATM    7  N   UNL     1      -8.252  14.155  66.908  1.00  0.00    -0.062 NA 
HETATM    8  C   UNL     1      -8.892  12.850  67.130  1.00  0.00    -0.210 C  
HETATM    9  C   UNL     1      -6.991  14.219  67.665  1.00  0.00    -0.184 C  
HETATM   10  C   UNL     1      -7.894  12.723  69.464  1.00  0.00     0.987 C  
HETATM   11  C   UNL     1      -7.201  14.056  69.167  1.00  0.00    -0.059 C  
HETATM   12  C   UNL     1      -9.152  12.546  68.607  1.00  0.00     0.038 C  
BRANCH  10  13
HETATM   13  O   UNL     1      -6.996  11.637  69.161  1.00  0.00    -0.106 OA 
BRANCH  13  14
HETATM   14  C   UNL     1      -6.712  10.820  70.211  1.00  0.00    -0.045 C  
HETATM   15  H   UNL     1      -5.957   9.525  68.780  1.00  0.00     0.000 HD 
HETATM   16  O   UNL     1      -6.810  11.140  71.385  1.00  0.00     1.425 OA 
HETATM   17  N   UNL     1      -6.320   9.603  69.730  1.00  0.00    -0.044 N  
BRANCH  17  18
HETATM   18  C   UNL     1      -6.417   8.455  70.542  1.00  0.00    -0.036 A  
HETATM   19  C   UNL     1      -6.382   7.154  69.992  1.00  0.00    -0.031 A  
HETATM   20  C   UNL     1      -6.607   7.597  72.803  1.00  0.00    -0.063 A  
HETATM   21  C   UNL     1      -6.458   6.092  70.921  1.00  0.00    -0.045 A  
HETATM   22  C   UNL     1      -6.555   6.306  72.302  1.00  0.00    -0.063 A  
HETATM   23  C   UNL     1      -6.548   8.671  71.925  1.00  0.00    -0.079 A  
BRANCH  19  24
HETATM   24  C   UNL     1      -6.251   6.846  68.534  1.00  0.00    -0.031 A  
HETATM   25  C   UNL     1      -5.258   7.423  67.722  1.00  0.00    -0.025 A  
HETATM   26  C   UNL     1      -5.161   7.138  66.353  1.00  0.00    -0.023 A  
HETATM   27  C   UNL     1      -6.082   6.291  65.749  1.00  0.00    -0.033 A  
HETATM   28  C   UNL     1      -7.084   5.712  66.518  1.00  0.00    -0.072 A  
HETATM   29  C   UNL     1      -7.155   5.974  67.891  1.00  0.00    -0.074 A  
ENDBRANCH  19  24
ENDBRANCH  17  18
ENDBRANCH  13  14
ENDBRANCH  10  13
ENDBRANCH   6   7
ENDBRANCH   5   6
ENDBRANCH   2   5
BRANCH   4  30
HETATM   30  C   UNL     1     -11.934  14.957  66.586  1.00  0.00    -0.094 A  
HETATM   31  C   UNL     1     -10.653  15.047  66.021  1.00  0.00    -0.329 A  
HETATM   32  C   UNL     1     -12.929  14.287  65.870  1.00  0.00    -0.059 A  
HETATM   33  C   UNL     1     -12.619  13.579  64.708  1.00  0.00    -0.351 A  
HETATM   34  C   UNL     1     -10.354  14.393  64.819  1.00  0.00    -0.352 A  
HETATM   35  C   UNL     1     -11.327  13.621  64.173  1.00  0.00    -0.330 A  
BRANCH  35  36
HETATM   36  C   UNL     1     -11.016  12.868  62.895  1.00  0.00     1.376 C  
BRANCH  36  37
HETATM   37  N   UNL     1      -9.979  11.842  63.081  1.00  0.00    -0.400 NA 
HETATM   38  C   UNL     1     -10.538  10.490  63.176  1.00  0.00     0.675 C  
HETATM   39  C   UNL     1      -9.076  12.121  64.208  1.00  0.00     0.708 C  
HETATM   40  C   UNL     1      -9.716  11.891  65.580  1.00  0.00    -0.248 C  
HETATM   41  C   UNL     1     -11.236  10.204  64.508  1.00  0.00     2.706 C  
HETATM   42  C   UNL     1     -10.313  10.484  65.700  1.00  0.00    -0.274 C  
BRANCH  42  43
HETATM   43  C   UNL     1      -9.218   9.425  65.836  1.00  0.00    -0.213 C  
HETATM   44  N   UNL     1      -9.098   8.564  64.786  1.00  0.00    -0.377 N  
HETATM   45  H2  UNL     1      -9.699   8.623  63.964  1.00  0.00     0.000 HD 
HETATM   46  O   UNL     1      -8.493   9.293  66.816  1.00  0.00    -0.124 OA 
HETATM   47  H1  UNL     1      -8.367   7.858  64.877  1.00  0.00     0.000 HD 
ENDBRANCH  42  43
ENDBRANCH  36  37
ENDBRANCH  35  36
ENDBRANCH   4  30
TORSDOF 11
ENDMDL
MODEL      261
REMARK 921   NORMALIZED FREE ENERGY PREDICTED BY IDOCK:   14.18 KCAL/MOL
REMARK 922        TOTAL FREE ENERGY PREDICTED BY IDOCK:   21.67 KCAL/MOL
REMARK 923 INTER-LIGAND FREE ENERGY PREDICTED BY IDOCK:    5.54 KCAL/MOL
REMARK 924 INTRA-LIGAND FREE ENERGY PREDICTED BY IDOCK:   16.12 KCAL/MOL
REMARK 927      BINDING AFFINITY PREDICTED BY RF-SCORE:    0.00 PKD
ROOT
HETATM    1  C   UNL     1     -11.395  16.473  70.061  1.00  0.00    -0.051 C  
HETATM    2  N   UNL     1     -11.090  15.691  68.873  1.00  0.00    -0.270 N  
HETATM    3  O   UNL     1     -13.197  16.185  68.065  1.00  0.00     2.878 OA 
HETATM    4  C   UNL     1     -12.099  15.655  67.884  1.00  0.00     0.396 C  
ENDROOT
BRANCH   2   5
HETATM    5  C   UNL     1      -9.717  15.258  68.609  1.00  0.00    -0.212 C  
BRANCH   5   6
HETATM    6  C   UNL     1      -9.110  15.335  67.198  1.00  0.00    -0.210 C  
BRANCH   6   7
HETATM    7  N   UNL     1      -8.190  14.199  66.948  1.00  0.00    -0.062 NA 
HETATM    8  C   UNL     1      -8.853  12.899  67.120  1.00  0.00    -0.210 C  
HETATM    9  C   UNL     1      -6.954  14.231  67.748  1.00  0.00    -0.177 C  
HETATM   10  C   UNL     1      -7.936  12.710  69.483  1.00  0.00     1.112 C  
HETATM   11  C   UNL     1      -7.217  14.040  69.238  1.00  0.00    -0.016 C  
HETATM   12  C   UNL     1      -9.166  12.566  68.581  1.00  0.00     0.025 C  
BRANCH  10  13
HETATM   13  O   UNL     1      -7.041  11.619  69.188  1.00  0.00    -0.113 OA 
BRANCH  13  14
HETATM   14  C   UNL     1      -6.803  10.777  70.229  1.00  0.00     0.034 C  
HETATM   15  H   UNL     1      -6.008   9.506  68.798  1.00  0.00     0.000 HD 
HETATM   16  O   UNL     1      -6.941  11.072  71.405  1.00  0.00     1.539 OA 
HETATM   17  N   UNL     1      -6.405   9.567  69.735  1.00  0.00    -0.043 N  
BRANCH  17  18
HETATM   18  C   UNL     1      -6.542   8.402  70.518  1.00  0.00    -0.036 A  
HETATM   19  C   UNL     1      -7.783   8.033  71.085  1.00  0.00    -0.087 A  
HETATM   20  C   UNL     1      -5.436   6.442  71.424  1.00  0.00    -0.027 A  
HETATM   21  C   UNL     1      -7.787   6.827  71.821  1.00  0.00    -0.101 A  
HETATM   22  C   UNL     1      -6.640   6.037  71.978  1.00  0.00    -0.062 A  
HETATM   23  C   UNL     1      -5.383   7.628  70.703  1.00  0.00    -0.023 A  
BRANCH  19  24
HETATM   24  C   UNL     1      -9.054   8.807  70.937  1.00  0.00    -0.256 A  
HETATM   25  C   UNL     1      -9.456   9.382  69.718  1.00  0.00    -0.216 A  
HETATM   26  C   UNL     1     -10.642  10.120  69.602  1.00  0.00    -0.286 A  
HETATM   27  C   UNL     1     -11.443  10.335  70.715  1.00  0.00    -0.438 A  
HETATM   28  C   UNL     1     -11.071   9.792  71.939  1.00  0.00     0.380 A  
HETATM   29  C   UNL     1      -9.904   9.028  72.042  1.00  0.00    -0.198 A  
ENDBRANCH  19  24
ENDBRANCH  17  18
ENDBRANCH  13  14
ENDBRANCH  10  13
ENDBRANCH   6   7
ENDBRANCH   5   6
ENDBRANCH   2   5
BRANCH   4  30
HETATM   30  C   UNL     1     -11.843  15.055  66.532  1.00  0.00    -0.052 A  
HETATM   31  C   UNL     1     -10.546  15.158  66.004  1.00  0.00    -0.329 A  
HETATM   32  C   UNL     1     -12.817  14.402  65.772  1.00  0.00    -0.179 A  
HETATM   33  C   UNL     1     -12.475  13.721  64.603  1.00  0.00    -0.356 A  
HETATM   34  C   UNL     1     -10.214  14.533  64.796  1.00  0.00    -0.234 A  
HETATM   35  C   UNL     1     -11.168  13.777  64.105  1.00  0.00    -0.238 A  
BRANCH  35  36
HETATM   36  C   UNL     1     -10.821  13.054  62.819  1.00  0.00     2.463 C  
BRANCH  36  37
HETATM   37  N   UNL     1      -9.774  12.038  63.005  1.00  0.00    -0.307 NA 
HETATM   38  C   UNL     1     -10.319  10.678  63.080  1.00  0.00     0.212 C  
HETATM   39  C   UNL     1      -8.887  12.315  64.145  1.00  0.00     1.403 C  
HETATM   40  C   UNL     1      -9.539  12.063  65.507  1.00  0.00    -0.174 C  
HETATM   41  C   UNL     1     -11.028  10.371  64.401  1.00  0.00     1.095 C  
HETATM   42  C   UNL     1     -10.121  10.648  65.606  1.00  0.00    -0.335 C  
BRANCH  42  43
HETATM   43  C   UNL     1      -9.015   9.600  65.742  1.00  0.00    -0.169 C  
HETATM   44  N   UNL     1      -8.874   8.753  64.685  1.00  0.00    -0.407 N  
HETATM   45  H2  UNL     1      -9.466   8.814  63.857  1.00  0.00     0.000 HD 
HETATM   46  O   UNL     1      -8.300   9.465  66.729  1.00  0.00    -0.121 OA 
HETATM   47  H1  UNL     1      -8.136   8.054  64.776  1.00  0.00     0.000 HD 
ENDBRANCH  42  43
ENDBRANCH  36  37
ENDBRANCH  35  36
ENDBRANCH   4  30
TORSDOF 11
ENDMDL
MODEL      262
REMARK 921   NORMALIZED FREE ENERGY PREDICTED BY IDOCK:   14.70 KCAL/MOL
REMARK 922        TOTAL FREE ENERGY PREDICTED BY IDOCK:   22.52 KCAL/MOL
REMARK 923 INTER-LIGAND FREE ENERGY PREDICTED BY IDOCK:   12.85 KCAL/MOL
REMARK 924 INTRA-LIGAND FREE ENERGY PREDICTED BY IDOCK:    9.67 KCAL/MOL
REMARK 927      BINDING AFFINITY PREDICTED BY RF-SCORE:    0.00 PKD
ROOT
HETATM    1  C   UNL     1      -8.252  15.343  65.933  1.00  0.00     1.227 C  
HETATM    2  N   UNL     1      -8.039  13.912  65.771  1.00  0.00     2.498 N  
HETATM    3  O   UNL     1      -5.907  14.184  66.620  1.00  0.00     1.293 OA 
HETATM    4  C   UNL     1      -6.786  13.424  66.208  1.00  0.00     3.595 C  
ENDROOT
BRANCH   2   5
HETATM    5  C   UNL     1      -9.167  13.027  65.479  1.00  0.00     0.462 C  
BRANCH   5   6
HETATM    6  C   UNL     1      -9.167  11.556  65.925  1.00  0.00    -0.210 C  
BRANCH   6   7
HETATM    7  N   UNL     1      -9.785  11.402  67.264  1.00  0.00    -0.184 NA 
HETATM    8  C   UNL     1     -10.850  12.387  67.501  1.00  0.00    -0.236 C  
HETATM    9  C   UNL     1      -8.827  11.435  68.382  1.00  0.00    -0.167 C  
HETATM   10  C   UNL     1      -9.231  13.880  68.768  1.00  0.00    -0.012 C  
HETATM   11  C   UNL     1      -8.167  12.801  68.546  1.00  0.00    -0.068 C  
HETATM   12  C   UNL     1     -10.326  13.811  67.700  1.00  0.00    -0.239 C  
BRANCH  10  13
HETATM   13  O   UNL     1      -9.852  13.684  70.053  1.00  0.00     1.376 OA 
BRANCH  13  14
HETATM   14  C   UNL     1     -10.824  14.584  70.362  1.00  0.00     0.185 C  
HETATM   15  H   UNL     1     -10.038  14.520  72.278  1.00  0.00     0.000 HD 
HETATM   16  O   UNL     1     -11.545  15.134  69.545  1.00  0.00    -0.280 OA 
HETATM   17  N   UNL     1     -10.859  14.749  71.718  1.00  0.00     0.593 N  
BRANCH  17  18
HETATM   18  C   UNL     1     -12.025  15.234  72.343  1.00  0.00    -0.419 A  
HETATM   19  C   UNL     1     -13.185  14.436  72.467  1.00  0.00    -0.558 A  
HETATM   20  C   UNL     1     -13.063  17.092  73.508  1.00  0.00     1.248 A  
HETATM   21  C   UNL     1     -14.272  15.033  73.143  1.00  0.00     0.973 A  
HETATM   22  C   UNL     1     -14.211  16.331  73.667  1.00  0.00     1.483 A  
HETATM   23  C   UNL     1     -11.974  16.548  72.839  1.00  0.00    -0.486 A  
BRANCH  19  24
HETATM   24  C   UNL     1     -13.316  13.035  71.962  1.00  0.00    -0.588 A  
HETATM   25  C   UNL     1     -13.997  12.030  72.673  1.00  0.00     0.788 A  
HETATM   26  C   UNL     1     -14.094  10.717  72.194  1.00  0.00     0.613 A  
HETATM   27  C   UNL     1     -13.478  10.362  71.000  1.00  0.00    -0.111 A  
HETATM   28  C   UNL     1     -12.787  11.325  70.275  1.00  0.00    -0.060 A  
HETATM   29  C   UNL     1     -12.722  12.642  70.743  1.00  0.00    -0.213 A  
ENDBRANCH  19  24
ENDBRANCH  17  18
ENDBRANCH  13  14
ENDBRANCH  10  13
ENDBRANCH   6   7
ENDBRANCH   5   6
ENDBRANCH   2   5
BRANCH   4  30
HETATM   30  C   UNL     1      -6.508  11.951  66.284  1.00  0.00     0.578 A  
HETATM   31  C   UNL     1      -6.551  11.213  65.091  1.00  0.00     0.624 A  
HETATM   32  C   UNL     1      -6.210  11.275  67.470  1.00  0.00    -0.064 A  
HETATM   33  C   UNL     1      -5.797   9.942  67.449  1.00  0.00    -0.050 A  
HETATM   34  C   UNL     1      -6.202   9.857  65.075  1.00  0.00    -0.102 A  
HETATM   35  C   UNL     1      -5.785   9.221  66.250  1.00  0.00    -0.053 A  
BRANCH  35  36
HETATM   36  C   UNL     1      -5.360   7.766  66.251  1.00  0.00    -0.025 C  
BRANCH  36  37
HETATM   37  N   UNL     1      -6.066   6.970  67.267  1.00  0.00    -0.038 NA 
HETATM   38  C   UNL     1      -5.401   5.691  67.538  1.00  0.00    -0.005 C  
HETATM   39  C   UNL     1      -7.492   6.772  66.967  1.00  0.00    -0.087 C  
HETATM   40  C   UNL     1      -7.750   5.773  65.836  1.00  0.00    -0.092 C  
HETATM   41  C   UNL     1      -5.579   4.657  66.424  1.00  0.00    -0.014 C  
HETATM   42  C   UNL     1      -7.059   4.429  66.096  1.00  0.00    -0.071 C  
BRANCH  42  43
HETATM   43  C   UNL     1      -7.773   3.641  67.194  1.00  0.00    -0.079 C  
HETATM   44  N   UNL     1      -8.754   2.796  66.769  1.00  0.00    -0.114 N  
HETATM   45  H2  UNL     1      -8.997   2.697  65.783  1.00  0.00     0.000 HD 
HETATM   46  O   UNL     1      -7.543   3.749  68.394  1.00  0.00    -0.061 OA 
HETATM   47  H1  UNL     1      -9.231   2.270  67.502  1.00  0.00     0.000 HD 
ENDBRANCH  42  43
ENDBRANCH  36  37
ENDBRANCH  35  36
ENDBRANCH   4  30
TORSDOF 11
ENDMDL
MODEL      263
REMARK 921   NORMALIZED FREE ENERGY PREDICTED BY IDOCK:   14.97 KCAL/MOL
REMARK 922        TOTAL FREE ENERGY PREDICTED BY IDOCK:   22.97 KCAL/MOL
REMARK 923 INTER-LIGAND FREE ENERGY PREDICTED BY IDOCK:    9.98 KCAL/MOL
REMARK 924 INTRA-LIGAND FREE ENERGY PREDICTED BY IDOCK:   12.98 KCAL/MOL
REMARK 927      BINDING AFFINITY PREDICTED BY RF-SCORE:    0.00 PKD
ROOT
HETATM    1  C   UNL     1      -5.925  12.446  65.850  1.00  0.00     2.909 C  
HETATM    2  N   UNL     1      -6.479  12.091  67.148  1.00  0.00    -0.148 N  
HETATM    3  O   UNL     1      -7.454  10.238  66.171  1.00  0.00    -0.109 OA 
HETATM    4  C   UNL     1      -7.224  10.890  67.191  1.00  0.00    -0.104 C  
ENDROOT
BRANCH   2   5
HETATM    5  C   UNL     1      -6.014  12.770  68.358  1.00  0.00    -0.068 C  
BRANCH   5   6
HETATM    6  C   UNL     1      -6.890  12.849  69.618  1.00  0.00     0.179 C  
BRANCH   6   7
HETATM    7  N   UNL     1      -8.330  12.904  69.267  1.00  0.00     0.649 NA 
HETATM    8  C   UNL     1      -8.610  13.899  68.222  1.00  0.00    -0.177 C  
HETATM    9  C   UNL     1      -9.227  13.129  70.413  1.00  0.00     5.234 C  
HETATM   10  C   UNL     1      -9.299  15.599  69.982  1.00  0.00     0.210 C  
HETATM   11  C   UNL     1      -9.049  14.512  71.032  1.00  0.00     3.517 C  
HETATM   12  C   UNL     1      -8.482  15.344  68.711  1.00  0.00    -0.188 C  
BRANCH  10  13
HETATM   13  O   UNL     1     -10.694  15.603  69.619  1.00  0.00    -0.232 OA 
BRANCH  13  14
HETATM   14  C   UNL     1     -11.406  14.538  70.075  1.00  0.00    -0.224 C  
HETATM   15  H   UNL     1      -9.745  13.417  69.551  1.00  0.00     0.000 HD 
HETATM   16  O   UNL     1     -12.469  14.618  70.671  1.00  0.00    -0.305 OA 
HETATM   17  N   UNL     1     -10.746  13.390  69.743  1.00  0.00     0.345 N  
BRANCH  17  18
HETATM   18  C   UNL     1     -11.444  12.167  69.665  1.00  0.00    -0.238 A  
HETATM   19  C   UNL     1     -11.879  11.642  68.427  1.00  0.00    -0.346 A  
HETATM   20  C   UNL     1     -12.324  10.268  70.890  1.00  0.00    -0.471 A  
HETATM   21  C   UNL     1     -12.539  10.394  68.488  1.00  0.00     2.072 A  
HETATM   22  C   UNL     1     -12.747   9.711  69.694  1.00  0.00     1.235 A  
HETATM   23  C   UNL     1     -11.681  11.499  70.878  1.00  0.00     0.169 A  
BRANCH  19  24
HETATM   24  C   UNL     1     -11.668  12.296  67.099  1.00  0.00    -0.396 A  
HETATM   25  C   UNL     1     -12.412  13.413  66.676  1.00  0.00    -0.212 A  
HETATM   26  C   UNL     1     -12.215  14.002  65.419  1.00  0.00    -0.453 A  
HETATM   27  C   UNL     1     -11.288  13.466  64.534  1.00  0.00    -0.391 A  
HETATM   28  C   UNL     1     -10.543  12.357  64.914  1.00  0.00    -0.326 A  
HETATM   29  C   UNL     1     -10.721  11.793  66.182  1.00  0.00    -0.320 A  
ENDBRANCH  19  24
ENDBRANCH  17  18
ENDBRANCH  13  14
ENDBRANCH  10  13
ENDBRANCH   6   7
ENDBRANCH   5   6
ENDBRANCH   2   5
BRANCH   4  30
HETATM   30  C   UNL     1      -7.681  10.305  68.496  1.00  0.00    -0.091 A  
HETATM   31  C   UNL     1      -6.701   9.835  69.383  1.00  0.00    -0.055 A  
HETATM   32  C   UNL     1      -9.022  10.203  68.876  1.00  0.00    -0.155 A  
HETATM   33  C   UNL     1      -9.371   9.806  70.168  1.00  0.00    -0.261 A  
HETATM   34  C   UNL     1      -7.052   9.371  70.657  1.00  0.00    -0.127 A  
HETATM   35  C   UNL     1      -8.388   9.390  71.073  1.00  0.00    -0.028 A  
BRANCH  35  36
HETATM   36  C   UNL     1      -8.788   8.936  72.462  1.00  0.00     0.313 C  
BRANCH  36  37
HETATM   37  N   UNL     1      -9.853   7.922  72.442  1.00  0.00    -0.203 NA 
HETATM   38  C   UNL     1     -10.089   7.330  73.763  1.00  0.00    -0.329 C  
HETATM   39  C   UNL     1      -9.649   6.880  71.424  1.00  0.00    -0.166 C  
HETATM   40  C   UNL     1      -8.544   5.882  71.780  1.00  0.00    -0.131 C  
HETATM   41  C   UNL     1      -8.995   6.354  74.204  1.00  0.00    -0.161 C  
HETATM   42  C   UNL     1      -8.767   5.254  73.160  1.00  0.00    -0.120 C  
BRANCH  42  43
HETATM   43  C   UNL     1      -9.915   4.244  73.133  1.00  0.00    -0.142 C  
HETATM   44  N   UNL     1     -11.014   4.622  72.423  1.00  0.00    -0.067 N  
HETATM   45  H2  UNL     1     -11.068   5.520  71.941  1.00  0.00     0.000 HD 
HETATM   46  O   UNL     1      -9.912   3.168  73.722  1.00  0.00    -0.102 OA 
HETATM   47  H1  UNL     1     -11.780   3.948  72.404  1.00  0.00     0.000 HD 
ENDBRANCH  42  43
ENDBRANCH  36  37
ENDBRANCH  35  36
ENDBRANCH   4  30
TORSDOF 11
ENDMDL
MODEL      264
REMARK 921   NORMALIZED FREE ENERGY PREDICTED BY IDOCK:   15.35 KCAL/MOL
REMARK 922        TOTAL FREE ENERGY PREDICTED BY IDOCK:   23.58 KCAL/MOL
REMARK 923 INTER-LIGAND FREE ENERGY PREDICTED BY IDOCK:   15.18 KCAL/MOL
REMARK 924 INTRA-LIGAND FREE ENERGY PREDICTED BY IDOCK:    8.40 KCAL/MOL
REMARK 927      BINDING AFFINITY PREDICTED BY RF-SCORE:    0.00 PKD
ROOT
HETATM    1  C   UNL     1     -11.558  18.290  69.785  1.00  0.00     4.744 C  
HETATM    2  N   UNL     1     -11.182  16.900  69.575  1.00  0.00     0.061 N  
HETATM    3  O   UNL     1     -11.639  16.490  71.802  1.00  0.00    -0.415 OA 
HETATM    4  C   UNL     1     -11.310  16.051  70.698  1.00  0.00    -0.399 C  
ENDROOT
BRANCH   2   5
HETATM    5  C   UNL     1     -11.001  16.383  68.217  1.00  0.00    -0.355 C  
BRANCH   5   6
HETATM    6  C   UNL     1     -12.111  16.504  67.160  1.00  0.00     1.741 C  
BRANCH   6   7
HETATM    7  N   UNL     1     -12.015  15.416  66.157  1.00  0.00     0.324 NA 
HETATM    8  C   UNL     1     -12.873  14.271  66.493  1.00  0.00     0.406 C  
HETATM    9  C   UNL     1     -10.643  14.945  65.902  1.00  0.00    -0.325 C  
HETATM   10  C   UNL     1     -10.899  13.056  67.534  1.00  0.00    -0.247 C  
HETATM   11  C   UNL     1     -10.031  14.247  67.113  1.00  0.00    -0.255 C  
HETATM   12  C   UNL     1     -12.367  13.465  67.690  1.00  0.00    -0.023 C  
BRANCH  10  13
HETATM   13  O   UNL     1     -10.830  12.032  66.522  1.00  0.00    -0.254 OA 
BRANCH  13  14
HETATM   14  C   UNL     1      -9.615  11.901  65.923  1.00  0.00    -0.231 C  
HETATM   15  H   UNL     1     -10.537  10.460  64.754  1.00  0.00     0.000 HD 
HETATM   16  O   UNL     1      -8.664  12.641  66.115  1.00  0.00     0.083 OA 
HETATM   17  N   UNL     1      -9.644  10.811  65.101  1.00  0.00    -0.225 N  
BRANCH  17  18
HETATM   18  C   UNL     1      -8.444  10.171  64.729  1.00  0.00    -0.174 A  
HETATM   19  C   UNL     1      -8.279   8.774  64.863  1.00  0.00    -0.160 A  
HETATM   20  C   UNL     1      -6.225  10.440  63.787  1.00  0.00    -0.068 A  
HETATM   21  C   UNL     1      -7.039   8.258  64.425  1.00  0.00    -0.078 A  
HETATM   22  C   UNL     1      -6.034   9.071  63.884  1.00  0.00    -0.072 A  
HETATM   23  C   UNL     1      -7.425  10.992  64.217  1.00  0.00     0.722 A  
BRANCH  19  24
HETATM   24  C   UNL     1      -9.313   7.839  65.403  1.00  0.00     0.451 A  
HETATM   25  C   UNL     1      -9.557   6.571  64.845  1.00  0.00     1.542 A  
HETATM   26  C   UNL     1     -10.544   5.715  65.352  1.00  0.00     0.990 A  
HETATM   27  C   UNL     1     -11.343   6.120  66.413  1.00  0.00     0.608 A  
HETATM   28  C   UNL     1     -11.139   7.371  66.983  1.00  0.00     0.023 A  
HETATM   29  C   UNL     1     -10.129   8.208  66.494  1.00  0.00    -0.286 A  
ENDBRANCH  19  24
ENDBRANCH  17  18
ENDBRANCH  13  14
ENDBRANCH  10  13
ENDBRANCH   6   7
ENDBRANCH   5   6
ENDBRANCH   2   5
BRANCH   4  30
HETATM   30  C   UNL     1     -11.149  14.564  70.572  1.00  0.00     0.006 A  
HETATM   31  C   UNL     1     -10.052  14.083  69.841  1.00  0.00     0.879 A  
HETATM   32  C   UNL     1     -12.025  13.635  71.140  1.00  0.00    -0.054 A  
HETATM   33  C   UNL     1     -11.727  12.272  71.129  1.00  0.00     1.024 A  
HETATM   34  C   UNL     1      -9.786  12.710  69.771  1.00  0.00     2.042 A  
HETATM   35  C   UNL     1     -10.602  11.796  70.448  1.00  0.00     1.891 A  
BRANCH  35  36
HETATM   36  C   UNL     1     -10.308  10.310  70.424  1.00  0.00    -0.003 C  
BRANCH  36  37
HETATM   37  N   UNL     1     -11.410   9.524  69.847  1.00  0.00    -0.179 NA 
HETATM   38  C   UNL     1     -12.696   9.800  70.496  1.00  0.00     0.003 C  
HETATM   39  C   UNL     1     -11.138   8.079  69.804  1.00  0.00    -0.064 C  
HETATM   40  C   UNL     1     -11.214   7.399  71.174  1.00  0.00    -0.279 C  
HETATM   41  C   UNL     1     -12.824   9.187  71.893  1.00  0.00    -0.466 C  
HETATM   42  C   UNL     1     -12.549   7.679  71.874  1.00  0.00    -0.332 C  
BRANCH  42  43
HETATM   43  C   UNL     1     -13.691   6.897  71.225  1.00  0.00    -0.021 C  
HETATM   44  N   UNL     1     -14.380   6.064  72.055  1.00  0.00     0.230 N  
HETATM   45  H2  UNL     1     -14.149   5.968  73.043  1.00  0.00     0.000 HD 
HETATM   46  O   UNL     1     -13.987   6.951  70.036  1.00  0.00     2.377 OA 
HETATM   47  H1  UNL     1     -15.143   5.542  71.622  1.00  0.00     0.000 HD 
ENDBRANCH  42  43
ENDBRANCH  36  37
ENDBRANCH  35  36
ENDBRANCH   4  30
TORSDOF 11
ENDMDL
MODEL      265
REMARK 921   NORMALIZED FREE ENERGY PREDICTED BY IDOCK:   16.15 KCAL/MOL
REMARK 922        TOTAL FREE ENERGY PREDICTED BY IDOCK:   24.91 KCAL/MOL
REMARK 923 INTER-LIGAND FREE ENERGY PREDICTED BY IDOCK:   -1.97 KCAL/MOL
REMARK 924 INTRA-LIGAND FREE ENERGY PREDICTED BY IDOCK:   26.88 KCAL/MOL
REMARK 927      BINDING AFFINITY PREDICTED BY RF-SCORE:    0.00 PKD
ROOT
HETATM    1  C   UNL     1      -8.205   2.638  66.320  1.00  0.00    -0.087 C  
HETATM    2  N   UNL     1      -7.928   4.057  66.487  1.00  0.00    -0.097 N  
HETATM    3  O   UNL     1      -6.485   3.937  64.686  1.00  0.00    -0.039 OA 
HETATM    4  C   UNL     1      -7.044   4.627  65.541  1.00  0.00    -0.064 C  
ENDROOT
BRANCH   2   5
HETATM    5  C   UNL     1      -8.762   4.871  67.372  1.00  0.00    -0.103 C  
BRANCH   5   6
HETATM    6  C   UNL     1      -9.381   4.285  68.651  1.00  0.00    -0.152 C  
BRANCH   6   7
HETATM    7  N   UNL     1      -8.403   4.279  69.766  1.00  0.00    -0.061 NA 
HETATM    8  C   UNL     1      -8.223   5.614  70.354  1.00  0.00    -0.105 C  
HETATM    9  C   UNL     1      -7.089   3.714  69.418  1.00  0.00    -0.045 C  
HETATM   10  C   UNL     1      -6.140   5.987  68.947  1.00  0.00    -0.031 C  
HETATM   11  C   UNL     1      -6.335   4.568  68.403  1.00  0.00    -0.036 C  
HETATM   12  C   UNL     1      -7.462   6.580  69.443  1.00  0.00    -0.094 C  
BRANCH  10  13
HETATM   13  O   UNL     1      -5.224   5.953  70.059  1.00  0.00    -0.008 OA 
BRANCH  13  14
HETATM   14  C   UNL     1      -5.811   6.017  71.285  1.00  0.00    -0.026 C  
HETATM   15  H   UNL     1      -7.584   6.240  70.237  1.00  0.00     0.000 HD 
HETATM   16  O   UNL     1      -5.240   5.789  72.340  1.00  0.00    -0.017 OA 
HETATM   17  N   UNL     1      -7.116   6.388  71.131  1.00  0.00    -0.075 N  
BRANCH  17  18
HETATM   18  C   UNL     1      -7.818   6.977  72.203  1.00  0.00    -0.092 A  
HETATM   19  C   UNL     1      -9.123   7.493  72.038  1.00  0.00    -0.157 A  
HETATM   20  C   UNL     1      -7.787   7.544  74.561  1.00  0.00    -0.212 A  
HETATM   21  C   UNL     1      -9.723   8.027  73.201  1.00  0.00    -0.341 A  
HETATM   22  C   UNL     1      -9.075   8.041  74.443  1.00  0.00     0.453 A  
HETATM   23  C   UNL     1      -7.154   7.021  73.441  1.00  0.00    -0.073 A  
BRANCH  19  24
HETATM   24  C   UNL     1      -9.889   7.487  70.754  1.00  0.00    -0.178 A  
HETATM   25  C   UNL     1     -10.843   6.501  70.444  1.00  0.00    -0.326 A  
HETATM   26  C   UNL     1     -11.538   6.499  69.227  1.00  0.00    -0.183 A  
HETATM   27  C   UNL     1     -11.271   7.468  68.267  1.00  0.00     0.349 A  
HETATM   28  C   UNL     1     -10.326   8.451  68.535  1.00  0.00    -0.232 A  
HETATM   29  C   UNL     1      -9.659   8.467  69.765  1.00  0.00    -0.170 A  
ENDBRANCH  19  24
ENDBRANCH  17  18
ENDBRANCH  13  14
ENDBRANCH  10  13
ENDBRANCH   6   7
ENDBRANCH   5   6
ENDBRANCH   2   5
BRANCH   4  30
HETATM   30  C   UNL     1      -6.827   6.110  65.475  1.00  0.00    -0.052 A  
HETATM   31  C   UNL     1      -6.426   6.660  64.247  1.00  0.00    -0.038 A  
HETATM   32  C   UNL     1      -7.001   6.973  66.560  1.00  0.00    -0.069 A  
HETATM   33  C   UNL     1      -6.948   8.356  66.390  1.00  0.00    -0.074 A  
HETATM   34  C   UNL     1      -6.305   8.046  64.089  1.00  0.00    -0.062 A  
HETATM   35  C   UNL     1      -6.603   8.907  65.151  1.00  0.00    -0.065 A  
BRANCH  35  36
HETATM   36  C   UNL     1      -6.523  10.412  64.992  1.00  0.00    -0.086 C  
BRANCH  36  37
HETATM   37  N   UNL     1      -6.521  11.119  66.282  1.00  0.00    -0.117 NA 
HETATM   38  C   UNL     1      -6.986  10.273  67.386  1.00  0.00    -0.082 C  
HETATM   39  C   UNL     1      -7.252  12.395  66.249  1.00  0.00     1.203 C  
HETATM   40  C   UNL     1      -8.774  12.230  66.208  1.00  0.00     0.057 C  
HETATM   41  C   UNL     1      -8.497  10.027  67.380  1.00  0.00    -0.121 C  
HETATM   42  C   UNL     1      -9.282  11.344  67.351  1.00  0.00    -0.164 C  
BRANCH  42  43
HETATM   43  C   UNL     1      -9.220  12.077  68.692  1.00  0.00    -0.037 C  
HETATM   44  N   UNL     1     -10.412  12.536  69.167  1.00  0.00    -0.434 N  
HETATM   45  H2  UNL     1     -11.287  12.400  68.661  1.00  0.00     0.000 HD 
HETATM   46  O   UNL     1      -8.190  12.295  69.321  1.00  0.00     0.376 OA 
HETATM   47  H1  UNL     1     -10.371  13.024  70.062  1.00  0.00     0.000 HD 
ENDBRANCH  42  43
ENDBRANCH  36  37
ENDBRANCH  35  36
ENDBRANCH   4  30
TORSDOF 11
ENDMDL
MODEL      266
REMARK 921   NORMALIZED FREE ENERGY PREDICTED BY IDOCK:   16.69 KCAL/MOL
REMARK 922        TOTAL FREE ENERGY PREDICTED BY IDOCK:   25.79 KCAL/MOL
REMARK 923 INTER-LIGAND FREE ENERGY PREDICTED BY IDOCK:    6.43 KCAL/MOL
REMARK 924 INTRA-LIGAND FREE ENERGY PREDICTED BY IDOCK:   19.36 KCAL/MOL
REMARK 927      BINDING AFFINITY PREDICTED BY RF-SCORE:    0.00 PKD
ROOT
HETATM    1  C   UNL     1      -9.498   8.828  68.965  1.00  0.00    -0.160 C  
HETATM    2  N   UNL     1      -8.800  10.089  68.760  1.00  0.00    -0.130 N  
HETATM    3  O   UNL     1     -10.828  11.076  68.262  1.00  0.00    -0.185 OA 
HETATM    4  C   UNL     1      -9.614  11.198  68.439  1.00  0.00    -0.192 C  
ENDROOT
BRANCH   2   5
HETATM    5  C   UNL     1      -7.405  10.235  69.179  1.00  0.00    -0.096 C  
BRANCH   5   6
HETATM    6  C   UNL     1      -6.872   9.543  70.444  1.00  0.00    -0.101 C  
BRANCH   6   7
HETATM    7  N   UNL     1      -6.778   8.075  70.252  1.00  0.00    -0.037 NA 
HETATM    8  C   UNL     1      -5.478   7.669  69.700  1.00  0.00    -0.023 C  
HETATM    9  C   UNL     1      -7.860   7.499  69.437  1.00  0.00    -0.121 C  
HETATM   10  C   UNL     1      -6.460   7.595  67.358  1.00  0.00    -0.058 C  
HETATM   11  C   UNL     1      -7.809   7.963  67.985  1.00  0.00    -0.127 C  
HETATM   12  C   UNL     1      -5.293   8.061  68.233  1.00  0.00    -0.033 C  
BRANCH  10  13
HETATM   13  O   UNL     1      -6.369   6.162  67.225  1.00  0.00    -0.038 OA 
BRANCH  13  14
HETATM   14  C   UNL     1      -7.526   5.490  67.471  1.00  0.00    -0.084 C  
HETATM   15  H   UNL     1      -7.036   4.374  65.795  1.00  0.00     0.000 HD 
HETATM   16  O   UNL     1      -8.207   5.626  68.475  1.00  0.00    -0.105 OA 
HETATM   17  N   UNL     1      -7.792   4.667  66.414  1.00  0.00    -0.098 N  
BRANCH  17  18
HETATM   18  C   UNL     1      -9.108   4.221  66.175  1.00  0.00    -0.133 A  
HETATM   19  C   UNL     1      -9.995   3.933  67.236  1.00  0.00     0.051 A  
HETATM   20  C   UNL     1     -10.782   3.689  64.503  1.00  0.00    -0.064 A  
HETATM   21  C   UNL     1     -11.294   3.524  66.857  1.00  0.00     6.514 A  
HETATM   22  C   UNL     1     -11.687   3.417  65.517  1.00  0.00     5.127 A  
HETATM   23  C   UNL     1      -9.491   4.081  64.830  1.00  0.00    -0.171 A  
BRANCH  19  24
HETATM   24  C   UNL     1      -9.658   4.052  68.688  1.00  0.00    -0.190 A  
HETATM   25  C   UNL     1      -8.810   3.145  69.349  1.00  0.00    -0.154 A  
HETATM   26  C   UNL     1      -8.521   3.261  70.716  1.00  0.00    -0.100 A  
HETATM   27  C   UNL     1      -9.102   4.272  71.470  1.00  0.00    -0.176 A  
HETATM   28  C   UNL     1      -9.954   5.180  70.854  1.00  0.00    -0.280 A  
HETATM   29  C   UNL     1     -10.213   5.079  69.482  1.00  0.00    -0.286 A  
ENDBRANCH  19  24
ENDBRANCH  17  18
ENDBRANCH  13  14
ENDBRANCH  10  13
ENDBRANCH   6   7
ENDBRANCH   5   6
ENDBRANCH   2   5
BRANCH   4  30
HETATM   30  C   UNL     1      -9.053  12.590  68.397  1.00  0.00    -0.135 A  
HETATM   31  C   UNL     1      -7.659  12.733  68.315  1.00  0.00    -0.134 A  
HETATM   32  C   UNL     1      -9.836  13.747  68.435  1.00  0.00    -0.227 A  
HETATM   33  C   UNL     1      -9.267  15.003  68.222  1.00  0.00    -0.184 A  
HETATM   34  C   UNL     1      -7.077  13.998  68.170  1.00  0.00    -0.125 A  
HETATM   35  C   UNL     1      -7.881  15.141  68.084  1.00  0.00    -0.126 A  
BRANCH  35  36
HETATM   36  C   UNL     1      -7.278  16.516  67.882  1.00  0.00    -0.140 C  
BRANCH  36  37
HETATM   37  N   UNL     1      -7.644  17.111  66.588  1.00  0.00    -0.234 NA 
HETATM   38  C   UNL     1      -7.903  18.551  66.686  1.00  0.00    -0.252 C  
HETATM   39  C   UNL     1      -8.757  16.417  65.920  1.00  0.00    -0.099 C  
HETATM   40  C   UNL     1     -10.121  16.684  66.563  1.00  0.00    -0.313 C  
HETATM   41  C   UNL     1      -9.234  18.893  67.362  1.00  0.00    -0.313 C  
HETATM   42  C   UNL     1     -10.411  18.184  66.680  1.00  0.00    -0.387 C  
BRANCH  42  43
HETATM   43  C   UNL     1     -10.735  18.797  65.317  1.00  0.00     0.519 C  
HETATM   44  N   UNL     1     -10.565  20.145  65.223  1.00  0.00    -0.124 N  
HETATM   45  H2  UNL     1     -10.243  20.709  66.009  1.00  0.00     0.000 HD 
HETATM   46  O   UNL     1     -11.156  18.168  64.352  1.00  0.00     0.155 OA 
HETATM   47  H1  UNL     1     -10.781  20.554  64.313  1.00  0.00     0.000 HD 
ENDBRANCH  42  43
ENDBRANCH  36  37
ENDBRANCH  35  36
ENDBRANCH   4  30
TORSDOF 11
ENDMDL
MODEL      267
REMARK 921   NORMALIZED FREE ENERGY PREDICTED BY IDOCK:   17.49 KCAL/MOL
REMARK 922        TOTAL FREE ENERGY PREDICTED BY IDOCK:   27.10 KCAL/MOL
REMARK 923 INTER-LIGAND FREE ENERGY PREDICTED BY IDOCK:   -1.50 KCAL/MOL
REMARK 924 INTRA-LIGAND FREE ENERGY PREDICTED BY IDOCK:   28.60 KCAL/MOL
REMARK 927      BINDING AFFINITY PREDICTED BY RF-SCORE:    0.00 PKD
ROOT
HETATM    1  C   UNL     1      -9.470   8.857  68.956  1.00  0.00    -0.156 C  
HETATM    2  N   UNL     1      -8.763  10.113  68.758  1.00  0.00    -0.130 N  
HETATM    3  O   UNL     1     -10.788  11.125  68.297  1.00  0.00    -0.185 OA 
HETATM    4  C   UNL     1      -9.571  11.234  68.460  1.00  0.00    -0.198 C  
ENDROOT
BRANCH   2   5
HETATM    5  C   UNL     1      -7.362  10.241  69.162  1.00  0.00    -0.096 C  
BRANCH   5   6
HETATM    6  C   UNL     1      -6.813   9.501  70.393  1.00  0.00    -0.101 C  
BRANCH   6   7
HETATM    7  N   UNL     1      -6.821   8.033  70.183  1.00  0.00    -0.040 NA 
HETATM    8  C   UNL     1      -7.201   7.670  68.810  1.00  0.00    -0.082 C  
HETATM    9  C   UNL     1      -7.658   7.288  71.138  1.00  0.00    -0.080 C  
HETATM   10  C   UNL     1      -9.598   7.260  69.548  1.00  0.00    -0.155 C  
HETATM   11  C   UNL     1      -9.145   7.591  70.974  1.00  0.00    -0.148 C  
HETATM   12  C   UNL     1      -8.682   7.910  68.507  1.00  0.00    -0.131 C  
BRANCH  10  13
HETATM   13  O   UNL     1      -9.553   5.833  69.350  1.00  0.00    -0.133 OA 
BRANCH  13  14
HETATM   14  C   UNL     1      -9.228   5.112  70.457  1.00  0.00    -0.146 C  
HETATM   15  H   UNL     1     -10.841   3.917  69.943  1.00  0.00     0.000 HD 
HETATM   16  O   UNL     1      -8.215   5.275  71.118  1.00  0.00    -0.112 OA 
HETATM   17  N   UNL     1     -10.220   4.205  70.699  1.00  0.00     0.004 N  
BRANCH  17  18
HETATM   18  C   UNL     1     -10.388   3.667  71.991  1.00  0.00     0.003 A  
HETATM   19  C   UNL     1      -9.289   3.456  72.854  1.00  0.00    -0.130 A  
HETATM   20  C   UNL     1     -11.967   2.861  73.648  1.00  0.00     0.308 A  
HETATM   21  C   UNL     1      -9.602   2.940  74.132  1.00  0.00    -0.117 A  
HETATM   22  C   UNL     1     -10.916   2.659  74.529  1.00  0.00     0.107 A  
HETATM   23  C   UNL     1     -11.704   3.355  72.377  1.00  0.00     1.565 A  
BRANCH  19  24
HETATM   24  C   UNL     1      -7.865   3.757  72.513  1.00  0.00    -0.072 A  
HETATM   25  C   UNL     1      -7.113   2.969  71.623  1.00  0.00    -0.032 A  
HETATM   26  C   UNL     1      -5.773   3.255  71.329  1.00  0.00    -0.013 A  
HETATM   27  C   UNL     1      -5.134   4.322  71.948  1.00  0.00     0.000 A  
HETATM   28  C   UNL     1      -5.842   5.116  72.842  1.00  0.00    -0.022 A  
HETATM   29  C   UNL     1      -7.190   4.846  73.105  1.00  0.00    -0.085 A  
ENDBRANCH  19  24
ENDBRANCH  17  18
ENDBRANCH  13  14
ENDBRANCH  10  13
ENDBRANCH   6   7
ENDBRANCH   5   6
ENDBRANCH   2   5
BRANCH   4  30
HETATM   30  C   UNL     1      -8.997  12.621  68.429  1.00  0.00    -0.125 A  
HETATM   31  C   UNL     1      -7.601  12.751  68.367  1.00  0.00    -0.133 A  
HETATM   32  C   UNL     1      -9.771  13.784  68.458  1.00  0.00    -0.193 A  
HETATM   33  C   UNL     1      -9.187  15.035  68.256  1.00  0.00    -0.184 A  
HETATM   34  C   UNL     1      -7.006  14.012  68.232  1.00  0.00    -0.107 A  
HETATM   35  C   UNL     1      -7.799  15.162  68.137  1.00  0.00    -0.126 A  
BRANCH  35  36
HETATM   36  C   UNL     1      -7.180  16.532  67.946  1.00  0.00    -0.140 C  
BRANCH  36  37
HETATM   37  N   UNL     1      -7.512  17.126  66.641  1.00  0.00    -0.229 NA 
HETATM   38  C   UNL     1      -7.786  18.563  66.734  1.00  0.00    -0.242 C  
HETATM   39  C   UNL     1      -8.596  16.424  65.938  1.00  0.00    -0.038 C  
HETATM   40  C   UNL     1      -9.982  16.677  66.538  1.00  0.00    -0.296 C  
HETATM   41  C   UNL     1      -9.140  18.892  67.368  1.00  0.00    -0.303 C  
HETATM   42  C   UNL     1     -10.289  18.175  66.649  1.00  0.00    -0.387 C  
BRANCH  42  43
HETATM   43  C   UNL     1     -10.575  18.787  65.277  1.00  0.00     0.535 C  
HETATM   44  N   UNL     1     -10.422  20.138  65.192  1.00  0.00     0.022 N  
HETATM   45  H2  UNL     1     -10.135  20.704  65.990  1.00  0.00     0.000 HD 
HETATM   46  O   UNL     1     -10.954  18.155  64.296  1.00  0.00     0.822 OA 
HETATM   47  H1  UNL     1     -10.613  20.546  64.276  1.00  0.00     0.000 HD 
ENDBRANCH  42  43
ENDBRANCH  36  37
ENDBRANCH  35  36
ENDBRANCH   4  30
TORSDOF 11
ENDMDL
MODEL      268
REMARK 921   NORMALIZED FREE ENERGY PREDICTED BY IDOCK:   17.90 KCAL/MOL
REMARK 922        TOTAL FREE ENERGY PREDICTED BY IDOCK:   27.77 KCAL/MOL
REMARK 923 INTER-LIGAND FREE ENERGY PREDICTED BY IDOCK:   11.18 KCAL/MOL
REMARK 924 INTRA-LIGAND FREE ENERGY PREDICTED BY IDOCK:   16.60 KCAL/MOL
REMARK 927      BINDING AFFINITY PREDICTED BY RF-SCORE:    0.00 PKD
ROOT
HETATM    1  C   UNL     1     -12.078  15.304  70.629  1.00  0.00    -0.354 C  
HETATM    2  N   UNL     1     -11.557  14.194  69.845  1.00  0.00    -0.271 N  
HETATM    3  O   UNL     1     -13.715  13.724  69.167  1.00  0.00     3.201 OA 
HETATM    4  C   UNL     1     -12.510  13.472  69.091  1.00  0.00     0.162 C  
ENDROOT
BRANCH   2   5
HETATM    5  C   UNL     1     -10.117  14.063  69.621  1.00  0.00     0.542 C  
BRANCH   5   6
HETATM    6  C   UNL     1      -9.544  13.832  68.213  1.00  0.00    -0.219 C  
BRANCH   6   7
HETATM    7  N   UNL     1      -8.928  12.487  68.100  1.00  0.00    -0.197 NA 
HETATM    8  C   UNL     1      -9.530  11.520  69.028  1.00  0.00     0.086 C  
HETATM    9  C   UNL     1      -7.464  12.475  68.258  1.00  0.00    -0.122 C  
HETATM   10  C   UNL     1      -7.646  11.895  70.691  1.00  0.00     4.061 C  
HETATM   11  C   UNL     1      -7.025  12.853  69.670  1.00  0.00     0.276 C  
HETATM   12  C   UNL     1      -9.160  11.771  70.491  1.00  0.00     5.434 C  
BRANCH  10  13
HETATM   13  O   UNL     1      -7.069  10.584  70.532  1.00  0.00    -0.278 OA 
BRANCH  13  14
HETATM   14  C   UNL     1      -7.214  10.042  69.292  1.00  0.00    -0.078 C  
HETATM   15  H   UNL     1      -5.927   8.568  69.971  1.00  0.00     0.000 HD 
HETATM   16  O   UNL     1      -8.018  10.426  68.457  1.00  0.00    -0.104 OA 
HETATM   17  N   UNL     1      -6.314   9.026  69.147  1.00  0.00    -0.042 N  
BRANCH  17  18
HETATM   18  C   UNL     1      -5.917   8.609  67.859  1.00  0.00    -0.047 A  
HETATM   19  C   UNL     1      -5.874   7.242  67.505  1.00  0.00    -0.030 A  
HETATM   20  C   UNL     1      -5.209   9.304  65.646  1.00  0.00    -0.039 A  
HETATM   21  C   UNL     1      -5.488   6.965  66.174  1.00  0.00    -0.022 A  
HETATM   22  C   UNL     1      -5.175   7.975  65.256  1.00  0.00    -0.028 A  
HETATM   23  C   UNL     1      -5.570   9.622  66.949  1.00  0.00    -0.046 A  
BRANCH  19  24
HETATM   24  C   UNL     1      -6.222   6.111  68.419  1.00  0.00    -0.028 A  
HETATM   25  C   UNL     1      -6.141   6.213  69.820  1.00  0.00    -0.026 A  
HETATM   26  C   UNL     1      -6.452   5.136  70.661  1.00  0.00    -0.030 A  
HETATM   27  C   UNL     1      -6.822   3.911  70.121  1.00  0.00    -0.034 A  
HETATM   28  C   UNL     1      -6.902   3.770  68.741  1.00  0.00    -0.046 A  
HETATM   29  C   UNL     1      -6.622   4.858  67.907  1.00  0.00    -0.050 A  
ENDBRANCH  19  24
ENDBRANCH  17  18
ENDBRANCH  13  14
ENDBRANCH  10  13
ENDBRANCH   6   7
ENDBRANCH   5   6
ENDBRANCH   2   5
BRANCH   4  30
HETATM   30  C   UNL     1     -12.088  12.436  68.090  1.00  0.00    -0.100 A  
HETATM   31  C   UNL     1     -11.755  12.871  66.798  1.00  0.00    -0.445 A  
HETATM   32  C   UNL     1     -12.009  11.070  68.370  1.00  0.00    -0.158 A  
HETATM   33  C   UNL     1     -11.449  10.183  67.449  1.00  0.00     0.427 A  
HETATM   34  C   UNL     1     -11.256  11.972  65.847  1.00  0.00    -0.385 A  
HETATM   35  C   UNL     1     -11.064  10.626  66.179  1.00  0.00     0.133 A  
BRANCH  35  36
HETATM   36  C   UNL     1     -10.484   9.643  65.183  1.00  0.00     0.931 C  
BRANCH  36  37
HETATM   37  N   UNL     1      -9.020   9.747  65.070  1.00  0.00    -0.191 NA 
HETATM   38  C   UNL     1      -8.595  10.293  63.778  1.00  0.00    -0.187 C  
HETATM   39  C   UNL     1      -8.321   8.488  65.369  1.00  0.00    -0.156 C  
HETATM   40  C   UNL     1      -8.449   7.436  64.264  1.00  0.00     0.229 C  
HETATM   41  C   UNL     1      -8.740   9.308  62.615  1.00  0.00    -0.225 C  
HETATM   42  C   UNL     1      -8.014   7.988  62.901  1.00  0.00    -0.152 C  
BRANCH  42  43
HETATM   43  C   UNL     1      -6.495   8.142  62.823  1.00  0.00    -0.086 C  
HETATM   44  N   UNL     1      -5.794   6.986  62.650  1.00  0.00    -0.040 N  
HETATM   45  H2  UNL     1      -6.253   6.078  62.577  1.00  0.00     0.000 HD 
HETATM   46  O   UNL     1      -5.894   9.205  62.938  1.00  0.00    -0.088 OA 
HETATM   47  H1  UNL     1      -4.780   7.089  62.597  1.00  0.00     0.000 HD 
ENDBRANCH  42  43
ENDBRANCH  36  37
ENDBRANCH  35  36
ENDBRANCH   4  30
TORSDOF 11
ENDMDL
MODEL      269
REMARK 921   NORMALIZED FREE ENERGY PREDICTED BY IDOCK:   18.03 KCAL/MOL
REMARK 922        TOTAL FREE ENERGY PREDICTED BY IDOCK:   27.99 KCAL/MOL
REMARK 923 INTER-LIGAND FREE ENERGY PREDICTED BY IDOCK:   17.42 KCAL/MOL
REMARK 924 INTRA-LIGAND FREE ENERGY PREDICTED BY IDOCK:   10.58 KCAL/MOL
REMARK 927      BINDING AFFINITY PREDICTED BY RF-SCORE:    0.00 PKD
ROOT
HETATM    1  C   UNL     1      -9.934  10.201  63.980  1.00  0.00     0.023 C  
HETATM    2  N   UNL     1     -10.093  11.536  64.537  1.00  0.00    -0.262 N  
HETATM    3  O   UNL     1     -12.281  11.006  65.055  1.00  0.00     0.878 OA 
HETATM    4  C   UNL     1     -11.355  11.818  65.108  1.00  0.00    -0.218 C  
ENDROOT
BRANCH   2   5
HETATM    5  C   UNL     1      -8.922  12.384  64.765  1.00  0.00     1.066 C  
BRANCH   5   6
HETATM    6  C   UNL     1      -8.175  12.373  66.109  1.00  0.00     0.598 C  
BRANCH   6   7
HETATM    7  N   UNL     1      -7.459  13.652  66.334  1.00  0.00     1.326 NA 
HETATM    8  C   UNL     1      -6.000  13.494  66.259  1.00  0.00     4.310 C  
HETATM    9  C   UNL     1      -7.815  14.334  67.590  1.00  0.00    -0.179 C  
HETATM   10  C   UNL     1      -5.855  13.331  68.791  1.00  0.00    -0.075 C  
HETATM   11  C   UNL     1      -7.370  13.556  68.825  1.00  0.00    -0.086 C  
HETATM   12  C   UNL     1      -5.409  12.737  67.451  1.00  0.00    -0.027 C  
BRANCH  10  13
HETATM   13  O   UNL     1      -5.179  14.593  68.963  1.00  0.00    -0.088 OA 
BRANCH  13  14
HETATM   14  C   UNL     1      -5.643  15.602  68.177  1.00  0.00    -0.120 C  
HETATM   15  H   UNL     1      -6.704  16.192  69.856  1.00  0.00     0.000 HD 
HETATM   16  O   UNL     1      -5.225  15.860  67.060  1.00  0.00    -0.330 OA 
HETATM   17  N   UNL     1      -6.646  16.251  68.840  1.00  0.00    -0.140 N  
BRANCH  17  18
HETATM   18  C   UNL     1      -7.600  17.002  68.123  1.00  0.00    -0.194 A  
HETATM   19  C   UNL     1      -7.862  18.354  68.435  1.00  0.00    -0.323 A  
HETATM   20  C   UNL     1      -9.197  17.012  66.297  1.00  0.00    -0.278 A  
HETATM   21  C   UNL     1      -8.819  18.998  67.618  1.00  0.00    -0.319 A  
HETATM   22  C   UNL     1      -9.466  18.346  66.560  1.00  0.00    -0.317 A  
HETATM   23  C   UNL     1      -8.272  16.336  67.083  1.00  0.00    -0.219 A  
BRANCH  19  24
HETATM   24  C   UNL     1      -7.193  19.126  69.527  1.00  0.00    -0.126 A  
HETATM   25  C   UNL     1      -5.899  18.821  69.989  1.00  0.00    -0.252 A  
HETATM   26  C   UNL     1      -5.294  19.542  71.028  1.00  0.00    -0.279 A  
HETATM   27  C   UNL     1      -5.983  20.571  71.658  1.00  0.00    -0.132 A  
HETATM   28  C   UNL     1      -7.267  20.892  71.236  1.00  0.00     2.550 A  
HETATM   29  C   UNL     1      -7.853  20.190  70.176  1.00  0.00     0.938 A  
ENDBRANCH  19  24
ENDBRANCH  17  18
ENDBRANCH  13  14
ENDBRANCH  10  13
ENDBRANCH   6   7
ENDBRANCH   5   6
ENDBRANCH   2   5
BRANCH   4  30
HETATM   30  C   UNL     1     -11.592  13.077  65.890  1.00  0.00    -0.405 A  
HETATM   31  C   UNL     1     -12.545  13.040  66.920  1.00  0.00     0.471 A  
HETATM   32  C   UNL     1     -10.920  14.279  65.653  1.00  0.00    -0.309 A  
HETATM   33  C   UNL     1     -11.063  15.361  66.522  1.00  0.00    -0.227 A  
HETATM   34  C   UNL     1     -12.741  14.148  67.754  1.00  0.00     0.834 A  
HETATM   35  C   UNL     1     -11.972  15.305  67.584  1.00  0.00     0.063 A  
BRANCH  35  36
HETATM   36  C   UNL     1     -12.135  16.501  68.501  1.00  0.00     0.752 C  
BRANCH  36  37
HETATM   37  N   UNL     1     -11.450  16.322  69.791  1.00  0.00    -0.265 NA 
HETATM   38  C   UNL     1     -11.681  14.995  70.369  1.00  0.00    -0.291 C  
HETATM   39  C   UNL     1     -11.751  17.384  70.764  1.00  0.00     2.833 C  
HETATM   40  C   UNL     1     -13.157  17.287  71.363  1.00  0.00     8.232 C  
HETATM   41  C   UNL     1     -13.087  14.812  70.948  1.00  0.00    -0.418 C  
HETATM   42  C   UNL     1     -13.423  15.905  71.969  1.00  0.00    -0.307 C  
BRANCH  42  43
HETATM   43  C   UNL     1     -12.659  15.717  73.280  1.00  0.00    -0.503 C  
HETATM   44  N   UNL     1     -11.710  14.739  73.274  1.00  0.00    -0.064 N  
HETATM   45  H2  UNL     1     -11.522  14.170  72.448  1.00  0.00     0.000 HD 
HETATM   46  O   UNL     1     -12.871  16.351  74.309  1.00  0.00    -0.706 OA 
HETATM   47  H1  UNL     1     -11.200  14.614  74.148  1.00  0.00     0.000 HD 
ENDBRANCH  42  43
ENDBRANCH  36  37
ENDBRANCH  35  36
ENDBRANCH   4  30
TORSDOF 11
ENDMDL
MODEL      270
REMARK 921   NORMALIZED FREE ENERGY PREDICTED BY IDOCK:   18.59 KCAL/MOL
REMARK 922        TOTAL FREE ENERGY PREDICTED BY IDOCK:   28.90 KCAL/MOL
REMARK 923 INTER-LIGAND FREE ENERGY PREDICTED BY IDOCK:   27.29 KCAL/MOL
REMARK 924 INTRA-LIGAND FREE ENERGY PREDICTED BY IDOCK:    1.61 KCAL/MOL
REMARK 927      BINDING AFFINITY PREDICTED BY RF-SCORE:    0.00 PKD
ROOT
HETATM    1  C   UNL     1      -8.307  10.351  74.267  1.00  0.00     8.439 C  
HETATM    2  N   UNL     1      -8.496   9.470  73.124  1.00  0.00     2.612 N  
HETATM    3  O   UNL     1     -10.744   9.997  73.151  1.00  0.00     5.021 OA 
HETATM    4  C   UNL     1      -9.810   9.405  72.607  1.00  0.00     2.127 C  
ENDROOT
BRANCH   2   5
HETATM    5  C   UNL     1      -7.338   8.956  72.390  1.00  0.00     0.228 C  
BRANCH   5   6
HETATM    6  C   UNL     1      -5.902   9.245  72.857  1.00  0.00     0.088 C  
BRANCH   6   7
HETATM    7  N   UNL     1      -5.288  10.333  72.059  1.00  0.00    -0.283 NA 
HETATM    8  C   UNL     1      -5.943  11.629  72.288  1.00  0.00     2.181 C  
HETATM    9  C   UNL     1      -5.225  10.064  70.612  1.00  0.00    -0.047 C  
HETATM   10  C   UNL     1      -7.356  11.321  70.199  1.00  0.00     0.873 C  
HETATM   11  C   UNL     1      -6.607  10.005  69.968  1.00  0.00    -0.102 C  
HETATM   12  C   UNL     1      -7.344  11.717  71.679  1.00  0.00     7.640 C  
BRANCH  10  13
HETATM   13  O   UNL     1      -6.715  12.375  69.453  1.00  0.00    -0.098 OA 
BRANCH  13  14
HETATM   14  C   UNL     1      -7.476  12.923  68.468  1.00  0.00    -0.123 C  
HETATM   15  H   UNL     1      -8.805  13.389  69.987  1.00  0.00     0.000 HD 
HETATM   16  O   UNL     1      -7.110  13.079  67.314  1.00  0.00    -0.141 OA 
HETATM   17  N   UNL     1      -8.699  13.246  68.983  1.00  0.00     0.313 N  
BRANCH  17  18
HETATM   18  C   UNL     1      -9.814  13.384  68.132  1.00  0.00    -0.234 A  
HETATM   19  C   UNL     1     -10.286  14.654  67.731  1.00  0.00    -0.237 A  
HETATM   20  C   UNL     1     -11.506  12.236  66.826  1.00  0.00    -0.421 A  
HETATM   21  C   UNL     1     -11.392  14.649  66.851  1.00  0.00    -0.361 A  
HETATM   22  C   UNL     1     -11.984  13.464  66.395  1.00  0.00    -0.457 A  
HETATM   23  C   UNL     1     -10.428  12.195  67.701  1.00  0.00    -0.225 A  
BRANCH  19  24
HETATM   24  C   UNL     1      -9.690  15.959  68.151  1.00  0.00    -0.212 A  
HETATM   25  C   UNL     1      -9.103  16.856  67.239  1.00  0.00    -0.225 A  
HETATM   26  C   UNL     1      -8.531  18.066  67.653  1.00  0.00    -0.239 A  
HETATM   27  C   UNL     1      -8.499  18.400  69.001  1.00  0.00    -0.068 A  
HETATM   28  C   UNL     1      -9.059  17.533  69.932  1.00  0.00     1.525 A  
HETATM   29  C   UNL     1      -9.659  16.341  69.509  1.00  0.00    -0.102 A  
ENDBRANCH  19  24
ENDBRANCH  17  18
ENDBRANCH  13  14
ENDBRANCH  10  13
ENDBRANCH   6   7
ENDBRANCH   5   6
ENDBRANCH   2   5
BRANCH   4  30
HETATM   30  C   UNL     1     -10.105   8.696  71.318  1.00  0.00    -0.312 A  
HETATM   31  C   UNL     1     -10.094   9.453  70.136  1.00  0.00    -0.273 A  
HETATM   32  C   UNL     1     -10.389   7.331  71.227  1.00  0.00    -0.204 A  
HETATM   33  C   UNL     1     -10.488   6.702  69.986  1.00  0.00    -0.250 A  
HETATM   34  C   UNL     1     -10.261   8.835  68.890  1.00  0.00    -0.221 A  
HETATM   35  C   UNL     1     -10.421   7.447  68.804  1.00  0.00    -0.215 A  
BRANCH  35  36
HETATM   36  C   UNL     1     -10.557   6.751  67.465  1.00  0.00    -0.279 C  
BRANCH  36  37
HETATM   37  N   UNL     1     -10.224   7.629  66.333  1.00  0.00    -0.084 NA 
HETATM   38  C   UNL     1      -9.929   6.878  65.109  1.00  0.00     2.342 C  
HETATM   39  C   UNL     1      -9.152   8.590  66.636  1.00  0.00    -0.165 C  
HETATM   40  C   UNL     1      -7.760   7.956  66.707  1.00  0.00    -0.099 C  
HETATM   41  C   UNL     1      -8.568   6.178  65.129  1.00  0.00    -0.051 C  
HETATM   42  C   UNL     1      -7.432   7.161  65.438  1.00  0.00    -0.087 C  
BRANCH  42  43
HETATM   43  C   UNL     1      -7.143   8.090  64.258  1.00  0.00    -0.078 C  
HETATM   44  N   UNL     1      -7.782   7.780  63.095  1.00  0.00    -0.129 N  
HETATM   45  H2  UNL     1      -8.411   6.981  63.017  1.00  0.00     0.000 HD 
HETATM   46  O   UNL     1      -6.370   9.041  64.292  1.00  0.00    -0.074 OA 
HETATM   47  H1  UNL     1      -7.589   8.400  62.308  1.00  0.00     0.000 HD 
ENDBRANCH  42  43
ENDBRANCH  36  37
ENDBRANCH  35  36
ENDBRANCH   4  30
TORSDOF 11
ENDMDL
MODEL      271
REMARK 921   NORMALIZED FREE ENERGY PREDICTED BY IDOCK:   18.89 KCAL/MOL
REMARK 922        TOTAL FREE ENERGY PREDICTED BY IDOCK:   29.41 KCAL/MOL
REMARK 923 INTER-LIGAND FREE ENERGY PREDICTED BY IDOCK:   18.50 KCAL/MOL
REMARK 924 INTRA-LIGAND FREE ENERGY PREDICTED BY IDOCK:   10.91 KCAL/MOL
REMARK 927      BINDING AFFINITY PREDICTED BY RF-SCORE:    0.00 PKD
ROOT
HETATM    1  C   UNL     1     -11.465  16.532  70.092  1.00  0.00     0.060 C  
HETATM    2  N   UNL     1     -11.088  15.483  69.156  1.00  0.00    -0.253 N  
HETATM    3  O   UNL     1     -12.997  15.949  67.940  1.00  0.00     2.023 OA 
HETATM    4  C   UNL     1     -11.950  15.307  68.049  1.00  0.00    -0.026 C  
ENDROOT
BRANCH   2   5
HETATM    5  C   UNL     1      -9.749  14.896  69.208  1.00  0.00    -0.143 C  
BRANCH   5   6
HETATM    6  C   UNL     1      -8.933  14.646  67.929  1.00  0.00    -0.174 C  
BRANCH   6   7
HETATM    7  N   UNL     1      -8.214  13.351  67.997  1.00  0.00    -0.149 NA 
HETATM    8  C   UNL     1      -9.134  12.204  68.024  1.00  0.00    -0.190 C  
HETATM    9  C   UNL     1      -7.262  13.243  69.115  1.00  0.00     0.059 C  
HETATM   10  C   UNL     1      -8.953  12.078  70.555  1.00  0.00     6.172 C  
HETATM   11  C   UNL     1      -7.955  13.237  70.475  1.00  0.00     4.182 C  
HETATM   12  C   UNL     1      -9.893  12.066  69.345  1.00  0.00     0.685 C  
BRANCH  10  13
HETATM   13  O   UNL     1      -8.236  10.827  70.571  1.00  0.00     0.838 OA 
BRANCH  13  14
HETATM   14  C   UNL     1      -8.512  10.023  71.633  1.00  0.00     2.898 C  
HETATM   15  H   UNL     1      -7.460   8.573  70.592  1.00  0.00     0.000 HD 
HETATM   16  O   UNL     1      -9.013  10.404  72.679  1.00  0.00     6.594 OA 
HETATM   17  N   UNL     1      -8.150   8.743  71.324  1.00  0.00    -0.149 N  
BRANCH  17  18
HETATM   18  C   UNL     1      -8.728   7.657  72.012  1.00  0.00    -0.117 A  
HETATM   19  C   UNL     1     -10.127   7.463  72.046  1.00  0.00    -0.212 A  
HETATM   20  C   UNL     1      -8.322   5.657  73.323  1.00  0.00    -0.117 A  
HETATM   21  C   UNL     1     -10.572   6.318  72.745  1.00  0.00    -0.252 A  
HETATM   22  C   UNL     1      -9.687   5.423  73.361  1.00  0.00    -0.159 A  
HETATM   23  C   UNL     1      -7.842   6.778  72.658  1.00  0.00    -0.100 A  
BRANCH  19  24
HETATM   24  C   UNL     1     -11.130   8.356  71.389  1.00  0.00    -0.312 A  
HETATM   25  C   UNL     1     -10.937   8.903  70.107  1.00  0.00    -0.245 A  
HETATM   26  C   UNL     1     -11.879   9.754  69.514  1.00  0.00     0.204 A  
HETATM   27  C   UNL     1     -13.030  10.112  70.204  1.00  0.00     0.108 A  
HETATM   28  C   UNL     1     -13.250   9.600  71.477  1.00  0.00    -0.484 A  
HETATM   29  C   UNL     1     -12.321   8.724  72.050  1.00  0.00    -0.444 A  
ENDBRANCH  19  24
ENDBRANCH  17  18
ENDBRANCH  13  14
ENDBRANCH  10  13
ENDBRANCH   6   7
ENDBRANCH   5   6
ENDBRANCH   2   5
BRANCH   4  30
HETATM   30  C   UNL     1     -11.579  14.403  66.910  1.00  0.00    -0.404 A  
HETATM   31  C   UNL     1     -10.215  14.238  66.621  1.00  0.00    -0.272 A  
HETATM   32  C   UNL     1     -12.509  13.718  66.123  1.00  0.00    -0.466 A  
HETATM   33  C   UNL     1     -12.095  12.766  65.192  1.00  0.00    -0.498 A  
HETATM   34  C   UNL     1      -9.796  13.332  65.639  1.00  0.00    -0.177 A  
HETATM   35  C   UNL     1     -10.734  12.560  64.943  1.00  0.00    -0.327 A  
BRANCH  35  36
HETATM   36  C   UNL     1     -10.303  11.541  63.908  1.00  0.00    -0.371 C  
BRANCH  36  37
HETATM   37  N   UNL     1      -9.419  10.506  64.466  1.00  0.00    -0.249 NA 
HETATM   38  C   UNL     1      -8.028  10.957  64.579  1.00  0.00     0.311 C  
HETATM   39  C   UNL     1      -9.502   9.221  63.755  1.00  0.00     0.684 C  
HETATM   40  C   UNL     1      -8.819   9.232  62.384  1.00  0.00    -0.242 C  
HETATM   41  C   UNL     1      -7.296  11.037  63.237  1.00  0.00     0.546 C  
HETATM   42  C   UNL     1      -7.364   9.707  62.477  1.00  0.00    -0.114 C  
BRANCH  42  43
HETATM   43  C   UNL     1      -6.471   8.640  63.111  1.00  0.00    -0.090 C  
HETATM   44  N   UNL     1      -5.972   8.945  64.341  1.00  0.00    -0.065 N  
HETATM   45  H2  UNL     1      -6.180   9.828  64.809  1.00  0.00     0.000 HD 
HETATM   46  O   UNL     1      -6.164   7.580  62.577  1.00  0.00    -0.064 OA 
HETATM   47  H1  UNL     1      -5.376   8.233  64.764  1.00  0.00     0.000 HD 
ENDBRANCH  42  43
ENDBRANCH  36  37
ENDBRANCH  35  36
ENDBRANCH   4  30
TORSDOF 11
ENDMDL
MODEL      272
REMARK 921   NORMALIZED FREE ENERGY PREDICTED BY IDOCK:   21.50 KCAL/MOL
REMARK 922        TOTAL FREE ENERGY PREDICTED BY IDOCK:   33.69 KCAL/MOL
REMARK 923 INTER-LIGAND FREE ENERGY PREDICTED BY IDOCK:   28.08 KCAL/MOL
REMARK 924 INTRA-LIGAND FREE ENERGY PREDICTED BY IDOCK:    5.61 KCAL/MOL
REMARK 927      BINDING AFFINITY PREDICTED BY RF-SCORE:    0.00 PKD
ROOT
HETATM    1  C   UNL     1     -13.485  17.202  67.337  1.00  0.00     8.300 C  
HETATM    2  N   UNL     1     -12.963  15.890  66.988  1.00  0.00     3.173 N  
HETATM    3  O   UNL     1     -11.505  16.914  65.517  1.00  0.00     0.418 OA 
HETATM    4  C   UNL     1     -11.900  15.878  66.056  1.00  0.00     0.882 C  
ENDROOT
BRANCH   2   5
HETATM    5  C   UNL     1     -13.312  14.720  67.795  1.00  0.00     4.287 C  
BRANCH   5   6
HETATM    6  C   UNL     1     -12.355  14.173  68.867  1.00  0.00    -0.080 C  
BRANCH   6   7
HETATM    7  N   UNL     1     -11.018  14.808  68.766  1.00  0.00    -0.248 NA 
HETATM    8  C   UNL     1     -10.082  14.299  69.778  1.00  0.00     0.483 C  
HETATM    9  C   UNL     1     -11.041  16.280  68.812  1.00  0.00    -0.355 C  
HETATM   10  C   UNL     1     -10.569  16.294  71.276  1.00  0.00     1.077 C  
HETATM   11  C   UNL     1     -11.491  16.815  70.169  1.00  0.00     0.425 C  
HETATM   12  C   UNL     1     -10.407  14.773  71.197  1.00  0.00     1.146 C  
BRANCH  10  13
HETATM   13  O   UNL     1      -9.263  16.887  71.130  1.00  0.00     4.700 OA 
BRANCH  13  14
HETATM   14  C   UNL     1      -8.302  16.045  70.662  1.00  0.00     2.669 C  
HETATM   15  H   UNL     1      -7.519  17.726  69.738  1.00  0.00     0.000 HD 
HETATM   16  O   UNL     1      -8.162  14.886  71.018  1.00  0.00     1.767 OA 
HETATM   17  N   UNL     1      -7.550  16.707  69.734  1.00  0.00     0.355 N  
BRANCH  17  18
HETATM   18  C   UNL     1      -6.816  15.986  68.770  1.00  0.00    -0.132 A  
HETATM   19  C   UNL     1      -6.636  16.476  67.457  1.00  0.00    -0.178 A  
HETATM   20  C   UNL     1      -5.499  14.000  68.312  1.00  0.00    -0.112 A  
HETATM   21  C   UNL     1      -5.854  15.668  66.602  1.00  0.00     1.338 A  
HETATM   22  C   UNL     1      -5.284  14.459  67.022  1.00  0.00     1.239 A  
HETATM   23  C   UNL     1      -6.272  14.757  69.183  1.00  0.00    -0.105 A  
BRANCH  19  24
HETATM   24  C   UNL     1      -7.187  17.768  66.945  1.00  0.00    -0.228 A  
HETATM   25  C   UNL     1      -6.507  18.566  66.006  1.00  0.00    -0.269 A  
HETATM   26  C   UNL     1      -7.030  19.784  65.551  1.00  0.00    -0.330 A  
HETATM   27  C   UNL     1      -8.235  20.258  66.052  1.00  0.00    -0.116 A  
HETATM   28  C   UNL     1      -8.929  19.503  66.989  1.00  0.00    -0.365 A  
HETATM   29  C   UNL     1      -8.419  18.271  67.415  1.00  0.00    -0.249 A  
ENDBRANCH  19  24
ENDBRANCH  17  18
ENDBRANCH  13  14
ENDBRANCH  10  13
ENDBRANCH   6   7
ENDBRANCH   5   6
ENDBRANCH   2   5
BRANCH   4  30
HETATM   30  C   UNL     1     -11.139  14.618  65.759  1.00  0.00    -0.331 A  
HETATM   31  C   UNL     1     -11.855  13.527  65.243  1.00  0.00    -0.373 A  
HETATM   32  C   UNL     1      -9.765  14.471  65.966  1.00  0.00    -0.331 A  
HETATM   33  C   UNL     1      -9.091  13.337  65.512  1.00  0.00     0.717 A  
HETATM   34  C   UNL     1     -11.191  12.359  64.849  1.00  0.00    -0.353 A  
HETATM   35  C   UNL     1      -9.797  12.270  64.945  1.00  0.00    -0.142 A  
BRANCH  35  36
HETATM   36  C   UNL     1      -9.052  11.034  64.484  1.00  0.00    -0.111 C  
BRANCH  36  37
HETATM   37  N   UNL     1      -9.577   9.799  65.086  1.00  0.00    -0.290 NA 
HETATM   38  C   UNL     1      -9.333   9.731  66.530  1.00  0.00    -0.162 C  
HETATM   39  C   UNL     1      -9.109   8.577  64.412  1.00  0.00     0.568 C  
HETATM   40  C   UNL     1      -7.645   8.237  64.703  1.00  0.00    -0.106 C  
HETATM   41  C   UNL     1      -7.876   9.439  66.896  1.00  0.00    -0.105 C  
HETATM   42  C   UNL     1      -7.366   8.166  66.209  1.00  0.00    -0.078 C  
BRANCH  42  43
HETATM   43  C   UNL     1      -7.968   6.903  66.827  1.00  0.00    -0.108 C  
HETATM   44  N   UNL     1      -7.080   6.065  67.432  1.00  0.00    -0.072 N  
HETATM   45  H2  UNL     1      -6.081   6.266  67.471  1.00  0.00     0.000 HD 
HETATM   46  O   UNL     1      -9.155   6.599  66.778  1.00  0.00    -0.132 OA 
HETATM   47  H1  UNL     1      -7.481   5.222  67.845  1.00  0.00     0.000 HD 
ENDBRANCH  42  43
ENDBRANCH  36  37
ENDBRANCH  35  36
ENDBRANCH   4  30
TORSDOF 11
ENDMDL
MODEL      273
REMARK 921   NORMALIZED FREE ENERGY PREDICTED BY IDOCK:   22.20 KCAL/MOL
REMARK 922        TOTAL FREE ENERGY PREDICTED BY IDOCK:   34.83 KCAL/MOL
REMARK 923 INTER-LIGAND FREE ENERGY PREDICTED BY IDOCK:   23.04 KCAL/MOL
REMARK 924 INTRA-LIGAND FREE ENERGY PREDICTED BY IDOCK:   11.80 KCAL/MOL
REMARK 927      BINDING AFFINITY PREDICTED BY RF-SCORE:    0.00 PKD
ROOT
HETATM    1  C   UNL     1      -8.163  15.400  65.508  1.00  0.00     2.700 C  
HETATM    2  N   UNL     1      -8.107  13.982  65.832  1.00  0.00     2.068 N  
HETATM    3  O   UNL     1      -5.880  14.248  66.389  1.00  0.00     2.427 OA 
HETATM    4  C   UNL     1      -6.867  13.512  66.324  1.00  0.00     3.602 C  
ENDROOT
BRANCH   2   5
HETATM    5  C   UNL     1      -9.340  13.201  65.939  1.00  0.00     0.081 C  
BRANCH   5   6
HETATM    6  C   UNL     1      -9.336  11.774  66.511  1.00  0.00    -0.210 C  
BRANCH   6   7
HETATM    7  N   UNL     1      -9.992  11.728  67.840  1.00  0.00    -0.177 NA 
HETATM    8  C   UNL     1     -10.832  12.909  68.087  1.00  0.00    -0.236 C  
HETATM    9  C   UNL     1      -9.065  11.540  68.969  1.00  0.00     0.141 C  
HETATM   10  C   UNL     1      -8.955  14.008  69.401  1.00  0.00     0.622 C  
HETATM   11  C   UNL     1      -8.136  12.735  69.168  1.00  0.00     0.509 C  
HETATM   12  C   UNL     1     -10.025  14.189  68.320  1.00  0.00    -0.241 C  
BRANCH  10  13
HETATM   13  O   UNL     1      -9.622  13.923  70.676  1.00  0.00     2.909 OA 
BRANCH  13  14
HETATM   14  C   UNL     1     -10.730  14.703  70.795  1.00  0.00     0.413 C  
HETATM   15  H   UNL     1      -9.900  15.314  72.592  1.00  0.00     0.000 HD 
HETATM   16  O   UNL     1     -11.556  14.873  69.912  1.00  0.00    -0.257 OA 
HETATM   17  N   UNL     1     -10.761  15.237  72.051  1.00  0.00     0.325 N  
BRANCH  17  18
HETATM   18  C   UNL     1     -11.980  15.682  72.602  1.00  0.00    -0.473 A  
HETATM   19  C   UNL     1     -13.145  14.883  72.565  1.00  0.00    -0.480 A  
HETATM   20  C   UNL     1     -13.121  17.458  73.797  1.00  0.00     2.285 A  
HETATM   21  C   UNL     1     -14.290  15.437  73.181  1.00  0.00     1.026 A  
HETATM   22  C   UNL     1     -14.278  16.695  73.798  1.00  0.00     2.098 A  
HETATM   23  C   UNL     1     -11.976  16.958  73.192  1.00  0.00    -0.039 A  
BRANCH  19  24
HETATM   24  C   UNL     1     -13.228  13.522  71.952  1.00  0.00    -0.510 A  
HETATM   25  C   UNL     1     -13.679  13.306  70.637  1.00  0.00     1.101 A  
HETATM   26  C   UNL     1     -13.768  12.021  70.085  1.00  0.00     3.130 A  
HETATM   27  C   UNL     1     -13.441  10.907  70.849  1.00  0.00     0.312 A  
HETATM   28  C   UNL     1     -13.003  11.081  72.156  1.00  0.00    -0.244 A  
HETATM   29  C   UNL     1     -12.884  12.369  72.691  1.00  0.00     0.979 A  
ENDBRANCH  19  24
ENDBRANCH  17  18
ENDBRANCH  13  14
ENDBRANCH  10  13
ENDBRANCH   6   7
ENDBRANCH   5   6
ENDBRANCH   2   5
BRANCH   4  30
HETATM   30  C   UNL     1      -6.726  12.126  66.881  1.00  0.00     0.002 A  
HETATM   31  C   UNL     1      -6.856  11.046  65.994  1.00  0.00    -0.017 A  
HETATM   32  C   UNL     1      -6.473  11.850  68.228  1.00  0.00    -0.052 A  
HETATM   33  C   UNL     1      -6.185  10.551  68.649  1.00  0.00    -0.046 A  
HETATM   34  C   UNL     1      -6.635   9.733  66.428  1.00  0.00    -0.072 A  
HETATM   35  C   UNL     1      -6.260   9.480  67.753  1.00  0.00    -0.053 A  
BRANCH  35  36
HETATM   36  C   UNL     1      -5.971   8.073  68.235  1.00  0.00    -0.041 C  
BRANCH  36  37
HETATM   37  N   UNL     1      -7.033   7.542  69.103  1.00  0.00    -0.070 NA 
HETATM   38  C   UNL     1      -7.365   8.453  70.204  1.00  0.00    -0.058 C  
HETATM   39  C   UNL     1      -6.757   6.187  69.603  1.00  0.00    -0.052 C  
HETATM   40  C   UNL     1      -5.681   6.140  70.691  1.00  0.00    -0.018 C  
HETATM   41  C   UNL     1      -6.307   8.492  71.310  1.00  0.00    -0.047 C  
HETATM   42  C   UNL     1      -6.005   7.089  71.851  1.00  0.00    -0.037 C  
BRANCH  42  43
HETATM   43  C   UNL     1      -7.148   6.549  72.710  1.00  0.00    -0.081 C  
HETATM   44  N   UNL     1      -6.946   5.315  73.250  1.00  0.00    -0.078 N  
HETATM   45  H2  UNL     1      -6.088   4.786  73.093  1.00  0.00     0.000 HD 
HETATM   46  O   UNL     1      -8.212   7.129  72.902  1.00  0.00    -0.104 OA 
HETATM   47  H1  UNL     1      -7.709   4.954  73.824  1.00  0.00     0.000 HD 
ENDBRANCH  42  43
ENDBRANCH  36  37
ENDBRANCH  35  36
ENDBRANCH   4  30
TORSDOF 11
ENDMDL
MODEL      274
REMARK 921   NORMALIZED FREE ENERGY PREDICTED BY IDOCK:   23.68 KCAL/MOL
REMARK 922        TOTAL FREE ENERGY PREDICTED BY IDOCK:   37.27 KCAL/MOL
REMARK 923 INTER-LIGAND FREE ENERGY PREDICTED BY IDOCK:   26.00 KCAL/MOL
REMARK 924 INTRA-LIGAND FREE ENERGY PREDICTED BY IDOCK:   11.27 KCAL/MOL
REMARK 927      BINDING AFFINITY PREDICTED BY RF-SCORE:    0.00 PKD
ROOT
HETATM    1  C   UNL     1      -8.328  16.379  65.710  1.00  0.00     0.419 C  
HETATM    2  N   UNL     1      -8.404  14.949  65.971  1.00  0.00     0.716 N  
HETATM    3  O   UNL     1      -6.128  14.950  66.366  1.00  0.00     1.883 OA 
HETATM    4  C   UNL     1      -7.191  14.327  66.347  1.00  0.00     2.597 C  
ENDROOT
BRANCH   2   5
HETATM    5  C   UNL     1      -9.704  14.299  66.140  1.00  0.00    -0.303 C  
BRANCH   5   6
HETATM    6  C   UNL     1      -9.816  12.849  66.637  1.00  0.00    -0.250 C  
BRANCH   6   7
HETATM    7  N   UNL     1     -10.487  12.785  67.958  1.00  0.00    -0.220 NA 
HETATM    8  C   UNL     1     -11.123  14.060  68.320  1.00  0.00    -0.254 C  
HETATM    9  C   UNL     1      -9.619  12.338  69.060  1.00  0.00     0.329 C  
HETATM   10  C   UNL     1      -9.107  14.700  69.730  1.00  0.00     0.464 C  
HETATM   11  C   UNL     1      -8.508  13.336  69.371  1.00  0.00     1.023 C  
HETATM   12  C   UNL     1     -10.119  15.159  68.675  1.00  0.00    -0.222 C  
BRANCH  10  13
HETATM   13  O   UNL     1      -9.797  14.604  70.992  1.00  0.00     1.387 OA 
BRANCH  13  14
HETATM   14  C   UNL     1     -10.736  15.565  71.205  1.00  0.00     0.141 C  
HETATM   15  H   UNL     1      -9.695  15.956  72.953  1.00  0.00     0.000 HD 
HETATM   16  O   UNL     1     -11.573  15.910  70.386  1.00  0.00    -0.328 OA 
HETATM   17  N   UNL     1     -10.589  16.053  72.472  1.00  0.00     2.146 N  
BRANCH  17  18
HETATM   18  C   UNL     1     -11.669  16.690  73.117  1.00  0.00    -0.032 A  
HETATM   19  C   UNL     1     -12.982  16.174  73.044  1.00  0.00    -0.495 A  
HETATM   20  C   UNL     1     -12.367  18.528  74.538  1.00  0.00     3.437 A  
HETATM   21  C   UNL     1     -13.965  16.892  73.761  1.00  0.00     2.064 A  
HETATM   22  C   UNL     1     -13.664  18.040  74.506  1.00  0.00     5.983 A  
HETATM   23  C   UNL     1     -11.371  17.860  73.836  1.00  0.00     1.202 A  
BRANCH  19  24
HETATM   24  C   UNL     1     -13.376  14.941  72.295  1.00  0.00    -0.489 A  
HETATM   25  C   UNL     1     -14.027  14.983  71.049  1.00  0.00    -0.343 A  
HETATM   26  C   UNL     1     -14.406  13.817  70.370  1.00  0.00     2.927 A  
HETATM   27  C   UNL     1     -14.174  12.571  70.939  1.00  0.00     3.375 A  
HETATM   28  C   UNL     1     -13.544  12.490  72.174  1.00  0.00    -0.458 A  
HETATM   29  C   UNL     1     -13.138  13.657  72.832  1.00  0.00    -0.203 A  
ENDBRANCH  19  24
ENDBRANCH  17  18
ENDBRANCH  13  14
ENDBRANCH  10  13
ENDBRANCH   6   7
ENDBRANCH   5   6
ENDBRANCH   2   5
BRANCH   4  30
HETATM   30  C   UNL     1      -7.163  12.908  66.836  1.00  0.00     0.349 A  
HETATM   31  C   UNL     1      -7.366  11.887  65.894  1.00  0.00     1.013 A  
HETATM   32  C   UNL     1      -6.948  12.547  68.168  1.00  0.00    -0.089 A  
HETATM   33  C   UNL     1      -6.765  11.211  68.527  1.00  0.00    -0.062 A  
HETATM   34  C   UNL     1      -7.251  10.541  66.264  1.00  0.00    -0.133 A  
HETATM   35  C   UNL     1      -6.912  10.194  67.577  1.00  0.00    -0.085 A  
BRANCH  35  36
HETATM   36  C   UNL     1      -6.738   8.747  67.990  1.00  0.00    -0.069 C  
BRANCH  36  37
HETATM   37  N   UNL     1      -6.891   7.813  66.864  1.00  0.00    -0.070 NA 
HETATM   38  C   UNL     1      -8.150   8.013  66.138  1.00  0.00    -0.111 C  
HETATM   39  C   UNL     1      -6.718   6.404  67.246  1.00  0.00    -0.060 C  
HETATM   40  C   UNL     1      -7.899   5.831  68.034  1.00  0.00    -0.100 C  
HETATM   41  C   UNL     1      -9.382   7.504  66.891  1.00  0.00    -0.197 C  
HETATM   42  C   UNL     1      -9.227   6.033  67.296  1.00  0.00    -0.114 C  
BRANCH  42  43
HETATM   43  C   UNL     1      -9.345   5.094  66.096  1.00  0.00    -0.155 C  
HETATM   44  N   UNL     1     -10.588   4.993  65.547  1.00  0.00    -0.495 N  
HETATM   45  H2  UNL     1     -11.387   5.511  65.912  1.00  0.00     0.000 HD 
HETATM   46  O   UNL     1      -8.423   4.425  65.639  1.00  0.00    -0.113 OA 
HETATM   47  H1  UNL     1     -10.666   4.367  64.745  1.00  0.00     0.000 HD 
ENDBRANCH  42  43
ENDBRANCH  36  37
ENDBRANCH  35  36
ENDBRANCH   4  30
TORSDOF 11
ENDMDL
MODEL      275
REMARK 921   NORMALIZED FREE ENERGY PREDICTED BY IDOCK:   23.77 KCAL/MOL
REMARK 922        TOTAL FREE ENERGY PREDICTED BY IDOCK:   37.42 KCAL/MOL
REMARK 923 INTER-LIGAND FREE ENERGY PREDICTED BY IDOCK:   27.59 KCAL/MOL
REMARK 924 INTRA-LIGAND FREE ENERGY PREDICTED BY IDOCK:    9.83 KCAL/MOL
REMARK 927      BINDING AFFINITY PREDICTED BY RF-SCORE:    0.00 PKD
ROOT
HETATM    1  C   UNL     1     -10.563   6.995  72.178  1.00  0.00    -0.213 C  
HETATM    2  N   UNL     1     -10.087   8.281  71.690  1.00  0.00    -0.198 N  
HETATM    3  O   UNL     1      -8.685   8.402  73.522  1.00  0.00    -0.277 OA 
HETATM    4  C   UNL     1      -9.073   8.894  72.461  1.00  0.00     0.283 C  
ENDROOT
BRANCH   2   5
HETATM    5  C   UNL     1     -10.418   8.723  70.335  1.00  0.00    -0.209 C  
BRANCH   5   6
HETATM    6  C   UNL     1     -11.838   8.568  69.767  1.00  0.00     0.709 C  
BRANCH   6   7
HETATM    7  N   UNL     1     -12.063   7.195  69.255  1.00  0.00     0.842 NA 
HETATM    8  C   UNL     1     -11.768   6.169  70.266  1.00  0.00    -0.066 C  
HETATM    9  C   UNL     1     -11.337   6.883  68.012  1.00  0.00     0.158 C  
HETATM   10  C   UNL     1      -9.452   5.818  69.279  1.00  0.00    -0.129 C  
HETATM   11  C   UNL     1      -9.825   6.852  68.211  1.00  0.00    -0.141 C  
HETATM   12  C   UNL     1     -10.273   6.017  70.557  1.00  0.00    -0.262 C  
BRANCH  10  13
HETATM   13  O   UNL     1      -9.724   4.494  68.779  1.00  0.00    -0.160 OA 
BRANCH  13  14
HETATM   14  C   UNL     1      -9.031   4.152  67.660  1.00  0.00    -0.121 C  
HETATM   15  H   UNL     1      -8.913   6.191  67.315  1.00  0.00     0.000 HD 
HETATM   16  O   UNL     1      -8.646   3.023  67.400  1.00  0.00    -0.092 OA 
HETATM   17  N   UNL     1      -8.859   5.266  66.889  1.00  0.00    -0.111 N  
BRANCH  17  18
HETATM   18  C   UNL     1      -8.609   5.142  65.508  1.00  0.00    -0.143 A  
HETATM   19  C   UNL     1      -8.277   6.261  64.712  1.00  0.00    -0.100 A  
HETATM   20  C   UNL     1      -8.430   3.627  63.621  1.00  0.00    -0.091 A  
HETATM   21  C   UNL     1      -8.021   5.991  63.349  1.00  0.00    -0.112 A  
HETATM   22  C   UNL     1      -8.082   4.698  62.813  1.00  0.00    -0.076 A  
HETATM   23  C   UNL     1      -8.703   3.848  64.965  1.00  0.00    -0.116 A  
BRANCH  19  24
HETATM   24  C   UNL     1      -8.164   7.664  65.216  1.00  0.00    -0.136 A  
HETATM   25  C   UNL     1      -9.279   8.507  65.376  1.00  0.00    -0.043 A  
HETATM   26  C   UNL     1      -9.152   9.826  65.831  1.00  0.00    -0.209 A  
HETATM   27  C   UNL     1      -7.897  10.353  66.107  1.00  0.00    -0.135 A  
HETATM   28  C   UNL     1      -6.771   9.554  65.950  1.00  0.00    -0.082 A  
HETATM   29  C   UNL     1      -6.907   8.227  65.526  1.00  0.00    -0.066 A  
ENDBRANCH  19  24
ENDBRANCH  17  18
ENDBRANCH  13  14
ENDBRANCH  10  13
ENDBRANCH   6   7
ENDBRANCH   5   6
ENDBRANCH   2   5
BRANCH   4  30
HETATM   30  C   UNL     1      -8.354  10.117  71.970  1.00  0.00     4.589 A  
HETATM   31  C   UNL     1      -8.946  10.853  70.931  1.00  0.00     4.304 A  
HETATM   32  C   UNL     1      -7.135  10.564  72.486  1.00  0.00     4.648 A  
HETATM   33  C   UNL     1      -6.605  11.797  72.103  1.00  0.00     4.999 A  
HETATM   34  C   UNL     1      -8.381  12.058  70.496  1.00  0.00     5.491 A  
HETATM   35  C   UNL     1      -7.226  12.558  71.107  1.00  0.00     5.127 A  
BRANCH  35  36
HETATM   36  C   UNL     1      -6.621  13.882  70.684  1.00  0.00     0.286 C  
BRANCH  36  37
HETATM   37  N   UNL     1      -7.222  14.411  69.451  1.00  0.00    -0.118 NA 
HETATM   38  C   UNL     1      -6.450  14.060  68.255  1.00  0.00    -0.116 C  
HETATM   39  C   UNL     1      -7.486  15.858  69.504  1.00  0.00    -0.157 C  
HETATM   40  C   UNL     1      -6.223  16.717  69.397  1.00  0.00    -0.219 C  
HETATM   41  C   UNL     1      -5.148  14.850  68.108  1.00  0.00    -0.114 C  
HETATM   42  C   UNL     1      -5.398  16.362  68.155  1.00  0.00    -0.113 C  
BRANCH  42  43
HETATM   43  C   UNL     1      -6.066  16.872  66.878  1.00  0.00    -0.188 C  
HETATM   44  N   UNL     1      -6.120  18.226  66.742  1.00  0.00    -0.151 N  
HETATM   45  H2  UNL     1      -5.739  18.859  67.446  1.00  0.00     0.000 HD 
HETATM   46  O   UNL     1      -6.568  16.155  66.019  1.00  0.00     0.624 OA 
HETATM   47  H1  UNL     1      -6.566  18.566  65.890  1.00  0.00     0.000 HD 
ENDBRANCH  42  43
ENDBRANCH  36  37
ENDBRANCH  35  36
ENDBRANCH   4  30
TORSDOF 11
ENDMDL
MODEL      276
REMARK 921   NORMALIZED FREE ENERGY PREDICTED BY IDOCK:   27.46 KCAL/MOL
REMARK 922        TOTAL FREE ENERGY PREDICTED BY IDOCK:   43.49 KCAL/MOL
REMARK 923 INTER-LIGAND FREE ENERGY PREDICTED BY IDOCK:    7.15 KCAL/MOL
REMARK 924 INTRA-LIGAND FREE ENERGY PREDICTED BY IDOCK:   36.34 KCAL/MOL
REMARK 927      BINDING AFFINITY PREDICTED BY RF-SCORE:    0.00 PKD
ROOT
HETATM    1  C   UNL     1     -13.756  10.313  69.169  1.00  0.00     4.664 C  
HETATM    2  N   UNL     1     -12.305  10.261  69.272  1.00  0.00     0.227 N  
HETATM    3  O   UNL     1     -12.465   7.992  69.679  1.00  0.00     1.494 OA 
HETATM    4  C   UNL     1     -11.750   8.980  69.498  1.00  0.00     0.617 C  
ENDROOT
BRANCH   2   5
HETATM    5  C   UNL     1     -11.495  11.403  68.847  1.00  0.00    -0.298 C  
BRANCH   5   6
HETATM    6  C   UNL     1     -11.682  12.047  67.463  1.00  0.00    -0.280 C  
BRANCH   6   7
HETATM    7  N   UNL     1     -10.652  13.084  67.212  1.00  0.00    -0.241 NA 
HETATM    8  C   UNL     1      -9.481  12.546  66.504  1.00  0.00    -0.240 C  
HETATM    9  C   UNL     1     -10.209  13.804  68.418  1.00  0.00    -0.248 C  
HETATM   10  C   UNL     1      -8.232  12.287  68.702  1.00  0.00    -0.017 C  
HETATM   11  C   UNL     1      -9.452  12.905  69.391  1.00  0.00     1.130 C  
HETATM   12  C   UNL     1      -8.616  11.630  67.372  1.00  0.00    -0.149 C  
BRANCH  10  13
HETATM   13  O   UNL     1      -7.265  13.319  68.423  1.00  0.00    -0.093 OA 
BRANCH  13  14
HETATM   14  C   UNL     1      -7.779  14.450  67.868  1.00  0.00    -0.146 C  
HETATM   15  H   UNL     1      -9.580  13.426  67.865  1.00  0.00     0.000 HD 
HETATM   16  O   UNL     1      -7.175  15.505  67.758  1.00  0.00    -0.128 OA 
HETATM   17  N   UNL     1      -9.055  14.196  67.453  1.00  0.00    -0.189 N  
BRANCH  17  18
HETATM   18  C   UNL     1      -9.648  14.997  66.455  1.00  0.00    -0.289 A  
HETATM   19  C   UNL     1      -9.893  14.499  65.155  1.00  0.00    -0.146 A  
HETATM   20  C   UNL     1     -10.611  17.156  65.913  1.00  0.00    -0.219 A  
HETATM   21  C   UNL     1     -10.520  15.396  64.262  1.00  0.00     0.986 A  
HETATM   22  C   UNL     1     -10.886  16.696  64.635  1.00  0.00     0.086 A  
HETATM   23  C   UNL     1      -9.984  16.312  66.820  1.00  0.00    -0.268 A  
BRANCH  19  24
HETATM   24  C   UNL     1      -9.559  13.117  64.693  1.00  0.00     0.343 A  
HETATM   25  C   UNL     1     -10.448  12.333  63.935  1.00  0.00    -0.458 A  
HETATM   26  C   UNL     1     -10.126  11.032  63.526  1.00  0.00    -0.428 A  
HETATM   27  C   UNL     1      -8.915  10.463  63.896  1.00  0.00    -0.247 A  
HETATM   28  C   UNL     1      -8.016  11.202  64.655  1.00  0.00     0.588 A  
HETATM   29  C   UNL     1      -8.329  12.513  65.031  1.00  0.00     2.531 A  
ENDBRANCH  19  24
ENDBRANCH  17  18
ENDBRANCH  13  14
ENDBRANCH  10  13
ENDBRANCH   6   7
ENDBRANCH   5   6
ENDBRANCH   2   5
BRANCH   4  30
HETATM   30  C   UNL     1     -10.268   8.751  69.426  1.00  0.00    -0.210 A  
HETATM   31  C   UNL     1      -9.686   7.924  70.399  1.00  0.00    -0.179 A  
HETATM   32  C   UNL     1      -9.440   9.311  68.451  1.00  0.00    -0.145 A  
HETATM   33  C   UNL     1      -8.104   8.924  68.340  1.00  0.00    -0.109 A  
HETATM   34  C   UNL     1      -8.328   7.587  70.331  1.00  0.00    -0.128 A  
HETATM   35  C   UNL     1      -7.535   8.054  69.277  1.00  0.00    -0.094 A  
BRANCH  35  36
HETATM   36  C   UNL     1      -6.076   7.667  69.157  1.00  0.00    -0.034 C  
BRANCH  36  37
HETATM   37  N   UNL     1      -5.892   6.298  68.650  1.00  0.00    -0.019 NA 
HETATM   38  C   UNL     1      -5.352   6.273  67.287  1.00  0.00    -0.005 C  
HETATM   39  C   UNL     1      -7.103   5.470  68.754  1.00  0.00    -0.065 C  
HETATM   40  C   UNL     1      -8.185   5.830  67.732  1.00  0.00    -0.101 C  
HETATM   41  C   UNL     1      -6.369   6.669  66.213  1.00  0.00    -0.042 C  
HETATM   42  C   UNL     1      -7.640   5.815  66.299  1.00  0.00    -0.091 C  
BRANCH  42  43
HETATM   43  C   UNL     1      -7.403   4.386  65.809  1.00  0.00    -0.080 C  
HETATM   44  N   UNL     1      -8.186   3.983  64.769  1.00  0.00    -0.096 N  
HETATM   45  H2  UNL     1      -8.884   4.594  64.346  1.00  0.00     0.000 HD 
HETATM   46  O   UNL     1      -6.601   3.602  66.305  1.00  0.00    -0.036 OA 
HETATM   47  H1  UNL     1      -8.027   3.030  64.442  1.00  0.00     0.000 HD 
ENDBRANCH  42  43
ENDBRANCH  36  37
ENDBRANCH  35  36
ENDBRANCH   4  30
TORSDOF 11
ENDMDL
MODEL      277
REMARK 921   NORMALIZED FREE ENERGY PREDICTED BY IDOCK:   28.70 KCAL/MOL
REMARK 922        TOTAL FREE ENERGY PREDICTED BY IDOCK:   45.52 KCAL/MOL
REMARK 923 INTER-LIGAND FREE ENERGY PREDICTED BY IDOCK:   33.13 KCAL/MOL
REMARK 924 INTRA-LIGAND FREE ENERGY PREDICTED BY IDOCK:   12.39 KCAL/MOL
REMARK 927      BINDING AFFINITY PREDICTED BY RF-SCORE:    0.00 PKD
ROOT
HETATM    1  C   UNL     1     -10.563   6.995  72.178  1.00  0.00    -0.213 C  
HETATM    2  N   UNL     1     -10.087   8.281  71.690  1.00  0.00    -0.198 N  
HETATM    3  O   UNL     1      -8.685   8.402  73.522  1.00  0.00    -0.277 OA 
HETATM    4  C   UNL     1      -9.073   8.894  72.461  1.00  0.00     0.283 C  
ENDROOT
BRANCH   2   5
HETATM    5  C   UNL     1     -10.418   8.723  70.335  1.00  0.00    -0.209 C  
BRANCH   5   6
HETATM    6  C   UNL     1     -11.838   8.568  69.767  1.00  0.00     0.709 C  
BRANCH   6   7
HETATM    7  N   UNL     1     -12.063   7.195  69.255  1.00  0.00     0.842 NA 
HETATM    8  C   UNL     1     -12.908   6.397  70.155  1.00  0.00     2.039 C  
HETATM    9  C   UNL     1     -10.829   6.451  68.950  1.00  0.00    -0.325 C  
HETATM   10  C   UNL     1     -10.848   5.332  71.196  1.00  0.00    -0.060 C  
HETATM   11  C   UNL     1     -10.010   6.141  70.200  1.00  0.00    -0.218 C  
HETATM   12  C   UNL     1     -12.203   5.998  71.454  1.00  0.00     0.304 C  
BRANCH  10  13
HETATM   13  O   UNL     1     -11.096   4.018  70.658  1.00  0.00     1.850 OA 
BRANCH  13  14
HETATM   14  C   UNL     1      -9.979   3.281  70.412  1.00  0.00     0.277 C  
HETATM   15  H   UNL     1      -9.011   5.107  70.267  1.00  0.00     0.000 HD 
HETATM   16  O   UNL     1      -9.912   2.067  70.520  1.00  0.00     0.039 OA 
HETATM   17  N   UNL     1      -8.975   4.119  70.018  1.00  0.00    -0.089 N  
BRANCH  17  18
HETATM   18  C   UNL     1      -7.889   3.622  69.270  1.00  0.00    -0.051 A  
HETATM   19  C   UNL     1      -6.763   4.424  68.976  1.00  0.00    -0.046 A  
HETATM   20  C   UNL     1      -6.940   1.704  68.126  1.00  0.00    -0.035 A  
HETATM   21  C   UNL     1      -5.733   3.792  68.245  1.00  0.00    -0.022 A  
HETATM   22  C   UNL     1      -5.811   2.454  67.838  1.00  0.00    -0.020 A  
HETATM   23  C   UNL     1      -7.983   2.289  68.833  1.00  0.00    -0.062 A  
BRANCH  19  24
HETATM   24  C   UNL     1      -6.595   5.848  69.401  1.00  0.00    -0.047 A  
HETATM   25  C   UNL     1      -7.151   6.925  68.687  1.00  0.00    -0.085 A  
HETATM   26  C   UNL     1      -6.967   8.255  69.089  1.00  0.00    -0.063 A  
HETATM   27  C   UNL     1      -6.188   8.548  70.201  1.00  0.00    -0.034 A  
HETATM   28  C   UNL     1      -5.613   7.510  70.924  1.00  0.00    -0.030 A  
HETATM   29  C   UNL     1      -5.828   6.182  70.538  1.00  0.00    -0.018 A  
ENDBRANCH  19  24
ENDBRANCH  17  18
ENDBRANCH  13  14
ENDBRANCH  10  13
ENDBRANCH   6   7
ENDBRANCH   5   6
ENDBRANCH   2   5
BRANCH   4  30
HETATM   30  C   UNL     1      -8.354  10.117  71.970  1.00  0.00     4.589 A  
HETATM   31  C   UNL     1      -8.946  10.853  70.931  1.00  0.00     4.304 A  
HETATM   32  C   UNL     1      -7.135  10.564  72.486  1.00  0.00     4.648 A  
HETATM   33  C   UNL     1      -6.605  11.797  72.103  1.00  0.00     4.999 A  
HETATM   34  C   UNL     1      -8.381  12.058  70.496  1.00  0.00     5.491 A  
HETATM   35  C   UNL     1      -7.226  12.558  71.107  1.00  0.00     5.127 A  
BRANCH  35  36
HETATM   36  C   UNL     1      -6.621  13.882  70.684  1.00  0.00     0.286 C  
BRANCH  36  37
HETATM   37  N   UNL     1      -7.222  14.411  69.451  1.00  0.00    -0.118 NA 
HETATM   38  C   UNL     1      -6.450  14.060  68.255  1.00  0.00    -0.116 C  
HETATM   39  C   UNL     1      -7.486  15.858  69.504  1.00  0.00    -0.157 C  
HETATM   40  C   UNL     1      -6.223  16.717  69.397  1.00  0.00    -0.219 C  
HETATM   41  C   UNL     1      -5.148  14.850  68.108  1.00  0.00    -0.114 C  
HETATM   42  C   UNL     1      -5.398  16.362  68.155  1.00  0.00    -0.113 C  
BRANCH  42  43
HETATM   43  C   UNL     1      -6.066  16.872  66.878  1.00  0.00    -0.188 C  
HETATM   44  N   UNL     1      -6.120  18.226  66.742  1.00  0.00    -0.151 N  
HETATM   45  H2  UNL     1      -5.739  18.859  67.446  1.00  0.00     0.000 HD 
HETATM   46  O   UNL     1      -6.568  16.155  66.019  1.00  0.00     0.624 OA 
HETATM   47  H1  UNL     1      -6.566  18.566  65.890  1.00  0.00     0.000 HD 
ENDBRANCH  42  43
ENDBRANCH  36  37
ENDBRANCH  35  36
ENDBRANCH   4  30
TORSDOF 11
ENDMDL
MODEL      278
REMARK 921   NORMALIZED FREE ENERGY PREDICTED BY IDOCK:   29.02 KCAL/MOL
REMARK 922        TOTAL FREE ENERGY PREDICTED BY IDOCK:   46.05 KCAL/MOL
REMARK 923 INTER-LIGAND FREE ENERGY PREDICTED BY IDOCK:   34.76 KCAL/MOL
REMARK 924 INTRA-LIGAND FREE ENERGY PREDICTED BY IDOCK:   11.29 KCAL/MOL
REMARK 927      BINDING AFFINITY PREDICTED BY RF-SCORE:    0.00 PKD
ROOT
HETATM    1  C   UNL     1      -5.378   6.745  66.221  1.00  0.00    -0.018 C  
HETATM    2  N   UNL     1      -6.569   7.223  66.907  1.00  0.00    -0.057 N  
HETATM    3  O   UNL     1      -5.292   7.534  68.807  1.00  0.00    -0.020 OA 
HETATM    4  C   UNL     1      -6.382   7.646  68.243  1.00  0.00    -0.041 C  
ENDROOT
BRANCH   2   5
HETATM    5  C   UNL     1      -7.782   7.533  66.148  1.00  0.00    -0.090 C  
BRANCH   5   6
HETATM    6  C   UNL     1      -7.710   8.124  64.731  1.00  0.00    -0.123 C  
BRANCH   6   7
HETATM    7  N   UNL     1      -7.399   9.574  64.770  1.00  0.00    -0.107 NA 
HETATM    8  C   UNL     1      -8.298  10.311  65.670  1.00  0.00    -0.158 C  
HETATM    9  C   UNL     1      -7.380  10.227  63.451  1.00  0.00    -0.097 C  
HETATM   10  C   UNL     1      -9.754  10.998  63.703  1.00  0.00    -0.324 C  
HETATM   11  C   UNL     1      -8.759  10.265  62.798  1.00  0.00    -0.214 C  
HETATM   12  C   UNL     1      -9.724  10.440  65.130  1.00  0.00    -0.353 C  
BRANCH  10  13
HETATM   13  O   UNL     1      -9.405  12.395  63.767  1.00  0.00     0.077 OA 
BRANCH  13  14
HETATM   14  C   UNL     1      -8.656  12.750  64.846  1.00  0.00     2.489 C  
HETATM   15  H   UNL     1      -9.898  14.404  64.952  1.00  0.00     0.000 HD 
HETATM   16  O   UNL     1      -7.816  12.036  65.371  1.00  0.00     1.182 OA 
HETATM   17  N   UNL     1      -8.992  14.019  65.219  1.00  0.00     1.286 N  
BRANCH  17  18
HETATM   18  C   UNL     1      -8.091  14.800  65.971  1.00  0.00     1.738 A  
HETATM   19  C   UNL     1      -8.538  15.665  66.995  1.00  0.00    -0.253 A  
HETATM   20  C   UNL     1      -5.767  15.370  66.371  1.00  0.00     2.819 A  
HETATM   21  C   UNL     1      -7.527  16.365  67.691  1.00  0.00    -0.153 A  
HETATM   22  C   UNL     1      -6.166  16.213  67.396  1.00  0.00    -0.200 A  
HETATM   23  C   UNL     1      -6.728  14.671  65.652  1.00  0.00     8.738 A  
BRANCH  19  24
HETATM   24  C   UNL     1      -9.968  15.858  67.387  1.00  0.00    -0.239 A  
HETATM   25  C   UNL     1     -10.629  15.010  68.294  1.00  0.00    -0.247 A  
HETATM   26  C   UNL     1     -11.975  15.195  68.636  1.00  0.00    -0.270 A  
HETATM   27  C   UNL     1     -12.711  16.217  68.049  1.00  0.00     2.278 A  
HETATM   28  C   UNL     1     -12.095  17.067  67.140  1.00  0.00     2.455 A  
HETATM   29  C   UNL     1     -10.741  16.899  66.828  1.00  0.00    -0.111 A  
ENDBRANCH  19  24
ENDBRANCH  17  18
ENDBRANCH  13  14
ENDBRANCH  10  13
ENDBRANCH   6   7
ENDBRANCH   5   6
ENDBRANCH   2   5
BRANCH   4  30
HETATM   30  C   UNL     1      -7.476   8.343  68.999  1.00  0.00    -0.093 A  
HETATM   31  C   UNL     1      -7.454   9.745  69.040  1.00  0.00    -0.080 A  
HETATM   32  C   UNL     1      -8.512   7.677  69.661  1.00  0.00    -0.135 A  
HETATM   33  C   UNL     1      -9.586   8.384  70.200  1.00  0.00    -0.166 A  
HETATM   34  C   UNL     1      -8.498  10.460  69.641  1.00  0.00    -0.068 A  
HETATM   35  C   UNL     1      -9.593   9.783  70.192  1.00  0.00    -0.287 A  
BRANCH  35  36
HETATM   36  C   UNL     1     -10.756  10.535  70.807  1.00  0.00     0.438 C  
BRANCH  36  37
HETATM   37  N   UNL     1     -11.380  11.480  69.868  1.00  0.00    -0.231 NA 
HETATM   38  C   UNL     1     -12.701  11.032  69.417  1.00  0.00     0.368 C  
HETATM   39  C   UNL     1     -10.519  11.822  68.725  1.00  0.00    -0.198 C  
HETATM   40  C   UNL     1     -10.391  10.698  67.693  1.00  0.00    -0.246 C  
HETATM   41  C   UNL     1     -12.650   9.875  68.415  1.00  0.00     3.782 C  
HETATM   42  C   UNL     1     -11.761  10.210  67.211  1.00  0.00     1.390 C  
BRANCH  42  43
HETATM   43  C   UNL     1     -12.419  11.230  66.281  1.00  0.00     3.194 C  
HETATM   44  N   UNL     1     -13.425  11.966  66.832  1.00  0.00     6.991 N  
HETATM   45  H2  UNL     1     -13.720  11.845  67.801  1.00  0.00     0.000 HD 
HETATM   46  O   UNL     1     -12.125  11.391  65.101  1.00  0.00     0.110 OA 
HETATM   47  H1  UNL     1     -13.864  12.647  66.211  1.00  0.00     0.000 HD 
ENDBRANCH  42  43
ENDBRANCH  36  37
ENDBRANCH  35  36
ENDBRANCH   4  30
TORSDOF 11
ENDMDL
MODEL      279
REMARK 921   NORMALIZED FREE ENERGY PREDICTED BY IDOCK:   29.86 KCAL/MOL
REMARK 922        TOTAL FREE ENERGY PREDICTED BY IDOCK:   47.42 KCAL/MOL
REMARK 923 INTER-LIGAND FREE ENERGY PREDICTED BY IDOCK:   34.92 KCAL/MOL
REMARK 924 INTRA-LIGAND FREE ENERGY PREDICTED BY IDOCK:   12.50 KCAL/MOL
REMARK 927      BINDING AFFINITY PREDICTED BY RF-SCORE:    0.00 PKD
ROOT
HETATM    1  C   UNL     1     -10.563   6.995  72.178  1.00  0.00    -0.213 C  
HETATM    2  N   UNL     1     -10.087   8.281  71.690  1.00  0.00    -0.198 N  
HETATM    3  O   UNL     1      -8.685   8.402  73.522  1.00  0.00    -0.277 OA 
HETATM    4  C   UNL     1      -9.073   8.894  72.461  1.00  0.00     0.283 C  
ENDROOT
BRANCH   2   5
HETATM    5  C   UNL     1     -10.418   8.723  70.335  1.00  0.00    -0.209 C  
BRANCH   5   6
HETATM    6  C   UNL     1     -11.838   8.568  69.767  1.00  0.00     0.709 C  
BRANCH   6   7
HETATM    7  N   UNL     1     -12.063   7.195  69.255  1.00  0.00     0.842 NA 
HETATM    8  C   UNL     1     -12.908   6.397  70.155  1.00  0.00     2.039 C  
HETATM    9  C   UNL     1     -10.829   6.451  68.950  1.00  0.00    -0.325 C  
HETATM   10  C   UNL     1     -10.848   5.332  71.196  1.00  0.00    -0.060 C  
HETATM   11  C   UNL     1     -10.010   6.141  70.200  1.00  0.00    -0.218 C  
HETATM   12  C   UNL     1     -12.203   5.998  71.454  1.00  0.00     0.304 C  
BRANCH  10  13
HETATM   13  O   UNL     1     -11.096   4.018  70.658  1.00  0.00     1.850 OA 
BRANCH  13  14
HETATM   14  C   UNL     1      -9.979   3.281  70.412  1.00  0.00     0.277 C  
HETATM   15  H   UNL     1      -9.011   5.107  70.267  1.00  0.00     0.000 HD 
HETATM   16  O   UNL     1      -9.912   2.067  70.520  1.00  0.00     0.039 OA 
HETATM   17  N   UNL     1      -8.975   4.119  70.018  1.00  0.00    -0.089 N  
BRANCH  17  18
HETATM   18  C   UNL     1      -7.889   3.622  69.270  1.00  0.00    -0.051 A  
HETATM   19  C   UNL     1      -7.823   3.779  67.867  1.00  0.00    -0.073 A  
HETATM   20  C   UNL     1      -5.749   2.481  69.338  1.00  0.00    -0.022 A  
HETATM   21  C   UNL     1      -6.665   3.261  67.244  1.00  0.00    -0.045 A  
HETATM   22  C   UNL     1      -5.640   2.635  67.965  1.00  0.00    -0.018 A  
HETATM   23  C   UNL     1      -6.876   2.964  69.990  1.00  0.00    -0.034 A  
BRANCH  19  24
HETATM   24  C   UNL     1      -8.861   4.461  67.034  1.00  0.00    -0.116 A  
HETATM   25  C   UNL     1     -10.025   3.809  66.587  1.00  0.00     0.085 A  
HETATM   26  C   UNL     1     -10.979   4.457  65.791  1.00  0.00     0.373 A  
HETATM   27  C   UNL     1     -10.776   5.771  65.388  1.00  0.00     1.383 A  
HETATM   28  C   UNL     1      -9.633   6.443  65.800  1.00  0.00     0.240 A  
HETATM   29  C   UNL     1      -8.700   5.801  66.623  1.00  0.00    -0.119 A  
ENDBRANCH  19  24
ENDBRANCH  17  18
ENDBRANCH  13  14
ENDBRANCH  10  13
ENDBRANCH   6   7
ENDBRANCH   5   6
ENDBRANCH   2   5
BRANCH   4  30
HETATM   30  C   UNL     1      -8.354  10.117  71.970  1.00  0.00     4.589 A  
HETATM   31  C   UNL     1      -8.946  10.853  70.931  1.00  0.00     4.304 A  
HETATM   32  C   UNL     1      -7.135  10.564  72.486  1.00  0.00     4.648 A  
HETATM   33  C   UNL     1      -6.605  11.797  72.103  1.00  0.00     4.999 A  
HETATM   34  C   UNL     1      -8.381  12.058  70.496  1.00  0.00     5.491 A  
HETATM   35  C   UNL     1      -7.226  12.558  71.107  1.00  0.00     5.127 A  
BRANCH  35  36
HETATM   36  C   UNL     1      -6.621  13.882  70.684  1.00  0.00     0.286 C  
BRANCH  36  37
HETATM   37  N   UNL     1      -7.222  14.411  69.451  1.00  0.00    -0.118 NA 
HETATM   38  C   UNL     1      -6.450  14.060  68.255  1.00  0.00    -0.116 C  
HETATM   39  C   UNL     1      -7.486  15.858  69.504  1.00  0.00    -0.157 C  
HETATM   40  C   UNL     1      -6.223  16.717  69.397  1.00  0.00    -0.219 C  
HETATM   41  C   UNL     1      -5.148  14.850  68.108  1.00  0.00    -0.114 C  
HETATM   42  C   UNL     1      -5.398  16.362  68.155  1.00  0.00    -0.113 C  
BRANCH  42  43
HETATM   43  C   UNL     1      -6.066  16.872  66.878  1.00  0.00    -0.188 C  
HETATM   44  N   UNL     1      -5.886  18.195  66.607  1.00  0.00    -0.144 N  
HETATM   45  H2  UNL     1      -5.340  18.805  67.216  1.00  0.00     0.000 HD 
HETATM   46  O   UNL     1      -6.759  16.187  66.132  1.00  0.00     0.290 OA 
HETATM   47  H1  UNL     1      -6.332  18.535  65.755  1.00  0.00     0.000 HD 
ENDBRANCH  42  43
ENDBRANCH  36  37
ENDBRANCH  35  36
ENDBRANCH   4  30
TORSDOF 11
ENDMDL
MODEL      280
REMARK 921   NORMALIZED FREE ENERGY PREDICTED BY IDOCK:   31.03 KCAL/MOL
REMARK 922        TOTAL FREE ENERGY PREDICTED BY IDOCK:   49.36 KCAL/MOL
REMARK 923 INTER-LIGAND FREE ENERGY PREDICTED BY IDOCK:   42.04 KCAL/MOL
REMARK 924 INTRA-LIGAND FREE ENERGY PREDICTED BY IDOCK:    7.32 KCAL/MOL
REMARK 927      BINDING AFFINITY PREDICTED BY RF-SCORE:    0.00 PKD
ROOT
HETATM    1  C   UNL     1      -5.385   6.740  66.233  1.00  0.00    -0.018 C  
HETATM    2  N   UNL     1      -6.548   7.080  67.040  1.00  0.00    -0.053 N  
HETATM    3  O   UNL     1      -5.154   7.299  68.869  1.00  0.00    -0.013 OA 
HETATM    4  C   UNL     1      -6.287   7.393  68.393  1.00  0.00    -0.040 C  
ENDROOT
BRANCH   2   5
HETATM    5  C   UNL     1      -7.828   7.381  66.397  1.00  0.00    -0.102 C  
BRANCH   5   6
HETATM    6  C   UNL     1      -7.919   8.354  65.211  1.00  0.00    -0.125 C  
BRANCH   6   7
HETATM    7  N   UNL     1      -7.891   9.763  65.671  1.00  0.00    -0.110 NA 
HETATM    8  C   UNL     1      -9.049  10.529  65.187  1.00  0.00    -0.197 C  
HETATM    9  C   UNL     1      -6.651  10.486  65.342  1.00  0.00    -0.074 C  
HETATM   10  C   UNL     1      -7.669  11.461  63.267  1.00  0.00     1.071 C  
HETATM   11  C   UNL     1      -6.475  10.690  63.840  1.00  0.00     0.166 C  
HETATM   12  C   UNL     1      -8.997  10.823  63.686  1.00  0.00    -0.179 C  
BRANCH  10  13
HETATM   13  O   UNL     1      -7.651  12.813  63.765  1.00  0.00     6.134 OA 
BRANCH  13  14
HETATM   14  C   UNL     1      -8.371  13.014  64.901  1.00  0.00     3.951 C  
HETATM   15  H   UNL     1      -9.225  14.600  63.877  1.00  0.00     0.000 HD 
HETATM   16  O   UNL     1      -8.393  12.249  65.853  1.00  0.00     0.383 OA 
HETATM   17  N   UNL     1      -9.038  14.201  64.797  1.00  0.00     2.004 N  
BRANCH  17  18
HETATM   18  C   UNL     1      -9.468  14.878  65.957  1.00  0.00    -0.281 A  
HETATM   19  C   UNL     1     -10.759  15.444  66.047  1.00  0.00    -0.326 A  
HETATM   20  C   UNL     1      -8.902  15.567  68.213  1.00  0.00    -0.179 A  
HETATM   21  C   UNL     1     -11.072  16.066  67.277  1.00  0.00    -0.131 A  
HETATM   22  C   UNL     1     -10.168  16.117  68.346  1.00  0.00    -0.240 A  
HETATM   23  C   UNL     1      -8.548  14.957  67.017  1.00  0.00    -0.265 A  
BRANCH  19  24
HETATM   24  C   UNL     1     -11.787  15.405  64.963  1.00  0.00    -0.019 A  
HETATM   25  C   UNL     1     -12.654  14.312  64.776  1.00  0.00    -0.310 A  
HETATM   26  C   UNL     1     -13.599  14.284  63.742  1.00  0.00     3.724 A  
HETATM   27  C   UNL     1     -13.680  15.337  62.840  1.00  0.00     6.126 A  
HETATM   28  C   UNL     1     -12.832  16.428  62.986  1.00  0.00     7.138 A  
HETATM   29  C   UNL     1     -11.913  16.466  64.040  1.00  0.00     0.932 A  
ENDBRANCH  19  24
ENDBRANCH  17  18
ENDBRANCH  13  14
ENDBRANCH  10  13
ENDBRANCH   6   7
ENDBRANCH   5   6
ENDBRANCH   2   5
BRANCH   4  30
HETATM   30  C   UNL     1      -7.359   7.951  69.284  1.00  0.00    -0.082 A  
HETATM   31  C   UNL     1      -7.394   9.340  69.476  1.00  0.00    -0.070 A  
HETATM   32  C   UNL     1      -8.321   7.168  69.929  1.00  0.00    -0.135 A  
HETATM   33  C   UNL     1      -9.389   7.760  70.604  1.00  0.00    -0.162 A  
HETATM   34  C   UNL     1      -8.428   9.934  70.211  1.00  0.00    -0.074 A  
HETATM   35  C   UNL     1      -9.455   9.150  70.749  1.00  0.00    -0.334 A  
BRANCH  35  36
HETATM   36  C   UNL     1     -10.608   9.774  71.509  1.00  0.00     0.224 C  
BRANCH  36  37
HETATM   37  N   UNL     1     -11.312  10.802  70.727  1.00  0.00    -0.149 NA 
HETATM   38  C   UNL     1     -12.624  10.349  70.257  1.00  0.00    -0.192 C  
HETATM   39  C   UNL     1     -10.510  11.343  69.619  1.00  0.00     0.211 C  
HETATM   40  C   UNL     1     -10.364  10.379  68.438  1.00  0.00    -0.198 C  
HETATM   41  C   UNL     1     -12.552   9.344  69.105  1.00  0.00     2.667 C  
HETATM   42  C   UNL     1     -11.725   9.887  67.934  1.00  0.00     1.031 C  
BRANCH  42  43
HETATM   43  C   UNL     1     -12.466  10.987  67.172  1.00  0.00     3.217 C  
HETATM   44  N   UNL     1     -13.494  11.578  67.844  1.00  0.00     6.559 N  
HETATM   45  H2  UNL     1     -13.751  11.305  68.792  1.00  0.00     0.000 HD 
HETATM   46  O   UNL     1     -12.217  11.328  66.021  1.00  0.00     0.563 OA 
HETATM   47  H1  UNL     1     -13.988  12.312  67.336  1.00  0.00     0.000 HD 
ENDBRANCH  42  43
ENDBRANCH  36  37
ENDBRANCH  35  36
ENDBRANCH   4  30
TORSDOF 11
ENDMDL
MODEL      281
REMARK 921   NORMALIZED FREE ENERGY PREDICTED BY IDOCK:   34.28 KCAL/MOL
REMARK 922        TOTAL FREE ENERGY PREDICTED BY IDOCK:   54.69 KCAL/MOL
REMARK 923 INTER-LIGAND FREE ENERGY PREDICTED BY IDOCK:   44.37 KCAL/MOL
REMARK 924 INTRA-LIGAND FREE ENERGY PREDICTED BY IDOCK:   10.33 KCAL/MOL
REMARK 927      BINDING AFFINITY PREDICTED BY RF-SCORE:    0.00 PKD
ROOT
HETATM    1  C   UNL     1     -13.496  19.345  66.505  1.00  0.00    10.351 C  
HETATM    2  N   UNL     1     -13.127  17.940  66.596  1.00  0.00     8.885 N  
HETATM    3  O   UNL     1     -11.533  18.304  64.964  1.00  0.00     0.211 OA 
HETATM    4  C   UNL     1     -12.056  17.531  65.769  1.00  0.00     4.362 C  
ENDROOT
BRANCH   2   5
HETATM    5  C   UNL     1     -13.625  17.117  67.699  1.00  0.00     8.279 C  
BRANCH   5   6
HETATM    6  C   UNL     1     -12.688  16.614  68.809  1.00  0.00     2.727 C  
BRANCH   6   7
HETATM    7  N   UNL     1     -11.282  16.567  68.341  1.00  0.00    -0.337 NA 
HETATM    8  C   UNL     1     -10.391  15.926  69.320  1.00  0.00    -0.249 C  
HETATM    9  C   UNL     1     -10.726  17.874  67.954  1.00  0.00    -0.316 C  
HETATM   10  C   UNL     1      -9.686  18.198  70.213  1.00  0.00     1.938 C  
HETATM   11  C   UNL     1     -10.583  18.823  69.140  1.00  0.00     0.489 C  
HETATM   12  C   UNL     1     -10.145  16.779  70.566  1.00  0.00     1.381 C  
BRANCH  10  13
HETATM   13  O   UNL     1      -8.334  18.117  69.720  1.00  0.00     0.777 OA 
BRANCH  13  14
HETATM   14  C   UNL     1      -7.876  16.853  69.513  1.00  0.00     0.332 C  
HETATM   15  H   UNL     1      -6.090  17.767  68.997  1.00  0.00     0.000 HD 
HETATM   16  O   UNL     1      -8.483  15.837  69.813  1.00  0.00    -0.125 OA 
HETATM   17  N   UNL     1      -6.652  16.921  68.912  1.00  0.00    -0.181 N  
BRANCH  17  18
HETATM   18  C   UNL     1      -6.163  15.824  68.173  1.00  0.00    -0.123 A  
HETATM   19  C   UNL     1      -5.933  15.912  66.782  1.00  0.00     0.637 A  
HETATM   20  C   UNL     1      -5.391  13.525  68.252  1.00  0.00    -0.101 A  
HETATM   21  C   UNL     1      -5.413  14.749  66.170  1.00  0.00     5.415 A  
HETATM   22  C   UNL     1      -5.134  13.580  66.891  1.00  0.00     1.223 A  
HETATM   23  C   UNL     1      -5.915  14.641  68.892  1.00  0.00    -0.085 A  
BRANCH  19  24
HETATM   24  C   UNL     1      -6.178  17.130  65.951  1.00  0.00     0.334 A  
HETATM   25  C   UNL     1      -5.315  17.530  64.914  1.00  0.00     0.948 A  
HETATM   26  C   UNL     1      -5.550  18.686  64.158  1.00  0.00    -0.085 A  
HETATM   27  C   UNL     1      -6.641  19.498  64.442  1.00  0.00     0.288 A  
HETATM   28  C   UNL     1      -7.509  19.141  65.466  1.00  0.00     0.036 A  
HETATM   29  C   UNL     1      -7.288  17.967  66.196  1.00  0.00    -0.317 A  
ENDBRANCH  19  24
ENDBRANCH  17  18
ENDBRANCH  13  14
ENDBRANCH  10  13
ENDBRANCH   6   7
ENDBRANCH   5   6
ENDBRANCH   2   5
BRANCH   4  30
HETATM   30  C   UNL     1     -11.445  16.167  65.905  1.00  0.00     0.504 A  
HETATM   31  C   UNL     1     -12.309  15.061  65.939  1.00  0.00     0.310 A  
HETATM   32  C   UNL     1     -10.070  15.936  66.000  1.00  0.00    -0.359 A  
HETATM   33  C   UNL     1      -9.559  14.638  65.954  1.00  0.00    -0.303 A  
HETATM   34  C   UNL     1     -11.801  13.757  65.962  1.00  0.00    -0.415 A  
HETATM   35  C   UNL     1     -10.419  13.535  65.931  1.00  0.00    -0.292 A  
BRANCH  35  36
HETATM   36  C   UNL     1      -9.846  12.133  65.910  1.00  0.00    -0.247 C  
BRANCH  36  37
HETATM   37  N   UNL     1     -10.631  11.188  66.719  1.00  0.00    -0.252 NA 
HETATM   38  C   UNL     1     -10.351  11.311  68.153  1.00  0.00    -0.186 C  
HETATM   39  C   UNL     1     -10.504   9.792  66.273  1.00  0.00    -0.090 C  
HETATM   40  C   UNL     1      -9.156   9.155  66.622  1.00  0.00    -0.182 C  
HETATM   41  C   UNL     1      -8.995  10.734  68.568  1.00  0.00    -0.160 C  
HETATM   42  C   UNL     1      -8.841   9.276  68.118  1.00  0.00    -0.129 C  
BRANCH  42  43
HETATM   43  C   UNL     1      -9.706   8.327  68.947  1.00  0.00    -0.164 C  
HETATM   44  N   UNL     1      -9.566   8.433  70.299  1.00  0.00    -0.164 N  
HETATM   45  H2  UNL     1      -8.926   9.101  70.728  1.00  0.00     0.000 HD 
HETATM   46  O   UNL     1     -10.464   7.484  68.479  1.00  0.00    -0.198 OA 
HETATM   47  H1  UNL     1     -10.143   7.799  70.852  1.00  0.00     0.000 HD 
ENDBRANCH  42  43
ENDBRANCH  36  37
ENDBRANCH  35  36
ENDBRANCH   4  30
TORSDOF 11
ENDMDL
MODEL      282
REMARK 921   NORMALIZED FREE ENERGY PREDICTED BY IDOCK:   34.34 KCAL/MOL
REMARK 922        TOTAL FREE ENERGY PREDICTED BY IDOCK:   54.79 KCAL/MOL
REMARK 923 INTER-LIGAND FREE ENERGY PREDICTED BY IDOCK:   29.78 KCAL/MOL
REMARK 924 INTRA-LIGAND FREE ENERGY PREDICTED BY IDOCK:   25.01 KCAL/MOL
REMARK 927      BINDING AFFINITY PREDICTED BY RF-SCORE:    0.00 PKD
ROOT
HETATM    1  C   UNL     1     -10.844  12.710  62.681  1.00  0.00     2.205 C  
HETATM    2  N   UNL     1     -10.958  11.984  63.937  1.00  0.00    -0.362 N  
HETATM    3  O   UNL     1     -10.432  10.040  62.804  1.00  0.00     0.966 OA 
HETATM    4  C   UNL     1     -10.676  10.600  63.875  1.00  0.00     0.274 C  
ENDROOT
BRANCH   2   5
HETATM    5  C   UNL     1     -11.043  12.711  65.204  1.00  0.00    -0.294 C  
BRANCH   5   6
HETATM    6  C   UNL     1      -9.900  13.621  65.682  1.00  0.00    -0.175 C  
BRANCH   6   7
HETATM    7  N   UNL     1     -10.176  14.160  67.036  1.00  0.00    -0.258 NA 
HETATM    8  C   UNL     1     -11.602  14.087  67.384  1.00  0.00    -0.368 C  
HETATM    9  C   UNL     1      -9.686  15.531  67.256  1.00  0.00    -0.218 C  
HETATM   10  C   UNL     1     -11.926  16.512  66.698  1.00  0.00     1.853 C  
HETATM   11  C   UNL     1     -10.423  16.559  66.402  1.00  0.00    -0.275 C  
HETATM   12  C   UNL     1     -12.467  15.082  66.608  1.00  0.00     0.629 C  
BRANCH  10  13
HETATM   13  O   UNL     1     -12.167  16.994  68.035  1.00  0.00     1.159 OA 
BRANCH  13  14
HETATM   14  C   UNL     1     -11.914  16.092  69.022  1.00  0.00    -0.053 C  
HETATM   15  H   UNL     1     -13.046  17.345  70.223  1.00  0.00     0.000 HD 
HETATM   16  O   UNL     1     -11.381  15.008  68.850  1.00  0.00    -0.265 OA 
HETATM   17  N   UNL     1     -12.339  16.610  70.212  1.00  0.00     1.350 N  
BRANCH  17  18
HETATM   18  C   UNL     1     -11.803  16.133  71.425  1.00  0.00    -0.430 A  
HETATM   19  C   UNL     1     -11.776  14.753  71.730  1.00  0.00    -0.315 A  
HETATM   20  C   UNL     1     -10.709  16.713  73.511  1.00  0.00     4.526 A  
HETATM   21  C   UNL     1     -11.183  14.409  72.965  1.00  0.00     1.668 A  
HETATM   22  C   UNL     1     -10.647  15.367  73.836  1.00  0.00     4.407 A  
HETATM   23  C   UNL     1     -11.295  17.098  72.312  1.00  0.00     1.078 A  
BRANCH  19  24
HETATM   24  C   UNL     1     -12.301  13.671  70.841  1.00  0.00    -0.450 A  
HETATM   25  C   UNL     1     -12.322  13.783  69.439  1.00  0.00    -0.219 A  
HETATM   26  C   UNL     1     -12.835  12.767  68.622  1.00  0.00     1.647 A  
HETATM   27  C   UNL     1     -13.377  11.620  69.189  1.00  0.00     3.238 A  
HETATM   28  C   UNL     1     -13.384  11.480  70.571  1.00  0.00     0.745 A  
HETATM   29  C   UNL     1     -12.839  12.484  71.381  1.00  0.00    -0.359 A  
ENDBRANCH  19  24
ENDBRANCH  17  18
ENDBRANCH  13  14
ENDBRANCH  10  13
ENDBRANCH   6   7
ENDBRANCH   5   6
ENDBRANCH   2   5
BRANCH   4  30
HETATM   30  C   UNL     1     -10.562   9.772  65.123  1.00  0.00     0.924 A  
HETATM   31  C   UNL     1      -9.562  10.113  66.046  1.00  0.00    -0.265 A  
HETATM   32  C   UNL     1     -11.392   8.687  65.416  1.00  0.00     6.859 A  
HETATM   33  C   UNL     1     -11.344   8.068  66.665  1.00  0.00     1.966 A  
HETATM   34  C   UNL     1      -9.466   9.448  67.275  1.00  0.00    -0.169 A  
HETATM   35  C   UNL     1     -10.383   8.444  67.609  1.00  0.00    -0.317 A  
BRANCH  35  36
HETATM   36  C   UNL     1     -10.328   7.741  68.950  1.00  0.00    -0.213 C  
BRANCH  36  37
HETATM   37  N   UNL     1      -9.033   7.088  69.195  1.00  0.00    -0.135 NA 
HETATM   38  C   UNL     1      -7.940   8.052  69.356  1.00  0.00    -0.116 C  
HETATM   39  C   UNL     1      -8.695   6.067  68.191  1.00  0.00    -0.113 C  
HETATM   40  C   UNL     1      -8.279   6.650  66.838  1.00  0.00    -0.113 C  
HETATM   41  C   UNL     1      -7.502   8.711  68.045  1.00  0.00    -0.097 C  
HETATM   42  C   UNL     1      -7.139   7.666  66.983  1.00  0.00    -0.084 C  
BRANCH  42  43
HETATM   43  C   UNL     1      -5.812   6.972  67.293  1.00  0.00    -0.024 C  
HETATM   44  N   UNL     1      -5.209   6.358  66.236  1.00  0.00    -0.013 N  
HETATM   45  H2  UNL     1      -5.615   6.361  65.301  1.00  0.00     0.000 HD 
HETATM   46  O   UNL     1      -5.299   6.911  68.405  1.00  0.00    -0.015 OA 
HETATM   47  H1  UNL     1      -4.323   5.895  66.443  1.00  0.00     0.000 HD 
ENDBRANCH  42  43
ENDBRANCH  36  37
ENDBRANCH  35  36
ENDBRANCH   4  30
TORSDOF 11
ENDMDL
MODEL      283
REMARK 921   NORMALIZED FREE ENERGY PREDICTED BY IDOCK:   38.39 KCAL/MOL
REMARK 922        TOTAL FREE ENERGY PREDICTED BY IDOCK:   61.44 KCAL/MOL
REMARK 923 INTER-LIGAND FREE ENERGY PREDICTED BY IDOCK:   48.53 KCAL/MOL
REMARK 924 INTRA-LIGAND FREE ENERGY PREDICTED BY IDOCK:   12.91 KCAL/MOL
REMARK 927      BINDING AFFINITY PREDICTED BY RF-SCORE:    0.00 PKD
ROOT
HETATM    1  C   UNL     1     -13.554  20.198  66.950  1.00  0.00     6.744 C  
HETATM    2  N   UNL     1     -13.181  18.794  67.043  1.00  0.00     7.792 N  
HETATM    3  O   UNL     1     -11.597  19.156  65.401  1.00  0.00     0.730 OA 
HETATM    4  C   UNL     1     -12.114  18.384  66.211  1.00  0.00     4.525 C  
ENDROOT
BRANCH   2   5
HETATM    5  C   UNL     1     -13.671  17.974  68.152  1.00  0.00    10.258 C  
BRANCH   5   6
HETATM    6  C   UNL     1     -12.725  17.471  69.255  1.00  0.00     7.310 C  
BRANCH   6   7
HETATM    7  N   UNL     1     -11.323  17.417  68.774  1.00  0.00     0.409 NA 
HETATM    8  C   UNL     1     -10.418  16.818  69.765  1.00  0.00    -0.134 C  
HETATM    9  C   UNL     1     -10.781  18.714  68.335  1.00  0.00     0.070 C  
HETATM   10  C   UNL     1      -9.720  19.125  70.570  1.00  0.00     1.687 C  
HETATM   11  C   UNL     1     -10.633  19.706  69.485  1.00  0.00     0.571 C  
HETATM   12  C   UNL     1     -10.165  17.717  70.977  1.00  0.00     3.025 C  
BRANCH  10  13
HETATM   13  O   UNL     1      -8.373  19.036  70.066  1.00  0.00     0.845 OA 
BRANCH  13  14
HETATM   14  C   UNL     1      -7.907  17.769  69.899  1.00  0.00     1.413 C  
HETATM   15  H   UNL     1      -6.136  18.677  69.325  1.00  0.00     0.000 HD 
HETATM   16  O   UNL     1      -8.503  16.760  70.243  1.00  0.00     1.772 OA 
HETATM   17  N   UNL     1      -6.692  17.824  69.278  1.00  0.00    -0.247 N  
BRANCH  17  18
HETATM   18  C   UNL     1      -6.205  16.704  68.573  1.00  0.00    -0.135 A  
HETATM   19  C   UNL     1      -5.996  16.743  67.176  1.00  0.00    -0.208 A  
HETATM   20  C   UNL     1      -5.413  14.416  68.725  1.00  0.00    -0.088 A  
HETATM   21  C   UNL     1      -5.475  15.563  66.600  1.00  0.00     1.593 A  
HETATM   22  C   UNL     1      -5.176  14.424  67.359  1.00  0.00     0.401 A  
HETATM   23  C   UNL     1      -5.936  15.551  69.331  1.00  0.00    -0.119 A  
BRANCH  19  24
HETATM   24  C   UNL     1      -6.264  17.928  66.305  1.00  0.00    -0.259 A  
HETATM   25  C   UNL     1      -7.158  18.952  66.668  1.00  0.00    -0.227 A  
HETATM   26  C   UNL     1      -7.411  20.047  65.830  1.00  0.00    -0.311 A  
HETATM   27  C   UNL     1      -6.801  20.130  64.585  1.00  0.00    -0.046 A  
HETATM   28  C   UNL     1      -5.920  19.131  64.188  1.00  0.00    -0.161 A  
HETATM   29  C   UNL     1      -5.646  18.058  65.043  1.00  0.00     0.022 A  
ENDBRANCH  19  24
ENDBRANCH  17  18
ENDBRANCH  13  14
ENDBRANCH  10  13
ENDBRANCH   6   7
ENDBRANCH   5   6
ENDBRANCH   2   5
BRANCH   4  30
HETATM   30  C   UNL     1     -11.498  17.022  66.349  1.00  0.00     1.163 A  
HETATM   31  C   UNL     1     -12.228  15.922  65.872  1.00  0.00     1.495 A  
HETATM   32  C   UNL     1     -10.245  16.788  66.922  1.00  0.00    -0.290 A  
HETATM   33  C   UNL     1      -9.659  15.523  66.866  1.00  0.00    -0.241 A  
HETATM   34  C   UNL     1     -11.670  14.637  65.877  1.00  0.00    -0.301 A  
HETATM   35  C   UNL     1     -10.364  14.435  66.340  1.00  0.00    -0.289 A  
BRANCH  35  36
HETATM   36  C   UNL     1      -9.722  13.063  66.313  1.00  0.00    -0.263 C  
BRANCH  36  37
HETATM   37  N   UNL     1      -8.391  13.048  66.940  1.00  0.00    -0.088 NA 
HETATM   38  C   UNL     1      -7.473  12.114  66.281  1.00  0.00     0.683 C  
HETATM   39  C   UNL     1      -8.432  12.816  68.392  1.00  0.00    -0.115 C  
HETATM   40  C   UNL     1      -8.758  11.370  68.774  1.00  0.00    -0.080 C  
HETATM   41  C   UNL     1      -7.769  10.642  66.583  1.00  0.00    -0.132 C  
HETATM   42  C   UNL     1      -7.812  10.375  68.093  1.00  0.00    -0.108 C  
BRANCH  42  43
HETATM   43  C   UNL     1      -6.418  10.413  68.720  1.00  0.00    -0.051 C  
HETATM   44  N   UNL     1      -5.770   9.217  68.788  1.00  0.00    -0.040 N  
HETATM   45  H2  UNL     1      -6.187   8.352  68.444  1.00  0.00     0.000 HD 
HETATM   46  O   UNL     1      -5.886  11.419  69.178  1.00  0.00    -0.044 OA 
HETATM   47  H1  UNL     1      -4.839   9.242  69.206  1.00  0.00     0.000 HD 
ENDBRANCH  42  43
ENDBRANCH  36  37
ENDBRANCH  35  36
ENDBRANCH   4  30
TORSDOF 11
ENDMDL
MODEL      284
REMARK 921   NORMALIZED FREE ENERGY PREDICTED BY IDOCK:   49.54 KCAL/MOL
REMARK 922        TOTAL FREE ENERGY PREDICTED BY IDOCK:   79.77 KCAL/MOL
REMARK 923 INTER-LIGAND FREE ENERGY PREDICTED BY IDOCK:   60.66 KCAL/MOL
REMARK 924 INTRA-LIGAND FREE ENERGY PREDICTED BY IDOCK:   19.11 KCAL/MOL
REMARK 927      BINDING AFFINITY PREDICTED BY RF-SCORE:    0.00 PKD
ROOT
HETATM    1  C   UNL     1     -11.623  18.422  70.047  1.00  0.00     5.431 C  
HETATM    2  N   UNL     1     -10.917  17.162  69.869  1.00  0.00     0.193 N  
HETATM    3  O   UNL     1     -11.041  16.826  72.151  1.00  0.00     0.514 OA 
HETATM    4  C   UNL     1     -10.713  16.400  71.042  1.00  0.00     0.614 C  
ENDROOT
BRANCH   2   5
HETATM    5  C   UNL     1     -10.733  16.604  68.529  1.00  0.00    -0.351 C  
BRANCH   5   6
HETATM    6  C   UNL     1     -11.925  16.086  67.707  1.00  0.00     0.507 C  
BRANCH   6   7
HETATM    7  N   UNL     1     -11.544  14.902  66.899  1.00  0.00    -0.321 NA 
HETATM    8  C   UNL     1     -11.962  13.641  67.528  1.00  0.00    -0.358 C  
HETATM    9  C   UNL     1     -10.112  14.833  66.561  1.00  0.00    -0.273 C  
HETATM   10  C   UNL     1      -9.639  13.325  68.509  1.00  0.00    -0.127 C  
HETATM   11  C   UNL     1      -9.232  14.614  67.789  1.00  0.00    -0.196 C  
HETATM   12  C   UNL     1     -11.147  13.286  68.774  1.00  0.00    -0.303 C  
BRANCH  10  13
HETATM   13  O   UNL     1      -9.305  12.190  67.686  1.00  0.00    -0.177 OA 
BRANCH  13  14
HETATM   14  C   UNL     1      -8.585  12.485  66.570  1.00  0.00     0.028 C  
HETATM   15  H   UNL     1      -9.446  10.778  65.770  1.00  0.00     0.000 HD 
HETATM   16  O   UNL     1      -7.964  13.522  66.400  1.00  0.00     0.661 OA 
HETATM   17  N   UNL     1      -8.669  11.435  65.701  1.00  0.00    -0.084 N  
BRANCH  17  18
HETATM   18  C   UNL     1      -7.683  11.256  64.708  1.00  0.00     0.923 A  
HETATM   19  C   UNL     1      -7.284   9.968  64.286  1.00  0.00    -0.133 A  
HETATM   20  C   UNL     1      -6.176  12.340  63.147  1.00  0.00     5.296 A  
HETATM   21  C   UNL     1      -6.310   9.932  63.263  1.00  0.00    -0.124 A  
HETATM   22  C   UNL     1      -5.774  11.094  62.693  1.00  0.00     0.067 A  
HETATM   23  C   UNL     1      -7.122  12.423  64.161  1.00  0.00     7.405 A  
BRANCH  19  24
HETATM   24  C   UNL     1      -7.830   8.684  64.825  1.00  0.00    -0.123 A  
HETATM   25  C   UNL     1      -7.025   7.728  65.471  1.00  0.00    -0.053 A  
HETATM   26  C   UNL     1      -7.551   6.521  65.953  1.00  0.00    -0.087 A  
HETATM   27  C   UNL     1      -8.894   6.221  65.769  1.00  0.00    -0.122 A  
HETATM   28  C   UNL     1      -9.717   7.137  65.125  1.00  0.00     1.709 A  
HETATM   29  C   UNL     1      -9.194   8.355  64.676  1.00  0.00     0.662 A  
ENDBRANCH  19  24
ENDBRANCH  17  18
ENDBRANCH  13  14
ENDBRANCH  10  13
ENDBRANCH   6   7
ENDBRANCH   5   6
ENDBRANCH   2   5
BRANCH   4  30
HETATM   30  C   UNL     1     -10.179  14.999  70.977  1.00  0.00     0.809 A  
HETATM   31  C   UNL     1      -9.194  14.716  70.017  1.00  0.00     0.740 A  
HETATM   32  C   UNL     1     -10.604  13.963  71.814  1.00  0.00     4.610 A  
HETATM   33  C   UNL     1      -9.950  12.731  71.816  1.00  0.00    13.409 A  
HETATM   34  C   UNL     1      -8.582  13.458  69.970  1.00  0.00     2.865 A  
HETATM   35  C   UNL     1      -8.929  12.467  70.896  1.00  0.00    10.110 A  
BRANCH  35  36
HETATM   36  C   UNL     1      -8.249  11.113  70.894  1.00  0.00     4.898 C  
BRANCH  36  37
HETATM   37  N   UNL     1      -9.165  10.019  70.539  1.00  0.00     0.101 NA 
HETATM   38  C   UNL     1     -10.351   9.978  71.401  1.00  0.00     0.871 C  
HETATM   39  C   UNL     1      -8.509   8.704  70.479  1.00  0.00    -0.150 C  
HETATM   40  C   UNL     1      -8.164   8.126  71.855  1.00  0.00    -0.180 C  
HETATM   41  C   UNL     1     -10.070   9.453  72.811  1.00  0.00     2.351 C  
HETATM   42  C   UNL     1      -9.389   8.079  72.775  1.00  0.00    -0.330 C  
BRANCH  42  43
HETATM   43  C   UNL     1     -10.357   6.972  72.356  1.00  0.00    -0.203 C  
HETATM   44  N   UNL     1      -9.782   5.787  72.008  1.00  0.00    -0.154 N  
HETATM   45  H2  UNL     1      -8.771   5.648  72.026  1.00  0.00     0.000 HD 
HETATM   46  O   UNL     1     -11.575   7.100  72.287  1.00  0.00    -0.268 OA 
HETATM   47  H1  UNL     1     -10.428   5.049  71.729  1.00  0.00     0.000 HD 
ENDBRANCH  42  43
ENDBRANCH  36  37
ENDBRANCH  35  36
ENDBRANCH   4  30
TORSDOF 11
ENDMDL
MODEL      285
REMARK 921   NORMALIZED FREE ENERGY PREDICTED BY IDOCK:   50.11 KCAL/MOL
REMARK 922        TOTAL FREE ENERGY PREDICTED BY IDOCK:   80.70 KCAL/MOL
REMARK 923 INTER-LIGAND FREE ENERGY PREDICTED BY IDOCK:   68.46 KCAL/MOL
REMARK 924 INTRA-LIGAND FREE ENERGY PREDICTED BY IDOCK:   12.23 KCAL/MOL
REMARK 927      BINDING AFFINITY PREDICTED BY RF-SCORE:    0.00 PKD
ROOT
HETATM    1  C   UNL     1     -11.518   9.551  66.564  1.00  0.00     2.102 C  
HETATM    2  N   UNL     1     -10.902  10.783  66.094  1.00  0.00    -0.119 N  
HETATM    3  O   UNL     1      -9.966  11.056  68.188  1.00  0.00    -0.168 OA 
HETATM    4  C   UNL     1     -10.079  11.454  67.026  1.00  0.00    -0.208 C  
ENDROOT
BRANCH   2   5
HETATM    5  C   UNL     1     -10.893  11.104  64.666  1.00  0.00    -0.225 C  
BRANCH   5   6
HETATM    6  C   UNL     1     -12.183  11.065  63.829  1.00  0.00     1.452 C  
BRANCH   6   7
HETATM    7  N   UNL     1     -12.594  12.429  63.417  1.00  0.00    -0.728 NA 
HETATM    8  C   UNL     1     -11.443  13.326  63.233  1.00  0.00     0.137 C  
HETATM    9  C   UNL     1     -13.574  13.065  64.314  1.00  0.00     1.789 C  
HETATM   10  C   UNL     1     -11.769  14.274  65.568  1.00  0.00    -0.353 C  
HETATM   11  C   UNL     1     -12.995  13.364  65.694  1.00  0.00    -0.145 C  
HETATM   12  C   UNL     1     -10.769  13.724  64.547  1.00  0.00    -0.405 C  
BRANCH  10  13
HETATM   13  O   UNL     1     -12.185  15.580  65.120  1.00  0.00     0.230 OA 
BRANCH  13  14
HETATM   14  C   UNL     1     -11.180  16.375  64.663  1.00  0.00    -0.192 C  
HETATM   15  H   UNL     1     -10.707  16.637  66.663  1.00  0.00     0.000 HD 
HETATM   16  O   UNL     1     -10.864  16.486  63.489  1.00  0.00     1.127 OA 
HETATM   17  N   UNL     1     -10.612  17.021  65.723  1.00  0.00    -0.287 N  
BRANCH  17  18
HETATM   18  C   UNL     1      -9.896  18.219  65.522  1.00  0.00     0.656 A  
HETATM   19  C   UNL     1     -10.204  19.395  66.243  1.00  0.00    -0.566 A  
HETATM   20  C   UNL     1      -8.076  19.304  64.341  1.00  0.00     4.520 A  
HETATM   21  C   UNL     1      -9.388  20.515  65.967  1.00  0.00    -0.005 A  
HETATM   22  C   UNL     1      -8.335  20.470  65.044  1.00  0.00     1.225 A  
HETATM   23  C   UNL     1      -8.861  18.182  64.572  1.00  0.00     6.798 A  
BRANCH  19  24
HETATM   24  C   UNL     1     -11.291  19.512  67.263  1.00  0.00     0.209 A  
HETATM   25  C   UNL     1     -12.331  20.453  67.160  1.00  0.00     4.164 A  
HETATM   26  C   UNL     1     -13.331  20.562  68.136  1.00  0.00     6.262 A  
HETATM   27  C   UNL     1     -13.298  19.753  69.265  1.00  0.00    14.817 A  
HETATM   28  C   UNL     1     -12.279  18.819  69.406  1.00  0.00     9.413 A  
HETATM   29  C   UNL     1     -11.302  18.692  68.412  1.00  0.00     1.288 A  
ENDBRANCH  19  24
ENDBRANCH  17  18
ENDBRANCH  13  14
ENDBRANCH  10  13
ENDBRANCH   6   7
ENDBRANCH   5   6
ENDBRANCH   2   5
BRANCH   4  30
HETATM   30  C   UNL     1      -9.229  12.621  66.616  1.00  0.00    -0.218 A  
HETATM   31  C   UNL     1      -8.715  13.446  67.629  1.00  0.00    -0.198 A  
HETATM   32  C   UNL     1      -8.922  12.932  65.289  1.00  0.00     1.070 A  
HETATM   33  C   UNL     1      -7.992  13.927  64.985  1.00  0.00     7.680 A  
HETATM   34  C   UNL     1      -7.833  14.490  67.322  1.00  0.00    -0.199 A  
HETATM   35  C   UNL     1      -7.435  14.713  65.999  1.00  0.00     3.633 A  
BRANCH  35  36
HETATM   36  C   UNL     1      -6.447  15.807  65.647  1.00  0.00     5.654 C  
BRANCH  36  37
HETATM   37  N   UNL     1      -6.924  17.145  66.031  1.00  0.00    -0.151 NA 
HETATM   38  C   UNL     1      -5.855  17.984  66.582  1.00  0.00    -0.157 C  
HETATM   39  C   UNL     1      -8.089  17.115  66.928  1.00  0.00    -0.216 C  
HETATM   40  C   UNL     1      -7.750  16.695  68.361  1.00  0.00    -0.200 C  
HETATM   41  C   UNL     1      -5.432  17.590  68.000  1.00  0.00    -0.134 C  
HETATM   42  C   UNL     1      -6.630  17.557  68.956  1.00  0.00    -0.243 C  
BRANCH  42  43
HETATM   43  C   UNL     1      -7.130  18.961  69.297  1.00  0.00    -0.208 C  
HETATM   44  N   UNL     1      -6.164  19.869  69.611  1.00  0.00    -0.321 N  
HETATM   45  H2  UNL     1      -5.173  19.628  69.618  1.00  0.00     0.000 HD 
HETATM   46  O   UNL     1      -8.310  19.292  69.335  1.00  0.00    -0.122 OA 
HETATM   47  H1  UNL     1      -6.497  20.806  69.838  1.00  0.00     0.000 HD 
ENDBRANCH  42  43
ENDBRANCH  36  37
ENDBRANCH  35  36
ENDBRANCH   4  30
TORSDOF 11
ENDMDL
MODEL      286
REMARK 921   NORMALIZED FREE ENERGY PREDICTED BY IDOCK:   57.21 KCAL/MOL
REMARK 922        TOTAL FREE ENERGY PREDICTED BY IDOCK:   92.36 KCAL/MOL
REMARK 923 INTER-LIGAND FREE ENERGY PREDICTED BY IDOCK:   91.09 KCAL/MOL
REMARK 924 INTRA-LIGAND FREE ENERGY PREDICTED BY IDOCK:    1.27 KCAL/MOL
REMARK 927      BINDING AFFINITY PREDICTED BY RF-SCORE:    0.00 PKD
ROOT
HETATM    1  C   UNL     1     -13.419   5.196  64.812  1.00  0.00     9.182 C  
HETATM    2  N   UNL     1     -12.486   6.245  65.195  1.00  0.00     6.797 N  
HETATM    3  O   UNL     1     -13.394   7.587  63.548  1.00  0.00    15.269 OA 
HETATM    4  C   UNL     1     -12.603   7.462  64.486  1.00  0.00    19.608 C  
ENDROOT
BRANCH   2   5
HETATM    5  C   UNL     1     -11.717   6.130  66.435  1.00  0.00     1.663 C  
BRANCH   5   6
HETATM    6  C   UNL     1     -11.540   4.778  67.145  1.00  0.00     4.264 C  
BRANCH   6   7
HETATM    7  N   UNL     1     -10.123   4.553  67.520  1.00  0.00    -0.094 NA 
HETATM    8  C   UNL     1      -9.941   3.311  68.285  1.00  0.00     0.498 C  
HETATM    9  C   UNL     1      -9.502   5.673  68.247  1.00  0.00    -0.114 C  
HETATM   10  C   UNL     1      -9.984   4.611  70.468  1.00  0.00    -0.225 C  
HETATM   11  C   UNL     1     -10.116   5.885  69.628  1.00  0.00    -0.260 C  
HETATM   12  C   UNL     1     -10.501   3.386  69.707  1.00  0.00     1.886 C  
BRANCH  10  13
HETATM   13  O   UNL     1      -8.595   4.384  70.781  1.00  0.00    -0.087 OA 
BRANCH  13  14
HETATM   14  C   UNL     1      -8.091   5.187  71.756  1.00  0.00    -0.116 C  
HETATM   15  H   UNL     1     -10.064   5.707  72.114  1.00  0.00     0.000 HD 
HETATM   16  O   UNL     1      -6.926   5.185  72.123  1.00  0.00    -0.075 OA 
HETATM   17  N   UNL     1      -9.090   5.987  72.230  1.00  0.00    -0.142 N  
BRANCH  17  18
HETATM   18  C   UNL     1      -8.781   7.200  72.880  1.00  0.00    -0.122 A  
HETATM   19  C   UNL     1      -9.738   8.229  73.021  1.00  0.00    -0.276 A  
HETATM   20  C   UNL     1      -7.095   8.473  74.073  1.00  0.00    -0.120 A  
HETATM   21  C   UNL     1      -9.305   9.379  73.720  1.00  0.00     4.803 A  
HETATM   22  C   UNL     1      -8.013   9.496  74.249  1.00  0.00     2.220 A  
HETATM   23  C   UNL     1      -7.474   7.329  73.381  1.00  0.00    -0.088 A  
BRANCH  19  24
HETATM   24  C   UNL     1     -11.142   8.166  72.511  1.00  0.00    -0.446 A  
HETATM   25  C   UNL     1     -11.575   7.191  71.594  1.00  0.00    -0.309 A  
HETATM   26  C   UNL     1     -12.890   7.159  71.112  1.00  0.00    -0.340 A  
HETATM   27  C   UNL     1     -13.805   8.126  71.508  1.00  0.00    -0.389 A  
HETATM   28  C   UNL     1     -13.410   9.112  72.405  1.00  0.00    -0.527 A  
HETATM   29  C   UNL     1     -12.104   9.119  72.909  1.00  0.00     0.692 A  
ENDBRANCH  19  24
ENDBRANCH  17  18
ENDBRANCH  13  14
ENDBRANCH  10  13
ENDBRANCH   6   7
ENDBRANCH   5   6
ENDBRANCH   2   5
BRANCH   4  30
HETATM   30  C   UNL     1     -11.844   8.686  64.909  1.00  0.00    13.462 A  
HETATM   31  C   UNL     1     -10.596   8.922  64.310  1.00  0.00     5.931 A  
HETATM   32  C   UNL     1     -12.306   9.600  65.860  1.00  0.00     9.472 A  
HETATM   33  C   UNL     1     -11.632  10.801  66.083  1.00  0.00     0.948 A  
HETATM   34  C   UNL     1      -9.883  10.096  64.584  1.00  0.00    -0.361 A  
HETATM   35  C   UNL     1     -10.416  11.063  65.445  1.00  0.00    -0.306 A  
BRANCH  35  36
HETATM   36  C   UNL     1      -9.684  12.361  65.721  1.00  0.00    -0.200 C  
BRANCH  36  37
HETATM   37  N   UNL     1     -10.536  13.362  66.380  1.00  0.00    -0.283 NA 
HETATM   38  C   UNL     1     -11.273  14.191  65.420  1.00  0.00    -0.325 C  
HETATM   39  C   UNL     1      -9.813  14.196  67.353  1.00  0.00    -0.239 C  
HETATM   40  C   UNL     1      -8.891  15.233  66.707  1.00  0.00    -0.302 C  
HETATM   41  C   UNL     1     -10.401  15.223  64.701  1.00  0.00     0.066 C  
HETATM   42  C   UNL     1      -9.639  16.108  65.695  1.00  0.00    -0.185 C  
BRANCH  42  43
HETATM   43  C   UNL     1     -10.562  17.105  66.397  1.00  0.00    -0.172 C  
HETATM   44  N   UNL     1     -11.384  17.821  65.580  1.00  0.00     0.796 N  
HETATM   45  H2  UNL     1     -11.384  17.701  64.567  1.00  0.00     0.000 HD 
HETATM   46  O   UNL     1     -10.577  17.311  67.606  1.00  0.00    -0.358 OA 
HETATM   47  H1  UNL     1     -12.000  18.486  66.048  1.00  0.00     0.000 HD 
ENDBRANCH  42  43
ENDBRANCH  36  37
ENDBRANCH  35  36
ENDBRANCH   4  30
TORSDOF 11
ENDMDL
MODEL      287
REMARK 921   NORMALIZED FREE ENERGY PREDICTED BY IDOCK:   64.18 KCAL/MOL
REMARK 922        TOTAL FREE ENERGY PREDICTED BY IDOCK:  103.82 KCAL/MOL
REMARK 923 INTER-LIGAND FREE ENERGY PREDICTED BY IDOCK:   91.83 KCAL/MOL
REMARK 924 INTRA-LIGAND FREE ENERGY PREDICTED BY IDOCK:   12.00 KCAL/MOL
REMARK 927      BINDING AFFINITY PREDICTED BY RF-SCORE:    0.00 PKD
ROOT
HETATM    1  C   UNL     1     -11.534   7.694  71.771  1.00  0.00    -0.264 C  
HETATM    2  N   UNL     1     -10.673   8.846  71.550  1.00  0.00    -0.300 N  
HETATM    3  O   UNL     1     -10.231   8.889  73.817  1.00  0.00     2.360 OA 
HETATM    4  C   UNL     1     -10.015   9.351  72.695  1.00  0.00     2.086 C  
ENDROOT
BRANCH   2   5
HETATM    5  C   UNL     1     -10.286   9.227  70.191  1.00  0.00    -0.215 C  
BRANCH   5   6
HETATM    6  C   UNL     1      -9.794  10.647  69.867  1.00  0.00     0.230 C  
BRANCH   6   7
HETATM    7  N   UNL     1     -10.785  11.382  69.044  1.00  0.00    -0.211 NA 
HETATM    8  C   UNL     1     -10.149  12.168  67.977  1.00  0.00    -0.204 C  
HETATM    9  C   UNL     1     -11.694  12.246  69.816  1.00  0.00    -0.298 C  
HETATM   10  C   UNL     1     -10.259  14.262  69.413  1.00  0.00     0.080 C  
HETATM   11  C   UNL     1     -10.971  13.417  70.473  1.00  0.00     1.331 C  
HETATM   12  C   UNL     1      -9.392  13.393  68.496  1.00  0.00    -0.097 C  
BRANCH  10  13
HETATM   13  O   UNL     1     -11.240  14.929  68.594  1.00  0.00    -0.251 OA 
BRANCH  13  14
HETATM   14  C   UNL     1     -10.747  15.500  67.461  1.00  0.00    -0.300 C  
HETATM   15  H   UNL     1     -12.453  16.674  67.512  1.00  0.00     0.000 HD 
HETATM   16  O   UNL     1      -9.630  15.295  67.011  1.00  0.00    -0.216 OA 
HETATM   17  N   UNL     1     -11.704  16.311  66.923  1.00  0.00     0.694 N  
BRANCH  17  18
HETATM   18  C   UNL     1     -11.660  16.650  65.555  1.00  0.00     0.938 A  
HETATM   19  C   UNL     1     -11.731  15.663  64.546  1.00  0.00    -0.220 A  
HETATM   20  C   UNL     1     -11.537  18.443  63.926  1.00  0.00     8.274 A  
HETATM   21  C   UNL     1     -11.707  16.141  63.217  1.00  0.00     3.298 A  
HETATM   22  C   UNL     1     -11.625  17.505  62.909  1.00  0.00    12.831 A  
HETATM   23  C   UNL     1     -11.544  18.016  65.248  1.00  0.00     2.380 A  
BRANCH  19  24
HETATM   24  C   UNL     1     -11.848  14.193  64.795  1.00  0.00    -0.425 A  
HETATM   25  C   UNL     1     -12.706  13.654  65.772  1.00  0.00    -0.470 A  
HETATM   26  C   UNL     1     -12.789  12.274  66.005  1.00  0.00     1.721 A  
HETATM   27  C   UNL     1     -11.988  11.394  65.289  1.00  0.00     0.652 A  
HETATM   28  C   UNL     1     -11.121  11.892  64.324  1.00  0.00    -0.418 A  
HETATM   29  C   UNL     1     -11.066  13.268  64.072  1.00  0.00    -0.342 A  
ENDBRANCH  19  24
ENDBRANCH  17  18
ENDBRANCH  13  14
ENDBRANCH  10  13
ENDBRANCH   6   7
ENDBRANCH   5   6
ENDBRANCH   2   5
BRANCH   4  30
HETATM   30  C   UNL     1      -8.951  10.404  72.581  1.00  0.00     9.443 A  
HETATM   31  C   UNL     1      -8.762  11.011  71.329  1.00  0.00     6.985 A  
HETATM   32  C   UNL     1      -8.142  10.813  73.644  1.00  0.00    11.922 A  
HETATM   33  C   UNL     1      -7.291  11.911  73.514  1.00  0.00    12.860 A  
HETATM   34  C   UNL     1      -7.858  12.070  71.178  1.00  0.00     7.976 A  
HETATM   35  C   UNL     1      -7.143  12.553  72.280  1.00  0.00     8.562 A  
BRANCH  35  36
HETATM   36  C   UNL     1      -6.193  13.726  72.151  1.00  0.00     1.099 C  
BRANCH  36  37
HETATM   37  N   UNL     1      -5.316  13.618  70.975  1.00  0.00    -0.151 NA 
HETATM   38  C   UNL     1      -5.224  14.876  70.227  1.00  0.00    -0.112 C  
HETATM   39  C   UNL     1      -5.665  12.499  70.087  1.00  0.00    -0.155 C  
HETATM   40  C   UNL     1      -6.935  12.739  69.265  1.00  0.00     0.041 C  
HETATM   41  C   UNL     1      -6.481  15.204  69.416  1.00  0.00    -0.136 C  
HETATM   42  C   UNL     1      -6.862  14.052  68.478  1.00  0.00    -0.104 C  
BRANCH  42  43
HETATM   43  C   UNL     1      -5.903  13.938  67.292  1.00  0.00     0.513 C  
HETATM   44  N   UNL     1      -5.827  12.707  66.714  1.00  0.00     0.099 N  
HETATM   45  H2  UNL     1      -6.373  11.914  67.049  1.00  0.00     0.000 HD 
HETATM   46  O   UNL     1      -5.201  14.852  66.872  1.00  0.00     0.341 OA 
HETATM   47  H1  UNL     1      -5.187  12.631  65.922  1.00  0.00     0.000 HD 
ENDBRANCH  42  43
ENDBRANCH  36  37
ENDBRANCH  35  36
ENDBRANCH   4  30
TORSDOF 11
ENDMDL
MODEL      288
REMARK 921   NORMALIZED FREE ENERGY PREDICTED BY IDOCK:   64.32 KCAL/MOL
REMARK 922        TOTAL FREE ENERGY PREDICTED BY IDOCK:  104.05 KCAL/MOL
REMARK 923 INTER-LIGAND FREE ENERGY PREDICTED BY IDOCK:   58.69 KCAL/MOL
REMARK 924 INTRA-LIGAND FREE ENERGY PREDICTED BY IDOCK:   45.36 KCAL/MOL
REMARK 927      BINDING AFFINITY PREDICTED BY RF-SCORE:    0.00 PKD
ROOT
HETATM    1  C   UNL     1      -7.688   2.320  67.276  1.00  0.00    -0.065 C  
HETATM    2  N   UNL     1      -7.738   3.769  67.150  1.00  0.00    -0.079 N  
HETATM    3  O   UNL     1      -6.000   3.648  65.633  1.00  0.00    -0.022 OA 
HETATM    4  C   UNL     1      -6.832   4.338  66.226  1.00  0.00    -0.054 C  
ENDROOT
BRANCH   2   5
HETATM    5  C   UNL     1      -8.865   4.519  67.707  1.00  0.00    -0.107 C  
BRANCH   5   6
HETATM    6  C   UNL     1      -9.383   4.248  69.129  1.00  0.00    -0.161 C  
BRANCH   6   7
HETATM    7  N   UNL     1      -8.872   5.258  70.086  1.00  0.00    -0.122 NA 
HETATM    8  C   UNL     1      -9.611   6.527  70.003  1.00  0.00    -0.159 C  
HETATM    9  C   UNL     1      -7.427   5.523  69.976  1.00  0.00    -0.070 C  
HETATM   10  C   UNL     1      -7.817   7.510  68.495  1.00  0.00    -0.122 C  
HETATM   11  C   UNL     1      -7.054   6.191  68.656  1.00  0.00    -0.082 C  
HETATM   12  C   UNL     1      -9.319   7.316  68.726  1.00  0.00    -0.143 C  
BRANCH  10  13
HETATM   13  O   UNL     1      -7.339   8.461  69.467  1.00  0.00    -0.069 OA 
BRANCH  13  14
HETATM   14  C   UNL     1      -8.108   8.575  70.583  1.00  0.00    -0.117 C  
HETATM   15  H   UNL     1      -9.365   7.218  69.649  1.00  0.00     0.000 HD 
HETATM   16  O   UNL     1      -7.774   9.165  71.598  1.00  0.00    -0.338 OA 
HETATM   17  N   UNL     1      -9.298   7.941  70.365  1.00  0.00    -0.159 N  
BRANCH  17  18
HETATM   18  C   UNL     1     -10.434   8.282  71.128  1.00  0.00    -0.209 A  
HETATM   19  C   UNL     1     -11.672   7.627  70.945  1.00  0.00    -0.291 A  
HETATM   20  C   UNL     1     -11.324   9.676  72.903  1.00  0.00     2.956 A  
HETATM   21  C   UNL     1     -12.720   8.045  71.796  1.00  0.00    -0.352 A  
HETATM   22  C   UNL     1     -12.548   9.041  72.766  1.00  0.00    -0.074 A  
HETATM   23  C   UNL     1     -10.270   9.305  72.078  1.00  0.00     0.114 A  
BRANCH  19  24
HETATM   24  C   UNL     1     -11.923   6.537  69.952  1.00  0.00    -0.046 A  
HETATM   25  C   UNL     1     -10.890   5.757  69.401  1.00  0.00    -0.393 A  
HETATM   26  C   UNL     1     -11.142   4.753  68.457  1.00  0.00     1.931 A  
HETATM   27  C   UNL     1     -12.437   4.522  68.010  1.00  0.00    15.553 A  
HETATM   28  C   UNL     1     -13.482   5.280  68.524  1.00  0.00    20.279 A  
HETATM   29  C   UNL     1     -13.228   6.259  69.491  1.00  0.00     6.367 A  
ENDBRANCH  19  24
ENDBRANCH  17  18
ENDBRANCH  13  14
ENDBRANCH  10  13
ENDBRANCH   6   7
ENDBRANCH   5   6
ENDBRANCH   2   5
BRANCH   4  30
HETATM   30  C   UNL     1      -6.911   5.790  65.852  1.00  0.00    -0.060 A  
HETATM   31  C   UNL     1      -6.301   6.191  64.653  1.00  0.00    -0.033 A  
HETATM   32  C   UNL     1      -7.554   6.760  66.625  1.00  0.00    -0.086 A  
HETATM   33  C   UNL     1      -7.736   8.055  66.140  1.00  0.00    -0.087 A  
HETATM   34  C   UNL     1      -6.424   7.509  64.195  1.00  0.00    -0.048 A  
HETATM   35  C   UNL     1      -7.177   8.442  64.918  1.00  0.00    -0.084 A  
BRANCH  35  36
HETATM   36  C   UNL     1      -7.362   9.861  64.420  1.00  0.00    -0.133 C  
BRANCH  36  37
HETATM   37  N   UNL     1      -7.742  10.793  65.492  1.00  0.00    -0.079 NA 
HETATM   38  C   UNL     1      -7.738  12.190  65.049  1.00  0.00     3.071 C  
HETATM   39  C   UNL     1      -6.950  10.624  66.720  1.00  0.00    -0.110 C  
HETATM   40  C   UNL     1      -5.518  11.156  66.605  1.00  0.00    -0.110 C  
HETATM   41  C   UNL     1      -6.334  12.775  64.868  1.00  0.00     9.314 C  
HETATM   42  C   UNL     1      -5.489  12.615  66.138  1.00  0.00     2.492 C  
BRANCH  42  43
HETATM   43  C   UNL     1      -5.941  13.564  67.248  1.00  0.00     0.353 C  
HETATM   44  N   UNL     1      -5.288  14.759  67.303  1.00  0.00     0.416 N  
HETATM   45  H2  UNL     1      -4.547  15.004  66.647  1.00  0.00     0.000 HD 
HETATM   46  O   UNL     1      -6.803  13.304  68.081  1.00  0.00    -0.087 OA 
HETATM   47  H1  UNL     1      -5.590  15.392  68.044  1.00  0.00     0.000 HD 
ENDBRANCH  42  43
ENDBRANCH  36  37
ENDBRANCH  35  36
ENDBRANCH   4  30
TORSDOF 11
ENDMDL
MODEL      289
REMARK 921   NORMALIZED FREE ENERGY PREDICTED BY IDOCK:   66.55 KCAL/MOL
REMARK 922        TOTAL FREE ENERGY PREDICTED BY IDOCK:  107.71 KCAL/MOL
REMARK 923 INTER-LIGAND FREE ENERGY PREDICTED BY IDOCK:   47.16 KCAL/MOL
REMARK 924 INTRA-LIGAND FREE ENERGY PREDICTED BY IDOCK:   60.55 KCAL/MOL
REMARK 927      BINDING AFFINITY PREDICTED BY RF-SCORE:    0.00 PKD
ROOT
HETATM    1  C   UNL     1     -11.690  10.227  66.653  1.00  0.00     1.897 C  
HETATM    2  N   UNL     1     -11.227  11.602  66.549  1.00  0.00    -0.312 N  
HETATM    3  O   UNL     1     -10.653  11.527  68.785  1.00  0.00    -0.200 OA 
HETATM    4  C   UNL     1     -10.666  12.153  67.724  1.00  0.00    -0.209 C  
ENDROOT
BRANCH   2   5
HETATM    5  C   UNL     1     -11.069  12.229  65.236  1.00  0.00    -0.316 C  
BRANCH   5   6
HETATM    6  C   UNL     1     -12.287  12.587  64.368  1.00  0.00    -0.455 C  
BRANCH   6   7
HETATM    7  N   UNL     1     -12.329  14.040  64.078  1.00  0.00    -0.683 NA 
HETATM    8  C   UNL     1     -10.994  14.594  63.812  1.00  0.00     1.391 C  
HETATM    9  C   UNL     1     -12.999  14.847  65.112  1.00  0.00     0.452 C  
HETATM   10  C   UNL     1     -10.815  15.400  66.215  1.00  0.00    -0.301 C  
HETATM   11  C   UNL     1     -12.232  14.859  66.431  1.00  0.00     0.110 C  
HETATM   12  C   UNL     1     -10.113  14.679  65.061  1.00  0.00    -0.318 C  
BRANCH  10  13
HETATM   13  O   UNL     1     -10.882  16.802  65.887  1.00  0.00    -0.202 OA 
BRANCH  13  14
HETATM   14  C   UNL     1      -9.759  17.308  65.310  1.00  0.00     0.967 C  
HETATM   15  H   UNL     1      -8.946  17.222  67.214  1.00  0.00     0.000 HD 
HETATM   16  O   UNL     1      -9.595  17.436  64.107  1.00  0.00     4.922 OA 
HETATM   17  N   UNL     1      -8.875  17.652  66.292  1.00  0.00    -0.219 N  
BRANCH  17  18
HETATM   18  C   UNL     1      -7.863  18.600  66.035  1.00  0.00    -0.156 A  
HETATM   19  C   UNL     1      -7.690  19.738  66.856  1.00  0.00    -0.300 A  
HETATM   20  C   UNL     1      -5.989  19.215  64.624  1.00  0.00    -0.308 A  
HETATM   21  C   UNL     1      -6.620  20.591  66.505  1.00  0.00    -0.295 A  
HETATM   22  C   UNL     1      -5.775  20.330  65.418  1.00  0.00    -0.217 A  
HETATM   23  C   UNL     1      -7.037  18.355  64.925  1.00  0.00     1.303 A  
BRANCH  19  24
HETATM   24  C   UNL     1      -8.531  20.068  68.047  1.00  0.00    -0.256 A  
HETATM   25  C   UNL     1      -8.172  21.057  68.981  1.00  0.00     2.122 A  
HETATM   26  C   UNL     1      -8.963  21.340  70.103  1.00  0.00     4.312 A  
HETATM   27  C   UNL     1     -10.122  20.613  70.343  1.00  0.00     1.296 A  
HETATM   28  C   UNL     1     -10.502  19.620  69.449  1.00  0.00     0.218 A  
HETATM   29  C   UNL     1      -9.726  19.365  68.312  1.00  0.00    -0.480 A  
ENDBRANCH  19  24
ENDBRANCH  17  18
ENDBRANCH  13  14
ENDBRANCH  10  13
ENDBRANCH   6   7
ENDBRANCH   5   6
ENDBRANCH   2   5
BRANCH   4  30
HETATM   30  C   UNL     1      -9.971  13.484  67.705  1.00  0.00    -0.229 A  
HETATM   31  C   UNL     1      -9.632  14.064  68.937  1.00  0.00    -0.016 A  
HETATM   32  C   UNL     1      -9.644  14.175  66.535  1.00  0.00    -0.310 A  
HETATM   33  C   UNL     1      -8.851  15.322  66.581  1.00  0.00    -0.328 A  
HETATM   34  C   UNL     1      -8.894  15.253  68.989  1.00  0.00    -0.226 A  
HETATM   35  C   UNL     1      -8.464  15.871  67.808  1.00  0.00    -0.165 A  
BRANCH  35  36
HETATM   36  C   UNL     1      -7.627  17.133  67.839  1.00  0.00    -0.175 C  
BRANCH  36  37
HETATM   37  N   UNL     1      -8.246  18.205  68.634  1.00  0.00    -0.304 NA 
HETATM   38  C   UNL     1      -7.283  18.880  69.510  1.00  0.00     0.007 C  
HETATM   39  C   UNL     1      -9.429  17.764  69.388  1.00  0.00     0.277 C  
HETATM   40  C   UNL     1      -9.095  16.894  70.603  1.00  0.00     3.838 C  
HETATM   41  C   UNL     1      -6.867  18.048  70.726  1.00  0.00     2.308 C  
HETATM   42  C   UNL     1      -8.085  17.580  71.532  1.00  0.00     9.969 C  
BRANCH  42  43
HETATM   43  C   UNL     1      -8.733  18.727  72.308  1.00  0.00    10.174 C  
HETATM   44  N   UNL     1      -8.348  19.980  71.936  1.00  0.00     1.931 N  
HETATM   45  H2  UNL     1      -7.673  20.142  71.188  1.00  0.00     0.000 HD 
HETATM   46  O   UNL     1      -9.523  18.584  73.235  1.00  0.00     6.645 OA 
HETATM   47  H1  UNL     1      -8.781  20.745  72.453  1.00  0.00     0.000 HD 
ENDBRANCH  42  43
ENDBRANCH  36  37
ENDBRANCH  35  36
ENDBRANCH   4  30
TORSDOF 11
ENDMDL
MODEL      290
REMARK 921   NORMALIZED FREE ENERGY PREDICTED BY IDOCK:   69.01 KCAL/MOL
REMARK 922        TOTAL FREE ENERGY PREDICTED BY IDOCK:  111.76 KCAL/MOL
REMARK 923 INTER-LIGAND FREE ENERGY PREDICTED BY IDOCK:   37.05 KCAL/MOL
REMARK 924 INTRA-LIGAND FREE ENERGY PREDICTED BY IDOCK:   74.71 KCAL/MOL
REMARK 927      BINDING AFFINITY PREDICTED BY RF-SCORE:    0.00 PKD
ROOT
HETATM    1  C   UNL     1      -5.945  12.819  66.217  1.00  0.00     2.609 C  
HETATM    2  N   UNL     1      -6.734  12.642  67.427  1.00  0.00    -0.154 N  
HETATM    3  O   UNL     1      -8.413  11.717  66.139  1.00  0.00    -0.126 OA 
HETATM    4  C   UNL     1      -7.989  12.014  67.257  1.00  0.00    -0.174 C  
ENDROOT
BRANCH   2   5
HETATM    5  C   UNL     1      -6.114  12.815  68.742  1.00  0.00    -0.071 C  
BRANCH   5   6
HETATM    6  C   UNL     1      -6.958  12.834  70.027  1.00  0.00     0.719 C  
BRANCH   6   7
HETATM    7  N   UNL     1      -8.306  13.397  69.775  1.00  0.00     1.540 NA 
HETATM    8  C   UNL     1      -8.316  14.328  68.638  1.00  0.00    -0.135 C  
HETATM    9  C   UNL     1      -8.922  14.044  70.946  1.00  0.00     5.015 C  
HETATM   10  C   UNL     1      -8.129  16.310  70.218  1.00  0.00     1.802 C  
HETATM   11  C   UNL     1      -8.180  15.306  71.374  1.00  0.00     3.902 C  
HETATM   12  C   UNL     1      -7.612  15.654  68.934  1.00  0.00    -0.173 C  
BRANCH  10  13
HETATM   13  O   UNL     1      -9.457  16.808  69.958  1.00  0.00     0.608 OA 
BRANCH  13  14
HETATM   14  C   UNL     1     -10.361  16.572  70.946  1.00  0.00     1.369 C  
HETATM   15  H   UNL     1      -9.161  14.951  71.423  1.00  0.00     0.000 HD 
HETATM   16  O   UNL     1     -11.264  17.332  71.256  1.00  0.00     0.570 OA 
HETATM   17  N   UNL     1     -10.093  15.356  71.507  1.00  0.00     1.242 N  
BRANCH  17  18
HETATM   18  C   UNL     1     -11.103  14.657  72.201  1.00  0.00     1.009 A  
HETATM   19  C   UNL     1     -11.861  13.641  71.578  1.00  0.00     0.566 A  
HETATM   20  C   UNL     1     -12.257  14.358  74.313  1.00  0.00     0.930 A  
HETATM   21  C   UNL     1     -12.819  13.001  72.396  1.00  0.00    -0.122 A  
HETATM   22  C   UNL     1     -13.006  13.341  73.742  1.00  0.00     4.260 A  
HETATM   23  C   UNL     1     -11.313  15.023  73.542  1.00  0.00     0.532 A  
BRANCH  19  24
HETATM   24  C   UNL     1     -11.699  13.203  70.158  1.00  0.00    -0.250 A  
HETATM   25  C   UNL     1     -12.283  13.891  69.078  1.00  0.00    -0.274 A  
HETATM   26  C   UNL     1     -12.138  13.454  67.755  1.00  0.00    -0.299 A  
HETATM   27  C   UNL     1     -11.429  12.292  67.476  1.00  0.00    -0.414 A  
HETATM   28  C   UNL     1     -10.848  11.580  68.518  1.00  0.00    -0.254 A  
HETATM   29  C   UNL     1     -10.969  12.039  69.834  1.00  0.00     0.285 A  
ENDBRANCH  19  24
ENDBRANCH  17  18
ENDBRANCH  13  14
ENDBRANCH  10  13
ENDBRANCH   6   7
ENDBRANCH   5   6
ENDBRANCH   2   5
BRANCH   4  30
HETATM   30  C   UNL     1      -8.814  11.592  68.438  1.00  0.00    -0.161 A  
HETATM   31  C   UNL     1      -8.254  10.667  69.332  1.00  0.00    -0.089 A  
HETATM   32  C   UNL     1     -10.103  12.066  68.697  1.00  0.00    -0.170 A  
HETATM   33  C   UNL     1     -10.747  11.765  69.897  1.00  0.00     0.485 A  
HETATM   34  C   UNL     1      -8.927  10.309  70.506  1.00  0.00     0.868 A  
HETATM   35  C   UNL     1     -10.164  10.886  70.816  1.00  0.00     2.024 A  
BRANCH  35  36
HETATM   36  C   UNL     1     -10.892  10.549  72.102  1.00  0.00     4.272 C  
BRANCH  36  37
HETATM   37  N   UNL     1     -12.192   9.903  71.865  1.00  0.00    -0.331 NA 
HETATM   38  C   UNL     1     -12.470   8.832  72.827  1.00  0.00    -0.031 C  
HETATM   39  C   UNL     1     -12.366   9.430  70.483  1.00  0.00     0.062 C  
HETATM   40  C   UNL     1     -11.550   8.176  70.155  1.00  0.00     0.095 C  
HETATM   41  C   UNL     1     -11.653   7.560  72.587  1.00  0.00    -0.331 C  
HETATM   42  C   UNL     1     -11.822   7.044  71.153  1.00  0.00    -0.380 C  
BRANCH  42  43
HETATM   43  C   UNL     1     -13.200   6.423  70.927  1.00  0.00     1.109 C  
HETATM   44  N   UNL     1     -14.221   7.306  70.741  1.00  0.00    -0.268 N  
HETATM   45  H2  UNL     1     -14.075   8.315  70.752  1.00  0.00     0.000 HD 
HETATM   46  O   UNL     1     -13.433   5.218  70.939  1.00  0.00     5.383 OA 
HETATM   47  H1  UNL     1     -15.141   6.891  70.590  1.00  0.00     0.000 HD 
ENDBRANCH  42  43
ENDBRANCH  36  37
ENDBRANCH  35  36
ENDBRANCH   4  30
TORSDOF 11
ENDMDL
MODEL      291
REMARK 921   NORMALIZED FREE ENERGY PREDICTED BY IDOCK:   71.92 KCAL/MOL
REMARK 922        TOTAL FREE ENERGY PREDICTED BY IDOCK:  116.54 KCAL/MOL
REMARK 923 INTER-LIGAND FREE ENERGY PREDICTED BY IDOCK:  100.59 KCAL/MOL
REMARK 924 INTRA-LIGAND FREE ENERGY PREDICTED BY IDOCK:   15.95 KCAL/MOL
REMARK 927      BINDING AFFINITY PREDICTED BY RF-SCORE:    0.00 PKD
ROOT
HETATM    1  C   UNL     1     -10.644   7.014  72.204  1.00  0.00    -0.213 C  
HETATM    2  N   UNL     1     -10.381   8.369  71.744  1.00  0.00    -0.238 N  
HETATM    3  O   UNL     1      -9.098   8.710  73.634  1.00  0.00    -0.102 OA 
HETATM    4  C   UNL     1      -9.523   9.141  72.560  1.00  0.00     0.908 C  
ENDROOT
BRANCH   2   5
HETATM    5  C   UNL     1     -10.730   8.765  70.378  1.00  0.00    -0.225 C  
BRANCH   5   6
HETATM    6  C   UNL     1     -12.114   8.455  69.784  1.00  0.00     1.134 C  
BRANCH   6   7
HETATM    7  N   UNL     1     -12.190   7.053  69.307  1.00  0.00     0.984 NA 
HETATM    8  C   UNL     1     -12.989   6.204  70.202  1.00  0.00     3.395 C  
HETATM    9  C   UNL     1     -10.882   6.421  69.068  1.00  0.00    -0.327 C  
HETATM   10  C   UNL     1     -10.878   5.367  71.344  1.00  0.00    -0.140 C  
HETATM   11  C   UNL     1     -10.083   6.224  70.353  1.00  0.00    -0.226 C  
HETATM   12  C   UNL     1     -12.298   5.909  71.535  1.00  0.00     0.564 C  
BRANCH  10  13
HETATM   13  O   UNL     1     -10.982   4.022  70.838  1.00  0.00     1.155 OA 
BRANCH  13  14
HETATM   14  C   UNL     1      -9.792   3.419  70.568  1.00  0.00     0.029 C  
HETATM   15  H   UNL     1      -9.062   5.344  70.340  1.00  0.00     0.000 HD 
HETATM   16  O   UNL     1      -9.573   2.226  70.704  1.00  0.00    -0.135 OA 
HETATM   17  N   UNL     1      -8.913   4.360  70.116  1.00  0.00    -0.083 N  
BRANCH  17  18
HETATM   18  C   UNL     1      -7.801   3.977  69.339  1.00  0.00    -0.052 A  
HETATM   19  C   UNL     1      -7.373   4.742  68.231  1.00  0.00    -0.066 A  
HETATM   20  C   UNL     1      -6.009   2.368  69.042  1.00  0.00    -0.024 A  
HETATM   21  C   UNL     1      -6.227   4.261  67.558  1.00  0.00    -0.036 A  
HETATM   22  C   UNL     1      -5.548   3.104  67.962  1.00  0.00    -0.018 A  
HETATM   23  C   UNL     1      -7.140   2.797  69.725  1.00  0.00    -0.040 A  
BRANCH  19  24
HETATM   24  C   UNL     1      -8.027   6.001  67.758  1.00  0.00    -0.105 A  
HETATM   25  C   UNL     1      -7.974   7.204  68.485  1.00  0.00    -0.124 A  
HETATM   26  C   UNL     1      -8.609   8.370  68.037  1.00  0.00    -0.135 A  
HETATM   27  C   UNL     1      -9.347   8.356  66.860  1.00  0.00    -0.221 A  
HETATM   28  C   UNL     1      -9.431   7.182  66.121  1.00  0.00    -0.059 A  
HETATM   29  C   UNL     1      -8.767   6.030  66.557  1.00  0.00    -0.128 A  
ENDBRANCH  19  24
ENDBRANCH  17  18
ENDBRANCH  13  14
ENDBRANCH  10  13
ENDBRANCH   6   7
ENDBRANCH   5   6
ENDBRANCH   2   5
BRANCH   4  30
HETATM   30  C   UNL     1      -9.011  10.477  72.107  1.00  0.00     8.430 A  
HETATM   31  C   UNL     1      -9.612  11.062  70.982  1.00  0.00     4.859 A  
HETATM   32  C   UNL     1      -7.975  11.170  72.740  1.00  0.00    14.346 A  
HETATM   33  C   UNL     1      -7.662  12.479  72.373  1.00  0.00    14.296 A  
HETATM   34  C   UNL     1      -9.253  12.351  70.568  1.00  0.00     6.566 A  
HETATM   35  C   UNL     1      -8.301  13.084  71.285  1.00  0.00    11.016 A  
BRANCH  35  36
HETATM   36  C   UNL     1      -7.928  14.497  70.884  1.00  0.00     2.586 C  
BRANCH  36  37
HETATM   37  N   UNL     1      -8.640  15.516  71.670  1.00  0.00     4.635 NA 
HETATM   38  C   UNL     1      -9.905  15.922  71.049  1.00  0.00     1.824 C  
HETATM   39  C   UNL     1      -7.811  16.687  71.997  1.00  0.00    11.128 C  
HETATM   40  C   UNL     1      -7.560  17.613  70.804  1.00  0.00     4.438 C  
HETATM   41  C   UNL     1      -9.728  16.815  69.819  1.00  0.00     0.368 C  
HETATM   42  C   UNL     1      -8.870  18.046  70.135  1.00  0.00     2.507 C  
BRANCH  42  43
HETATM   43  C   UNL     1      -9.623  19.063  70.993  1.00  0.00     3.253 C  
HETATM   44  N   UNL     1      -8.857  19.786  71.857  1.00  0.00     2.790 N  
HETATM   45  H2  UNL     1      -7.847  19.658  71.926  1.00  0.00     0.000 HD 
HETATM   46  O   UNL     1     -10.838  19.232  70.971  1.00  0.00     2.077 OA 
HETATM   47  H1  UNL     1      -9.359  20.465  72.430  1.00  0.00     0.000 HD 
ENDBRANCH  42  43
ENDBRANCH  36  37
ENDBRANCH  35  36
ENDBRANCH   4  30
TORSDOF 11
ENDMDL
