MODEL        1
REMARK 921   NORMALIZED FREE ENERGY PREDICTED BY IDOCK:   -6.24 KCAL/MOL
REMARK 922        TOTAL FREE ENERGY PREDICTED BY IDOCK:   -8.26 KCAL/MOL
REMARK 923 INTER-LIGAND FREE ENERGY PREDICTED BY IDOCK:   -7.33 KCAL/MOL
REMARK 924 INTRA-LIGAND FREE ENERGY PREDICTED BY IDOCK:   -0.93 KCAL/MOL
REMARK 927      BINDING AFFINITY PREDICTED BY RF-SCORE:    0.00 PKD
ROOT
HETATM    1  N   UNL     1      -9.890  20.473  66.511  1.00  0.00    -0.618 N  
HETATM    2  C   UNL     1      -9.104  19.409  66.147  1.00  0.00    -0.284 C  
HETATM    3  H2  UNL     1      -9.607  21.419  66.256  1.00  0.00     0.000 HD 
HETATM    4  H1  UNL     1     -10.754  20.329  67.034  1.00  0.00     0.000 HD 
HETATM    5  O   UNL     1      -8.063  19.583  65.517  1.00  0.00    -0.356 OA 
ENDROOT
BRANCH   2   6
HETATM    6  C   UNL     1      -9.635  18.100  66.568  1.00  0.00    -0.317 A  
HETATM    7  N   UNL     1      -9.320  16.937  65.978  1.00  0.00    -0.485 NA 
HETATM    8  N   UNL     1     -10.100  16.061  66.635  1.00  0.00    -0.269 NA 
HETATM    9  C   UNL     1     -10.784  16.671  67.637  1.00  0.00    -0.306 A  
HETATM   10  N   UNL     1     -10.533  17.957  67.618  1.00  0.00    -0.386 NA 
BRANCH   8  11
HETATM   11  C1* UNL     1     -10.139  14.652  66.298  1.00  0.00    -0.294 C  
HETATM   12  O4* UNL     1     -10.295  14.530  64.865  1.00  0.00    -0.417 OA 
HETATM   13  C4* UNL     1     -11.688  14.274  64.584  1.00  0.00    -0.430 C  
HETATM   14  C3* UNL     1     -12.267  13.584  65.821  1.00  0.00    -0.461 C  
HETATM   15  H2* UNL     1     -11.396  12.096  67.846  1.00  0.00     0.000 HD 
HETATM   16  C2* UNL     1     -11.259  13.835  66.946  1.00  0.00    -0.313 C  
HETATM   17  H3* UNL     1     -12.755  11.735  66.396  1.00  0.00     0.000 HD 
HETATM   18  O3* UNL     1     -12.396  12.162  65.628  1.00  0.00    -0.560 OA 
HETATM   19  O2* UNL     1     -10.701  12.603  67.443  1.00  0.00    -0.225 OA 
BRANCH  13  20
HETATM   20  C5* UNL     1     -12.385  15.592  64.227  1.00  0.00     0.004 C  
HETATM   21  O5* UNL     1     -11.412  16.545  63.798  1.00  0.00    -1.615 OA 
HETATM   22  H5* UNL     1     -11.843  17.362  63.576  1.00  0.00     0.000 HD 
ENDBRANCH  13  20
ENDBRANCH   8  11
ENDBRANCH   2   6
TORSDOF 3
ENDMDL
MODEL        2
REMARK 921   NORMALIZED FREE ENERGY PREDICTED BY IDOCK:   -6.00 KCAL/MOL
REMARK 922        TOTAL FREE ENERGY PREDICTED BY IDOCK:   -7.98 KCAL/MOL
REMARK 923 INTER-LIGAND FREE ENERGY PREDICTED BY IDOCK:   -7.07 KCAL/MOL
REMARK 924 INTRA-LIGAND FREE ENERGY PREDICTED BY IDOCK:   -0.92 KCAL/MOL
REMARK 927      BINDING AFFINITY PREDICTED BY RF-SCORE:    0.00 PKD
ROOT
HETATM    1  N   UNL     1     -11.411  11.522  63.174  1.00  0.00    -0.867 N  
HETATM    2  C   UNL     1     -12.378  12.300  63.759  1.00  0.00    -0.538 C  
HETATM    3  H2  UNL     1     -11.645  10.581  62.857  1.00  0.00     0.000 HD 
HETATM    4  H1  UNL     1     -10.461  11.873  63.050  1.00  0.00     0.000 HD 
HETATM    5  O   UNL     1     -13.522  11.876  63.908  1.00  0.00    -0.559 OA 
ENDROOT
BRANCH   2   6
HETATM    6  C   UNL     1     -11.909  13.639  64.158  1.00  0.00    -0.422 A  
HETATM    7  N   UNL     1     -10.785  13.865  64.855  1.00  0.00    -0.386 NA 
HETATM    8  N   UNL     1     -10.830  15.194  65.051  1.00  0.00    -0.417 NA 
HETATM    9  C   UNL     1     -11.895  15.746  64.414  1.00  0.00    -0.148 A  
HETATM   10  N   UNL     1     -12.609  14.800  63.856  1.00  0.00    -0.772 NA 
BRANCH   8  11
HETATM   11  C1* UNL     1      -9.824  15.900  65.819  1.00  0.00    -0.345 C  
HETATM   12  O4* UNL     1      -9.560  15.146  67.025  1.00  0.00    -0.217 OA 
HETATM   13  C4* UNL     1     -10.303  15.750  68.105  1.00  0.00    -0.242 C  
HETATM   14  C3* UNL     1     -10.486  17.225  67.743  1.00  0.00    -0.371 C  
HETATM   15  H2* UNL     1      -9.268  19.063  66.256  1.00  0.00     0.000 HD 
HETATM   16  C2* UNL     1     -10.180  17.326  66.246  1.00  0.00    -0.342 C  
HETATM   17  H3* UNL     1      -9.678  18.985  68.233  1.00  0.00     0.000 HD 
HETATM   18  O3* UNL     1      -9.564  18.069  68.459  1.00  0.00    -0.310 OA 
HETATM   19  O2* UNL     1      -9.046  18.178  65.992  1.00  0.00    -0.513 OA 
BRANCH  13  20
HETATM   20  C5* UNL     1     -11.621  14.993  68.302  1.00  0.00    -0.334 C  
HETATM   21  O5* UNL     1     -11.495  13.672  67.774  1.00  0.00    -0.284 OA 
HETATM   22  H5* UNL     1     -12.312  13.202  67.895  1.00  0.00     0.000 HD 
ENDBRANCH  13  20
ENDBRANCH   8  11
ENDBRANCH   2   6
TORSDOF 3
ENDMDL
MODEL        3
REMARK 921   NORMALIZED FREE ENERGY PREDICTED BY IDOCK:   -5.99 KCAL/MOL
REMARK 922        TOTAL FREE ENERGY PREDICTED BY IDOCK:   -7.97 KCAL/MOL
REMARK 923 INTER-LIGAND FREE ENERGY PREDICTED BY IDOCK:   -7.54 KCAL/MOL
REMARK 924 INTRA-LIGAND FREE ENERGY PREDICTED BY IDOCK:   -0.43 KCAL/MOL
REMARK 927      BINDING AFFINITY PREDICTED BY RF-SCORE:    0.00 PKD
ROOT
HETATM    1  N   UNL     1     -13.804  15.311  70.609  1.00  0.00    -0.775 N  
HETATM    2  C   UNL     1     -12.446  15.464  70.722  1.00  0.00    -0.423 C  
HETATM    3  H2  UNL     1     -14.412  15.631  71.363  1.00  0.00     0.000 HD 
HETATM    4  H1  UNL     1     -14.214  14.881  69.780  1.00  0.00     0.000 HD 
HETATM    5  O   UNL     1     -11.952  15.982  71.721  1.00  0.00    -0.447 OA 
ENDROOT
BRANCH   2   6
HETATM    6  C   UNL     1     -11.688  14.970  69.558  1.00  0.00    -0.322 A  
HETATM    7  N   UNL     1     -12.255  14.465  68.452  1.00  0.00    -0.224 NA 
HETATM    8  N   UNL     1     -11.187  14.076  67.734  1.00  0.00    -0.270 NA 
HETATM    9  C   UNL     1     -10.028  14.422  68.353  1.00  0.00    -0.241 A  
HETATM   10  N   UNL     1     -10.299  14.970  69.511  1.00  0.00    -0.238 NA 
BRANCH   8  11
HETATM   11  C1* UNL     1     -11.314  13.412  66.452  1.00  0.00    -0.313 C  
HETATM   12  O4* UNL     1     -10.246  13.874  65.592  1.00  0.00    -0.306 OA 
HETATM   13  C4* UNL     1     -10.780  14.892  64.719  1.00  0.00    -0.341 C  
HETATM   14  C3* UNL     1     -12.274  14.601  64.566  1.00  0.00    -0.456 C  
HETATM   15  H2* UNL     1     -13.910  12.510  64.733  1.00  0.00     0.000 HD 
HETATM   16  C2* UNL     1     -12.628  13.638  65.702  1.00  0.00    -0.484 C  
HETATM   17  H3* UNL     1     -13.494  13.777  63.215  1.00  0.00     0.000 HD 
HETATM   18  O3* UNL     1     -12.567  13.958  63.310  1.00  0.00    -0.824 OA 
HETATM   19  O2* UNL     1     -13.093  12.370  65.198  1.00  0.00    -0.558 OA 
BRANCH  13  20
HETATM   20  C5* UNL     1     -10.476  16.276  65.306  1.00  0.00    -0.300 C  
HETATM   21  O5* UNL     1     -11.247  17.263  64.620  1.00  0.00    -1.014 OA 
HETATM   22  H5* UNL     1     -11.059  18.121  64.983  1.00  0.00     0.000 HD 
ENDBRANCH  13  20
ENDBRANCH   8  11
ENDBRANCH   2   6
TORSDOF 3
ENDMDL
MODEL        4
REMARK 921   NORMALIZED FREE ENERGY PREDICTED BY IDOCK:   -5.79 KCAL/MOL
REMARK 922        TOTAL FREE ENERGY PREDICTED BY IDOCK:   -7.74 KCAL/MOL
REMARK 923 INTER-LIGAND FREE ENERGY PREDICTED BY IDOCK:   -7.65 KCAL/MOL
REMARK 924 INTRA-LIGAND FREE ENERGY PREDICTED BY IDOCK:   -0.09 KCAL/MOL
REMARK 927      BINDING AFFINITY PREDICTED BY RF-SCORE:    0.00 PKD
ROOT
HETATM    1  N   UNL     1     -13.810  15.539  70.921  1.00  0.00    -0.854 N  
HETATM    2  C   UNL     1     -12.477  15.840  71.033  1.00  0.00    -0.420 C  
HETATM    3  H2  UNL     1     -14.429  15.689  71.717  1.00  0.00     0.000 HD 
HETATM    4  H1  UNL     1     -14.190  15.165  70.051  1.00  0.00     0.000 HD 
HETATM    5  O   UNL     1     -12.019  16.290  72.081  1.00  0.00    -0.504 OA 
ENDROOT
BRANCH   2   6
HETATM    6  C   UNL     1     -11.699  15.585  69.807  1.00  0.00    -0.349 A  
HETATM    7  N   UNL     1     -11.821  14.479  69.058  1.00  0.00    -0.314 NA 
HETATM    8  N   UNL     1     -10.868  14.657  68.126  1.00  0.00    -0.247 NA 
HETATM    9  C   UNL     1     -10.267  15.867  68.266  1.00  0.00    -0.227 A  
HETATM   10  N   UNL     1     -10.749  16.475  69.322  1.00  0.00    -0.316 NA 
BRANCH   8  11
HETATM   11  C1* UNL     1     -10.586  13.668  67.104  1.00  0.00    -0.272 C  
HETATM   12  O4* UNL     1      -9.806  14.300  66.063  1.00  0.00    -0.302 OA 
HETATM   13  C4* UNL     1     -10.697  14.648  64.981  1.00  0.00    -0.430 C  
HETATM   14  C3* UNL     1     -11.868  13.666  65.042  1.00  0.00    -0.360 C  
HETATM   15  H2* UNL     1     -12.343  11.207  65.938  1.00  0.00     0.000 HD 
HETATM   16  C2* UNL     1     -11.803  13.028  66.433  1.00  0.00    -0.405 C  
HETATM   17  H3* UNL     1     -12.472  12.016  64.091  1.00  0.00     0.000 HD 
HETATM   18  O3* UNL     1     -11.745  12.626  64.053  1.00  0.00    -0.357 OA 
HETATM   19  O2* UNL     1     -11.587  11.604  66.354  1.00  0.00    -0.447 OA 
BRANCH  13  20
HETATM   20  C5* UNL     1     -11.114  16.117  65.118  1.00  0.00    -0.249 C  
HETATM   21  O5* UNL     1     -11.624  16.586  63.869  1.00  0.00    -1.598 OA 
HETATM   22  H5* UNL     1     -11.883  17.497  63.954  1.00  0.00     0.000 HD 
ENDBRANCH  13  20
ENDBRANCH   8  11
ENDBRANCH   2   6
TORSDOF 3
ENDMDL
MODEL        5
REMARK 921   NORMALIZED FREE ENERGY PREDICTED BY IDOCK:   -5.74 KCAL/MOL
REMARK 922        TOTAL FREE ENERGY PREDICTED BY IDOCK:   -7.68 KCAL/MOL
REMARK 923 INTER-LIGAND FREE ENERGY PREDICTED BY IDOCK:   -6.88 KCAL/MOL
REMARK 924 INTRA-LIGAND FREE ENERGY PREDICTED BY IDOCK:   -0.80 KCAL/MOL
REMARK 927      BINDING AFFINITY PREDICTED BY RF-SCORE:    0.00 PKD
ROOT
HETATM    1  N   UNL     1     -12.868   9.914  70.311  1.00  0.00    -0.526 N  
HETATM    2  C   UNL     1     -12.383  11.184  70.129  1.00  0.00    -0.295 C  
HETATM    3  H2  UNL     1     -13.406   9.696  71.150  1.00  0.00     0.000 HD 
HETATM    4  H1  UNL     1     -12.698   9.185  69.619  1.00  0.00     0.000 HD 
HETATM    5  O   UNL     1     -12.588  12.063  70.964  1.00  0.00    -0.364 OA 
ENDROOT
BRANCH   2   6
HETATM    6  C   UNL     1     -11.635  11.365  68.871  1.00  0.00    -0.323 A  
HETATM    7  N   UNL     1     -12.144  11.937  67.770  1.00  0.00    -0.527 NA 
HETATM    8  N   UNL     1     -11.144  11.795  66.884  1.00  0.00    -0.292 NA 
HETATM    9  C   UNL     1     -10.049  11.240  67.466  1.00  0.00    -0.183 A  
HETATM   10  N   UNL     1     -10.322  10.939  68.711  1.00  0.00    -0.189 NA 
BRANCH   8  11
HETATM   11  C1* UNL     1     -11.260  12.229  65.505  1.00  0.00    -0.332 C  
HETATM   12  O4* UNL     1     -10.323  13.310  65.289  1.00  0.00    -0.298 OA 
HETATM   13  C4* UNL     1     -11.047  14.556  65.372  1.00  0.00    -0.345 C  
HETATM   14  C3* UNL     1     -12.494  14.252  64.978  1.00  0.00    -0.400 C  
HETATM   15  H2* UNL     1     -13.812  12.459  63.521  1.00  0.00     0.000 HD 
HETATM   16  C2* UNL     1     -12.638  12.730  65.070  1.00  0.00    -0.468 C  
HETATM   17  H3* UNL     1     -13.673  14.470  63.380  1.00  0.00     0.000 HD 
HETATM   18  O3* UNL     1     -12.775  14.659  63.625  1.00  0.00    -0.735 OA 
HETATM   19  O2* UNL     1     -12.956  12.148  63.790  1.00  0.00    -0.753 OA 
BRANCH  13  20
HETATM   20  C5* UNL     1     -10.900  15.137  66.784  1.00  0.00    -0.322 C  
HETATM   21  O5* UNL     1     -12.066  14.831  67.549  1.00  0.00    -0.528 OA 
HETATM   22  H5* UNL     1     -11.975  15.190  68.424  1.00  0.00     0.000 HD 
ENDBRANCH  13  20
ENDBRANCH   8  11
ENDBRANCH   2   6
TORSDOF 3
ENDMDL
MODEL        6
REMARK 921   NORMALIZED FREE ENERGY PREDICTED BY IDOCK:   -5.74 KCAL/MOL
REMARK 922        TOTAL FREE ENERGY PREDICTED BY IDOCK:   -7.67 KCAL/MOL
REMARK 923 INTER-LIGAND FREE ENERGY PREDICTED BY IDOCK:   -6.84 KCAL/MOL
REMARK 924 INTRA-LIGAND FREE ENERGY PREDICTED BY IDOCK:   -0.83 KCAL/MOL
REMARK 927      BINDING AFFINITY PREDICTED BY RF-SCORE:    0.00 PKD
ROOT
HETATM    1  N   UNL     1     -12.402  14.038  63.268  1.00  0.00    -1.145 N  
HETATM    2  C   UNL     1     -12.278  13.431  64.492  1.00  0.00    -0.398 C  
HETATM    3  H2  UNL     1     -13.141  13.741  62.631  1.00  0.00     0.000 HD 
HETATM    4  H1  UNL     1     -11.765  14.784  62.988  1.00  0.00     0.000 HD 
HETATM    5  O   UNL     1     -13.046  12.532  64.829  1.00  0.00    -0.853 OA 
ENDROOT
BRANCH   2   6
HETATM    6  C   UNL     1     -11.178  13.964  65.317  1.00  0.00    -0.313 A  
HETATM    7  N   UNL     1     -11.019  15.264  65.605  1.00  0.00    -0.343 NA 
HETATM    8  N   UNL     1      -9.860  15.266  66.286  1.00  0.00    -0.274 NA 
HETATM    9  C   UNL     1      -9.398  14.002  66.471  1.00  0.00    -0.255 A  
HETATM   10  N   UNL     1     -10.189  13.155  65.861  1.00  0.00    -0.287 NA 
BRANCH   8  11
HETATM   11  C1* UNL     1      -9.245  16.487  66.770  1.00  0.00    -0.234 C  
HETATM   12  O4* UNL     1      -8.995  16.340  68.187  1.00  0.00    -0.183 OA 
HETATM   13  C4* UNL     1     -10.057  17.009  68.902  1.00  0.00    -0.307 C  
HETATM   14  C3* UNL     1     -10.582  18.112  67.982  1.00  0.00    -0.341 C  
HETATM   15  H2* UNL     1      -9.689  19.595  65.962  1.00  0.00     0.000 HD 
HETATM   16  C2* UNL     1     -10.058  17.770  66.584  1.00  0.00    -0.350 C  
HETATM   17  H3* UNL     1     -10.402  20.091  67.787  1.00  0.00     0.000 HD 
HETATM   18  O3* UNL     1     -10.076  19.407  68.358  1.00  0.00    -0.399 OA 
HETATM   19  O2* UNL     1      -9.184  18.799  66.078  1.00  0.00    -0.476 OA 
BRANCH  13  20
HETATM   20  C5* UNL     1     -11.121  15.982  69.308  1.00  0.00    -0.331 C  
HETATM   21  O5* UNL     1     -12.133  15.922  68.302  1.00  0.00    -0.352 OA 
HETATM   22  H5* UNL     1     -12.793  15.287  68.554  1.00  0.00     0.000 HD 
ENDBRANCH  13  20
ENDBRANCH   8  11
ENDBRANCH   2   6
TORSDOF 3
ENDMDL
MODEL        7
REMARK 921   NORMALIZED FREE ENERGY PREDICTED BY IDOCK:   -5.51 KCAL/MOL
REMARK 922        TOTAL FREE ENERGY PREDICTED BY IDOCK:   -7.41 KCAL/MOL
REMARK 923 INTER-LIGAND FREE ENERGY PREDICTED BY IDOCK:   -6.59 KCAL/MOL
REMARK 924 INTRA-LIGAND FREE ENERGY PREDICTED BY IDOCK:   -0.82 KCAL/MOL
REMARK 927      BINDING AFFINITY PREDICTED BY RF-SCORE:    0.00 PKD
ROOT
HETATM    1  N   UNL     1     -12.391  14.478  63.828  1.00  0.00    -1.087 N  
HETATM    2  C   UNL     1     -12.424  13.699  64.957  1.00  0.00    -0.414 C  
HETATM    3  H2  UNL     1     -12.874  14.166  62.986  1.00  0.00     0.000 HD 
HETATM    4  H1  UNL     1     -11.888  15.366  63.820  1.00  0.00     0.000 HD 
HETATM    5  O   UNL     1     -13.029  12.629  64.966  1.00  0.00    -0.812 OA 
ENDROOT
BRANCH   2   6
HETATM    6  C   UNL     1     -11.694  14.273  66.103  1.00  0.00    -0.390 A  
HETATM    7  N   UNL     1     -10.543  14.953  65.995  1.00  0.00    -0.302 NA 
HETATM    8  N   UNL     1     -10.227  15.187  67.281  1.00  0.00    -0.241 NA 
HETATM    9  C   UNL     1     -11.203  14.741  68.114  1.00  0.00    -0.294 A  
HETATM   10  N   UNL     1     -12.135  14.144  67.414  1.00  0.00    -0.392 NA 
BRANCH   8  11
HETATM   11  C1* UNL     1      -9.006  15.866  67.669  1.00  0.00    -0.190 C  
HETATM   12  O4* UNL     1      -9.365  17.087  68.357  1.00  0.00    -0.248 OA 
HETATM   13  C4* UNL     1      -9.256  18.180  67.419  1.00  0.00    -0.257 C  
HETATM   14  C3* UNL     1      -8.218  17.764  66.376  1.00  0.00    -0.255 C  
HETATM   15  H2* UNL     1      -6.124  16.132  66.210  1.00  0.00     0.000 HD 
HETATM   16  C2* UNL     1      -8.057  16.249  66.532  1.00  0.00    -0.302 C  
HETATM   17  H3* UNL     1      -6.297  18.130  65.967  1.00  0.00     0.000 HD 
HETATM   18  O3* UNL     1      -6.942  18.389  66.614  1.00  0.00    -0.191 OA 
HETATM   19  O2* UNL     1      -6.714  15.895  66.917  1.00  0.00    -0.266 OA 
BRANCH  13  20
HETATM   20  C5* UNL     1     -10.639  18.484  66.830  1.00  0.00    -0.354 C  
HETATM   21  O5* UNL     1     -10.712  17.971  65.499  1.00  0.00    -0.597 OA 
HETATM   22  H5* UNL     1     -11.569  18.158  65.133  1.00  0.00     0.000 HD 
ENDBRANCH  13  20
ENDBRANCH   8  11
ENDBRANCH   2   6
TORSDOF 3
ENDMDL
MODEL        8
REMARK 921   NORMALIZED FREE ENERGY PREDICTED BY IDOCK:   -5.48 KCAL/MOL
REMARK 922        TOTAL FREE ENERGY PREDICTED BY IDOCK:   -7.37 KCAL/MOL
REMARK 923 INTER-LIGAND FREE ENERGY PREDICTED BY IDOCK:   -6.48 KCAL/MOL
REMARK 924 INTRA-LIGAND FREE ENERGY PREDICTED BY IDOCK:   -0.89 KCAL/MOL
REMARK 927      BINDING AFFINITY PREDICTED BY RF-SCORE:    0.00 PKD
ROOT
HETATM    1  N   UNL     1     -13.307  15.532  70.684  1.00  0.00    -0.794 N  
HETATM    2  C   UNL     1     -11.986  15.486  70.317  1.00  0.00    -0.374 C  
HETATM    3  H2  UNL     1     -13.553  15.663  71.665  1.00  0.00     0.000 HD 
HETATM    4  H1  UNL     1     -14.047  15.437  69.988  1.00  0.00     0.000 HD 
HETATM    5  O   UNL     1     -11.095  15.600  71.156  1.00  0.00    -0.348 OA 
ENDROOT
BRANCH   2   6
HETATM    6  C   UNL     1     -11.772  15.304  68.870  1.00  0.00    -0.342 A  
HETATM    7  N   UNL     1     -12.408  14.386  68.126  1.00  0.00    -0.101 NA 
HETATM    8  N   UNL     1     -11.829  14.540  66.923  1.00  0.00    -0.395 NA 
HETATM    9  C   UNL     1     -10.946  15.573  66.933  1.00  0.00    -0.268 A  
HETATM   10  N   UNL     1     -10.868  16.069  68.143  1.00  0.00    -0.310 NA 
BRANCH   8  11
HETATM   11  C1* UNL     1     -12.167  13.707  65.786  1.00  0.00    -0.464 C  
HETATM   12  O4* UNL     1     -11.940  12.325  66.151  1.00  0.00    -0.579 OA 
HETATM   13  C4* UNL     1     -10.660  11.924  65.616  1.00  0.00    -0.268 C  
HETATM   14  C3* UNL     1     -10.401  12.799  64.388  1.00  0.00    -0.364 C  
HETATM   15  H2* UNL     1     -11.818  14.161  62.596  1.00  0.00     0.000 HD 
HETATM   16  C2* UNL     1     -11.381  13.970  64.500  1.00  0.00    -0.358 C  
HETATM   17  H3* UNL     1     -10.509  12.635  62.400  1.00  0.00     0.000 HD 
HETATM   18  O3* UNL     1     -10.669  12.091  63.162  1.00  0.00    -0.368 OA 
HETATM   19  O2* UNL     1     -12.306  13.996  63.394  1.00  0.00    -0.748 OA 
BRANCH  13  20
HETATM   20  C5* UNL     1      -9.589  12.054  66.706  1.00  0.00    -0.208 C  
HETATM   21  O5* UNL     1     -10.214  12.047  67.990  1.00  0.00    -0.187 OA 
HETATM   22  H5* UNL     1      -9.551  12.128  68.666  1.00  0.00     0.000 HD 
ENDBRANCH  13  20
ENDBRANCH   8  11
ENDBRANCH   2   6
TORSDOF 3
ENDMDL
MODEL        9
REMARK 921   NORMALIZED FREE ENERGY PREDICTED BY IDOCK:   -5.46 KCAL/MOL
REMARK 922        TOTAL FREE ENERGY PREDICTED BY IDOCK:   -7.34 KCAL/MOL
REMARK 923 INTER-LIGAND FREE ENERGY PREDICTED BY IDOCK:   -6.56 KCAL/MOL
REMARK 924 INTRA-LIGAND FREE ENERGY PREDICTED BY IDOCK:   -0.79 KCAL/MOL
REMARK 927      BINDING AFFINITY PREDICTED BY RF-SCORE:    0.00 PKD
ROOT
HETATM    1  N   UNL     1     -11.048  11.346  63.321  1.00  0.00    -0.822 N  
HETATM    2  C   UNL     1     -12.176  12.049  63.661  1.00  0.00    -0.538 C  
HETATM    3  H2  UNL     1     -11.095  10.641  62.586  1.00  0.00     0.000 HD 
HETATM    4  H1  UNL     1     -10.161  11.520  63.795  1.00  0.00     0.000 HD 
HETATM    5  O   UNL     1     -13.244  11.839  63.090  1.00  0.00    -0.538 OA 
ENDROOT
BRANCH   2   6
HETATM    6  C   UNL     1     -11.964  13.043  64.730  1.00  0.00    -0.395 A  
HETATM    7  N   UNL     1     -11.210  14.143  64.592  1.00  0.00    -0.373 NA 
HETATM    8  N   UNL     1     -11.246  14.672  65.828  1.00  0.00    -0.332 NA 
HETATM    9  C   UNL     1     -12.066  13.957  66.642  1.00  0.00    -0.448 A  
HETATM   10  N   UNL     1     -12.524  12.915  65.995  1.00  0.00    -0.491 NA 
BRANCH   8  11
HETATM   11  C1* UNL     1     -10.513  15.872  66.181  1.00  0.00    -0.326 C  
HETATM   12  O4* UNL     1      -9.107  15.633  65.943  1.00  0.00    -0.335 OA 
HETATM   13  C4* UNL     1      -8.486  15.308  67.205  1.00  0.00    -0.193 C  
HETATM   14  C3* UNL     1      -9.323  15.981  68.294  1.00  0.00    -0.199 C  
HETATM   15  H2* UNL     1     -10.961  18.064  68.526  1.00  0.00     0.000 HD 
HETATM   16  C2* UNL     1     -10.653  16.345  67.629  1.00  0.00    -0.313 C  
HETATM   17  H3* UNL     1      -9.223  17.607  69.450  1.00  0.00     0.000 HD 
HETATM   18  O3* UNL     1      -8.703  17.189  68.774  1.00  0.00    -0.268 OA 
HETATM   19  O2* UNL     1     -10.874  17.770  67.627  1.00  0.00    -0.363 OA 
BRANCH  13  20
HETATM   20  C5* UNL     1      -8.393  13.784  67.349  1.00  0.00    -0.193 C  
HETATM   21  O5* UNL     1      -8.804  13.165  66.129  1.00  0.00    -0.429 OA 
HETATM   22  H5* UNL     1      -8.747  12.221  66.218  1.00  0.00     0.000 HD 
ENDBRANCH  13  20
ENDBRANCH   8  11
ENDBRANCH   2   6
TORSDOF 3
ENDMDL
MODEL       10
REMARK 921   NORMALIZED FREE ENERGY PREDICTED BY IDOCK:   -5.44 KCAL/MOL
REMARK 922        TOTAL FREE ENERGY PREDICTED BY IDOCK:   -7.33 KCAL/MOL
REMARK 923 INTER-LIGAND FREE ENERGY PREDICTED BY IDOCK:   -6.87 KCAL/MOL
REMARK 924 INTRA-LIGAND FREE ENERGY PREDICTED BY IDOCK:   -0.46 KCAL/MOL
REMARK 927      BINDING AFFINITY PREDICTED BY RF-SCORE:    0.00 PKD
ROOT
HETATM    1  N   UNL     1      -8.139  18.876  68.380  1.00  0.00    -0.328 N  
HETATM    2  C   UNL     1      -7.736  17.575  68.542  1.00  0.00    -0.272 C  
HETATM    3  H2  UNL     1      -7.458  19.629  68.469  1.00  0.00     0.000 HD 
HETATM    4  H1  UNL     1      -9.113  19.099  68.171  1.00  0.00     0.000 HD 
HETATM    5  O   UNL     1      -6.563  17.306  68.794  1.00  0.00    -0.177 OA 
ENDROOT
BRANCH   2   6
HETATM    6  C   UNL     1      -8.817  16.586  68.376  1.00  0.00    -0.218 A  
HETATM    7  N   UNL     1      -8.726  15.498  67.597  1.00  0.00    -0.172 NA 
HETATM    8  N   UNL     1      -9.959  14.971  67.695  1.00  0.00    -0.225 NA 
HETATM    9  C   UNL     1     -10.723  15.674  68.572  1.00  0.00    -0.264 A  
HETATM   10  N   UNL     1     -10.048  16.707  69.009  1.00  0.00    -0.278 NA 
BRANCH   8  11
HETATM   11  C1* UNL     1     -10.357  13.784  66.965  1.00  0.00    -0.260 C  
HETATM   12  O4* UNL     1     -10.016  13.971  65.571  1.00  0.00    -0.316 OA 
HETATM   13  C4* UNL     1     -11.211  14.375  64.867  1.00  0.00    -0.389 C  
HETATM   14  C3* UNL     1     -12.396  13.804  65.648  1.00  0.00    -0.482 C  
HETATM   15  H2* UNL     1     -12.884  11.783  67.306  1.00  0.00     0.000 HD 
HETATM   16  C2* UNL     1     -11.842  13.423  67.023  1.00  0.00    -0.394 C  
HETATM   17  H3* UNL     1     -13.663  12.266  65.506  1.00  0.00     0.000 HD 
HETATM   18  O3* UNL     1     -12.927  12.621  65.021  1.00  0.00    -0.812 OA 
HETATM   19  O2* UNL     1     -11.961  12.007  67.269  1.00  0.00    -0.591 OA 
BRANCH  13  20
HETATM   20  C5* UNL     1     -11.233  15.902  64.737  1.00  0.00    -0.355 C  
HETATM   21  O5* UNL     1     -12.151  16.280  63.709  1.00  0.00    -1.337 OA 
HETATM   22  H5* UNL     1     -12.165  17.226  63.629  1.00  0.00     0.000 HD 
ENDBRANCH  13  20
ENDBRANCH   8  11
ENDBRANCH   2   6
TORSDOF 3
ENDMDL
MODEL       11
REMARK 921   NORMALIZED FREE ENERGY PREDICTED BY IDOCK:   -5.39 KCAL/MOL
REMARK 922        TOTAL FREE ENERGY PREDICTED BY IDOCK:   -7.27 KCAL/MOL
REMARK 923 INTER-LIGAND FREE ENERGY PREDICTED BY IDOCK:   -6.44 KCAL/MOL
REMARK 924 INTRA-LIGAND FREE ENERGY PREDICTED BY IDOCK:   -0.83 KCAL/MOL
REMARK 927      BINDING AFFINITY PREDICTED BY RF-SCORE:    0.00 PKD
ROOT
HETATM    1  N   UNL     1     -11.028   9.186  67.832  1.00  0.00    -0.498 N  
HETATM    2  C   UNL     1     -11.028  10.229  68.722  1.00  0.00    -0.243 C  
HETATM    3  H2  UNL     1     -11.244   8.244  68.159  1.00  0.00     0.000 HD 
HETATM    4  H1  UNL     1     -10.814   9.339  66.846  1.00  0.00     0.000 HD 
HETATM    5  O   UNL     1     -11.286  10.044  69.909  1.00  0.00    -0.250 OA 
ENDROOT
BRANCH   2   6
HETATM    6  C   UNL     1     -10.711  11.535  68.114  1.00  0.00    -0.205 A  
HETATM    7  N   UNL     1     -11.593  12.536  67.983  1.00  0.00    -0.322 NA 
HETATM    8  N   UNL     1     -10.884  13.458  67.309  1.00  0.00    -0.266 NA 
HETATM    9  C   UNL     1      -9.601  13.051  67.127  1.00  0.00    -0.230 A  
HETATM   10  N   UNL     1      -9.455  11.839  67.604  1.00  0.00    -0.176 NA 
BRANCH   8  11
HETATM   11  C1* UNL     1     -11.455  14.721  66.886  1.00  0.00    -0.347 C  
HETATM   12  O4* UNL     1     -12.623  14.445  66.078  1.00  0.00    -0.382 OA 
HETATM   13  C4* UNL     1     -12.244  14.556  64.689  1.00  0.00    -0.460 C  
HETATM   14  C3* UNL     1     -11.064  15.527  64.630  1.00  0.00    -0.359 C  
HETATM   15  H2* UNL     1     -10.087  17.543  66.065  1.00  0.00     0.000 HD 
HETATM   16  C2* UNL     1     -10.541  15.633  66.065  1.00  0.00    -0.328 C  
HETATM   17  H3* UNL     1     -10.740  17.441  64.156  1.00  0.00     0.000 HD 
HETATM   18  O3* UNL     1     -11.473  16.838  64.192  1.00  0.00    -1.171 OA 
HETATM   19  O2* UNL     1     -10.655  16.977  66.575  1.00  0.00    -0.270 OA 
BRANCH  13  20
HETATM   20  C5* UNL     1     -11.925  13.161  64.136  1.00  0.00    -0.436 C  
HETATM   21  O5* UNL     1     -12.660  12.180  64.868  1.00  0.00    -0.500 OA 
HETATM   22  H5* UNL     1     -12.463  11.315  64.526  1.00  0.00     0.000 HD 
ENDBRANCH  13  20
ENDBRANCH   8  11
ENDBRANCH   2   6
TORSDOF 3
ENDMDL
MODEL       12
REMARK 921   NORMALIZED FREE ENERGY PREDICTED BY IDOCK:   -5.35 KCAL/MOL
REMARK 922        TOTAL FREE ENERGY PREDICTED BY IDOCK:   -7.22 KCAL/MOL
REMARK 923 INTER-LIGAND FREE ENERGY PREDICTED BY IDOCK:   -6.42 KCAL/MOL
REMARK 924 INTRA-LIGAND FREE ENERGY PREDICTED BY IDOCK:   -0.80 KCAL/MOL
REMARK 927      BINDING AFFINITY PREDICTED BY RF-SCORE:    0.00 PKD
ROOT
HETATM    1  N   UNL     1     -10.498  17.623  69.327  1.00  0.00    -0.379 N  
HETATM    2  C   UNL     1     -10.632  17.346  67.991  1.00  0.00    -0.389 C  
HETATM    3  H2  UNL     1     -10.153  18.537  69.620  1.00  0.00     0.000 HD 
HETATM    4  H1  UNL     1     -10.740  16.926  70.033  1.00  0.00     0.000 HD 
HETATM    5  O   UNL     1     -10.341  18.185  67.141  1.00  0.00    -0.349 OA 
ENDROOT
BRANCH   2   6
HETATM    6  C   UNL     1     -11.151  15.995  67.708  1.00  0.00    -0.273 A  
HETATM    7  N   UNL     1     -11.255  15.474  66.476  1.00  0.00    -0.182 NA 
HETATM    8  N   UNL     1     -11.850  14.292  66.714  1.00  0.00    -0.412 NA 
HETATM    9  C   UNL     1     -12.010  14.084  68.047  1.00  0.00    -0.350 A  
HETATM   10  N   UNL     1     -11.599  15.139  68.706  1.00  0.00    -0.333 NA 
BRANCH   8  11
HETATM   11  C1* UNL     1     -12.218  13.379  65.650  1.00  0.00    -0.463 C  
HETATM   12  O4* UNL     1     -11.874  12.036  66.063  1.00  0.00    -0.522 OA 
HETATM   13  C4* UNL     1     -10.615  11.686  65.449  1.00  0.00    -0.280 C  
HETATM   14  C3* UNL     1     -10.508  12.508  64.163  1.00  0.00    -0.403 C  
HETATM   15  H2* UNL     1     -12.142  13.681  62.423  1.00  0.00     0.000 HD 
HETATM   16  C2* UNL     1     -11.551  13.621  64.294  1.00  0.00    -0.382 C  
HETATM   17  H3* UNL     1     -10.754  12.230  62.201  1.00  0.00     0.000 HD 
HETATM   18  O3* UNL     1     -10.820  11.720  62.998  1.00  0.00    -0.246 OA 
HETATM   19  O2* UNL     1     -12.556  13.530  63.265  1.00  0.00    -0.773 OA 
BRANCH  13  20
HETATM   20  C5* UNL     1      -9.476  11.940  66.443  1.00  0.00    -0.228 C  
HETATM   21  O5* UNL     1      -8.944  13.249  66.233  1.00  0.00    -0.453 OA 
HETATM   22  H5* UNL     1      -8.238  13.407  66.849  1.00  0.00     0.000 HD 
ENDBRANCH  13  20
ENDBRANCH   8  11
ENDBRANCH   2   6
TORSDOF 3
ENDMDL
MODEL       13
REMARK 921   NORMALIZED FREE ENERGY PREDICTED BY IDOCK:   -5.33 KCAL/MOL
REMARK 922        TOTAL FREE ENERGY PREDICTED BY IDOCK:   -7.20 KCAL/MOL
REMARK 923 INTER-LIGAND FREE ENERGY PREDICTED BY IDOCK:   -6.44 KCAL/MOL
REMARK 924 INTRA-LIGAND FREE ENERGY PREDICTED BY IDOCK:   -0.76 KCAL/MOL
REMARK 927      BINDING AFFINITY PREDICTED BY RF-SCORE:    0.00 PKD
ROOT
HETATM    1  N   UNL     1     -12.371  13.781  63.214  1.00  0.00    -1.124 N  
HETATM    2  C   UNL     1     -11.283  13.582  64.025  1.00  0.00    -0.232 C  
HETATM    3  H2  UNL     1     -12.576  13.112  62.472  1.00  0.00     0.000 HD 
HETATM    4  H1  UNL     1     -12.978  14.592  63.342  1.00  0.00     0.000 HD 
HETATM    5  O   UNL     1     -10.552  12.607  63.869  1.00  0.00    -0.404 OA 
ENDROOT
BRANCH   2   6
HETATM    6  C   UNL     1     -11.110  14.618  65.060  1.00  0.00    -0.394 A  
HETATM    7  N   UNL     1     -10.670  15.861  64.812  1.00  0.00    -0.576 NA 
HETATM    8  N   UNL     1     -10.594  16.389  66.046  1.00  0.00    -0.302 NA 
HETATM    9  C   UNL     1     -11.058  15.520  66.981  1.00  0.00    -0.238 A  
HETATM   10  N   UNL     1     -11.376  14.387  66.404  1.00  0.00    -0.342 NA 
BRANCH   8  11
HETATM   11  C1* UNL     1     -10.106  17.733  66.286  1.00  0.00    -0.344 C  
HETATM   12  O4* UNL     1      -8.692  17.765  65.981  1.00  0.00    -0.495 OA 
HETATM   13  C4* UNL     1      -7.961  17.657  67.222  1.00  0.00    -0.207 C  
HETATM   14  C3* UNL     1      -8.868  18.221  68.317  1.00  0.00    -0.287 C  
HETATM   15  H2* UNL     1     -10.883  19.945  68.525  1.00  0.00     0.000 HD 
HETATM   16  C2* UNL     1     -10.274  18.266  67.711  1.00  0.00    -0.385 C  
HETATM   17  H3* UNL     1      -9.049  19.909  69.370  1.00  0.00     0.000 HD 
HETATM   18  O3* UNL     1      -8.486  19.559  68.690  1.00  0.00    -0.357 OA 
HETATM   19  O2* UNL     1     -10.779  19.614  67.640  1.00  0.00    -0.445 OA 
BRANCH  13  20
HETATM   20  C5* UNL     1      -7.554  16.196  67.447  1.00  0.00    -0.163 C  
HETATM   21  O5* UNL     1      -7.695  15.469  66.226  1.00  0.00    -0.144 OA 
HETATM   22  H5* UNL     1      -7.443  14.564  66.365  1.00  0.00     0.000 HD 
ENDBRANCH  13  20
ENDBRANCH   8  11
ENDBRANCH   2   6
TORSDOF 3
ENDMDL
MODEL       14
REMARK 921   NORMALIZED FREE ENERGY PREDICTED BY IDOCK:   -5.31 KCAL/MOL
REMARK 922        TOTAL FREE ENERGY PREDICTED BY IDOCK:   -7.18 KCAL/MOL
REMARK 923 INTER-LIGAND FREE ENERGY PREDICTED BY IDOCK:   -6.51 KCAL/MOL
REMARK 924 INTRA-LIGAND FREE ENERGY PREDICTED BY IDOCK:   -0.67 KCAL/MOL
REMARK 927      BINDING AFFINITY PREDICTED BY RF-SCORE:    0.00 PKD
ROOT
HETATM    1  N   UNL     1     -13.904  15.512  70.942  1.00  0.00    -0.854 N  
HETATM    2  C   UNL     1     -12.566  15.300  70.727  1.00  0.00    -0.417 C  
HETATM    3  H2  UNL     1     -14.206  16.339  71.457  1.00  0.00     0.000 HD 
HETATM    4  H1  UNL     1     -14.600  14.854  70.593  1.00  0.00     0.000 HD 
HETATM    5  O   UNL     1     -11.726  16.093  71.148  1.00  0.00    -0.430 OA 
ENDROOT
BRANCH   2   6
HETATM    6  C   UNL     1     -12.269  14.076  69.960  1.00  0.00    -0.352 A  
HETATM    7  N   UNL     1     -12.099  14.046  68.630  1.00  0.00    -0.339 NA 
HETATM    8  N   UNL     1     -11.946  12.732  68.389  1.00  0.00    -0.293 NA 
HETATM    9  C   UNL     1     -11.936  12.021  69.547  1.00  0.00    -0.283 A  
HETATM   10  N   UNL     1     -12.153  12.826  70.556  1.00  0.00    -0.349 NA 
BRANCH   8  11
HETATM   11  C1* UNL     1     -11.781  12.202  67.051  1.00  0.00    -0.303 C  
HETATM   12  O4* UNL     1     -10.432  11.694  66.926  1.00  0.00    -0.214 OA 
HETATM   13  C4* UNL     1      -9.637  12.691  66.249  1.00  0.00    -0.244 C  
HETATM   14  C3* UNL     1     -10.597  13.502  65.376  1.00  0.00    -0.308 C  
HETATM   15  H2* UNL     1     -12.952  13.164  64.186  1.00  0.00     0.000 HD 
HETATM   16  C2* UNL     1     -12.001  13.189  65.902  1.00  0.00    -0.427 C  
HETATM   17  H3* UNL     1     -11.122  13.607  63.452  1.00  0.00     0.000 HD 
HETATM   18  O3* UNL     1     -10.526  13.105  63.993  1.00  0.00    -0.405 OA 
HETATM   19  O2* UNL     1     -12.815  12.551  64.898  1.00  0.00    -0.758 OA 
BRANCH  13  20
HETATM   20  C5* UNL     1      -8.883  13.532  67.286  1.00  0.00    -0.224 C  
HETATM   21  O5* UNL     1      -8.688  12.762  68.472  1.00  0.00    -0.313 OA 
HETATM   22  H5* UNL     1      -8.221  13.283  69.116  1.00  0.00     0.000 HD 
ENDBRANCH  13  20
ENDBRANCH   8  11
ENDBRANCH   2   6
TORSDOF 3
ENDMDL
MODEL       15
REMARK 921   NORMALIZED FREE ENERGY PREDICTED BY IDOCK:   -5.25 KCAL/MOL
REMARK 922        TOTAL FREE ENERGY PREDICTED BY IDOCK:   -7.10 KCAL/MOL
REMARK 923 INTER-LIGAND FREE ENERGY PREDICTED BY IDOCK:   -6.74 KCAL/MOL
REMARK 924 INTRA-LIGAND FREE ENERGY PREDICTED BY IDOCK:   -0.36 KCAL/MOL
REMARK 927      BINDING AFFINITY PREDICTED BY RF-SCORE:    0.00 PKD
ROOT
HETATM    1  N   UNL     1     -10.180  16.539  65.744  1.00  0.00    -0.346 N  
HETATM    2  C   UNL     1     -11.079  16.015  64.849  1.00  0.00    -0.370 C  
HETATM    3  H2  UNL     1      -9.807  17.476  65.593  1.00  0.00     0.000 HD 
HETATM    4  H1  UNL     1      -9.881  16.003  66.558  1.00  0.00     0.000 HD 
HETATM    5  O   UNL     1     -11.439  16.661  63.867  1.00  0.00    -1.186 OA 
ENDROOT
BRANCH   2   6
HETATM    6  C   UNL     1     -11.545  14.659  65.192  1.00  0.00    -0.371 A  
HETATM    7  N   UNL     1     -10.872  13.811  65.984  1.00  0.00    -0.281 NA 
HETATM    8  N   UNL     1     -11.629  12.702  65.926  1.00  0.00    -0.374 NA 
HETATM    9  C   UNL     1     -12.756  12.916  65.199  1.00  0.00    -0.374 A  
HETATM   10  N   UNL     1     -12.734  14.129  64.705  1.00  0.00    -0.678 NA 
BRANCH   8  11
HETATM   11  C1* UNL     1     -11.260  11.474  66.602  1.00  0.00    -0.271 C  
HETATM   12  O4* UNL     1     -12.132  11.304  67.744  1.00  0.00    -0.631 OA 
HETATM   13  C4* UNL     1     -11.424  11.749  68.921  1.00  0.00    -0.297 C  
HETATM   14  C3* UNL     1      -9.933  11.567  68.633  1.00  0.00    -0.199 C  
HETATM   15  H2* UNL     1      -8.387  10.054  67.086  1.00  0.00     0.000 HD 
HETATM   16  C2* UNL     1      -9.821  11.394  67.116  1.00  0.00    -0.190 C  
HETATM   17  H3* UNL     1      -8.481  10.275  69.092  1.00  0.00     0.000 HD 
HETATM   18  O3* UNL     1      -9.406  10.388  69.271  1.00  0.00    -0.195 OA 
HETATM   19  O2* UNL     1      -9.280  10.103  66.768  1.00  0.00    -0.148 OA 
BRANCH  13  20
HETATM   20  C5* UNL     1     -11.822  13.196  69.236  1.00  0.00    -0.323 C  
HETATM   21  O5* UNL     1     -11.596  13.461  70.622  1.00  0.00    -0.508 OA 
HETATM   22  H5* UNL     1     -11.842  14.358  70.817  1.00  0.00     0.000 HD 
ENDBRANCH  13  20
ENDBRANCH   8  11
ENDBRANCH   2   6
TORSDOF 3
ENDMDL
MODEL       16
REMARK 921   NORMALIZED FREE ENERGY PREDICTED BY IDOCK:   -5.23 KCAL/MOL
REMARK 922        TOTAL FREE ENERGY PREDICTED BY IDOCK:   -7.08 KCAL/MOL
REMARK 923 INTER-LIGAND FREE ENERGY PREDICTED BY IDOCK:   -6.29 KCAL/MOL
REMARK 924 INTRA-LIGAND FREE ENERGY PREDICTED BY IDOCK:   -0.79 KCAL/MOL
REMARK 927      BINDING AFFINITY PREDICTED BY RF-SCORE:    0.00 PKD
ROOT
HETATM    1  N   UNL     1     -12.064  15.028  63.919  1.00  0.00    -0.942 N  
HETATM    2  C   UNL     1     -11.102  14.453  64.709  1.00  0.00    -0.394 C  
HETATM    3  H2  UNL     1     -12.194  14.698  62.963  1.00  0.00     0.000 HD 
HETATM    4  H1  UNL     1     -12.651  15.782  64.275  1.00  0.00     0.000 HD 
HETATM    5  O   UNL     1     -10.394  13.544  64.279  1.00  0.00    -0.406 OA 
ENDROOT
BRANCH   2   6
HETATM    6  C   UNL     1     -11.028  15.016  66.070  1.00  0.00    -0.334 A  
HETATM    7  N   UNL     1     -10.050  15.830  66.493  1.00  0.00    -0.269 NA 
HETATM    8  N   UNL     1     -10.358  15.999  67.791  1.00  0.00    -0.272 NA 
HETATM    9  C   UNL     1     -11.527  15.380  68.100  1.00  0.00    -0.343 A  
HETATM   10  N   UNL     1     -11.972  14.735  67.050  1.00  0.00    -0.294 NA 
BRANCH   8  11
HETATM   11  C1* UNL     1      -9.533  16.781  68.690  1.00  0.00    -0.255 C  
HETATM   12  O4* UNL     1     -10.282  17.952  69.091  1.00  0.00    -0.354 OA 
HETATM   13  C4* UNL     1      -9.841  19.066  68.284  1.00  0.00    -0.378 C  
HETATM   14  C3* UNL     1      -8.400  18.765  67.868  1.00  0.00    -0.276 C  
HETATM   15  H2* UNL     1      -6.341  17.337  68.759  1.00  0.00     0.000 HD 
HETATM   16  C2* UNL     1      -8.197  17.269  68.126  1.00  0.00    -0.231 C  
HETATM   17  H3* UNL     1      -6.556  19.314  68.404  1.00  0.00     0.000 HD 
HETATM   18  O3* UNL     1      -7.450  19.501  68.662  1.00  0.00    -0.323 OA 
HETATM   19  O2* UNL     1      -7.170  17.034  69.110  1.00  0.00    -0.245 OA 
BRANCH  13  20
HETATM   20  C5* UNL     1     -10.801  19.250  67.103  1.00  0.00    -0.440 C  
HETATM   21  O5* UNL     1     -10.231  18.667  65.931  1.00  0.00    -0.533 OA 
HETATM   22  H5* UNL     1     -10.825  18.780  65.198  1.00  0.00     0.000 HD 
ENDBRANCH  13  20
ENDBRANCH   8  11
ENDBRANCH   2   6
TORSDOF 3
ENDMDL
MODEL       17
REMARK 921   NORMALIZED FREE ENERGY PREDICTED BY IDOCK:   -5.22 KCAL/MOL
REMARK 922        TOTAL FREE ENERGY PREDICTED BY IDOCK:   -7.06 KCAL/MOL
REMARK 923 INTER-LIGAND FREE ENERGY PREDICTED BY IDOCK:   -6.20 KCAL/MOL
REMARK 924 INTRA-LIGAND FREE ENERGY PREDICTED BY IDOCK:   -0.86 KCAL/MOL
REMARK 927      BINDING AFFINITY PREDICTED BY RF-SCORE:    0.00 PKD
ROOT
HETATM    1  N   UNL     1     -11.001   8.643  68.153  1.00  0.00    -0.460 N  
HETATM    2  C   UNL     1     -10.144   9.653  67.798  1.00  0.00    -0.187 C  
HETATM    3  H2  UNL     1     -10.633   7.806  68.605  1.00  0.00     0.000 HD 
HETATM    4  H1  UNL     1     -12.002   8.718  67.971  1.00  0.00     0.000 HD 
HETATM    5  O   UNL     1      -8.938   9.562  68.017  1.00  0.00    -0.124 OA 
ENDROOT
BRANCH   2   6
HETATM    6  C   UNL     1     -10.808  10.808  67.164  1.00  0.00    -0.277 A  
HETATM    7  N   UNL     1     -10.510  11.266  65.940  1.00  0.00    -0.255 NA 
HETATM    8  N   UNL     1     -11.292  12.355  65.843  1.00  0.00    -0.339 NA 
HETATM    9  C   UNL     1     -12.090  12.484  66.935  1.00  0.00    -0.094 A  
HETATM   10  N   UNL     1     -11.804  11.540  67.798  1.00  0.00    -0.626 NA 
BRANCH   8  11
HETATM   11  C1* UNL     1     -11.273  13.224  64.683  1.00  0.00    -0.348 C  
HETATM   12  O4* UNL     1      -9.936  13.758  64.536  1.00  0.00    -0.245 OA 
HETATM   13  C4* UNL     1      -9.920  15.090  65.095  1.00  0.00    -0.234 C  
HETATM   14  C3* UNL     1     -11.345  15.633  64.980  1.00  0.00    -0.253 C  
HETATM   15  H2* UNL     1     -13.494  15.244  63.460  1.00  0.00     0.000 HD 
HETATM   16  C2* UNL     1     -12.234  14.414  64.716  1.00  0.00    -0.446 C  
HETATM   17  H3* UNL     1     -12.365  16.884  63.802  1.00  0.00     0.000 HD 
HETATM   18  O3* UNL     1     -11.480  16.547  63.874  1.00  0.00    -1.145 OA 
HETATM   19  O2* UNL     1     -12.896  14.506  63.439  1.00  0.00    -0.481 OA 
BRANCH  13  20
HETATM   20  C5* UNL     1      -9.395  15.031  66.534  1.00  0.00    -0.281 C  
HETATM   21  O5* UNL     1      -8.634  13.836  66.716  1.00  0.00    -0.406 OA 
HETATM   22  H5* UNL     1      -8.308  13.799  67.607  1.00  0.00     0.000 HD 
ENDBRANCH  13  20
ENDBRANCH   8  11
ENDBRANCH   2   6
TORSDOF 3
ENDMDL
MODEL       18
REMARK 921   NORMALIZED FREE ENERGY PREDICTED BY IDOCK:   -5.15 KCAL/MOL
REMARK 922        TOTAL FREE ENERGY PREDICTED BY IDOCK:   -6.98 KCAL/MOL
REMARK 923 INTER-LIGAND FREE ENERGY PREDICTED BY IDOCK:   -6.14 KCAL/MOL
REMARK 924 INTRA-LIGAND FREE ENERGY PREDICTED BY IDOCK:   -0.84 KCAL/MOL
REMARK 927      BINDING AFFINITY PREDICTED BY RF-SCORE:    0.00 PKD
ROOT
HETATM    1  N   UNL     1     -12.238  11.481  63.061  1.00  0.00    -0.941 N  
HETATM    2  C   UNL     1     -12.074  12.748  63.560  1.00  0.00    -0.559 C  
HETATM    3  H2  UNL     1     -12.875  11.325  62.280  1.00  0.00     0.000 HD 
HETATM    4  H1  UNL     1     -11.731  10.691  63.462  1.00  0.00     0.000 HD 
HETATM    5  O   UNL     1     -12.685  13.699  63.077  1.00  0.00    -0.681 OA 
ENDROOT
BRANCH   2   6
HETATM    6  C   UNL     1     -11.118  12.832  64.679  1.00  0.00    -0.318 A  
HETATM    7  N   UNL     1     -10.644  13.984  65.176  1.00  0.00    -0.361 NA 
HETATM    8  N   UNL     1      -9.760  13.559  66.095  1.00  0.00    -0.277 NA 
HETATM    9  C   UNL     1      -9.778  12.204  66.200  1.00  0.00    -0.240 A  
HETATM   10  N   UNL     1     -10.605  11.708  65.315  1.00  0.00    -0.273 NA 
BRANCH   8  11
HETATM   11  C1* UNL     1      -8.946  14.472  66.872  1.00  0.00    -0.246 C  
HETATM   12  O4* UNL     1      -9.049  14.101  68.266  1.00  0.00    -0.180 OA 
HETATM   13  C4* UNL     1     -10.008  14.978  68.896  1.00  0.00    -0.236 C  
HETATM   14  C3* UNL     1     -10.001  16.283  68.097  1.00  0.00    -0.239 C  
HETATM   15  H2* UNL     1      -8.328  17.636  66.533  1.00  0.00     0.000 HD 
HETATM   16  C2* UNL     1      -9.312  15.954  66.770  1.00  0.00    -0.240 C  
HETATM   17  H3* UNL     1      -9.240  18.122  68.269  1.00  0.00     0.000 HD 
HETATM   18  O3* UNL     1      -9.245  17.313  68.765  1.00  0.00    -0.270 OA 
HETATM   19  O2* UNL     1      -8.100  16.716  66.597  1.00  0.00    -0.213 OA 
BRANCH  13  20
HETATM   20  C5* UNL     1     -11.376  14.288  68.940  1.00  0.00    -0.274 C  
HETATM   21  O5* UNL     1     -12.163  14.717  67.828  1.00  0.00    -0.595 OA 
HETATM   22  H5* UNL     1     -13.011  14.289  67.855  1.00  0.00     0.000 HD 
ENDBRANCH  13  20
ENDBRANCH   8  11
ENDBRANCH   2   6
TORSDOF 3
ENDMDL
MODEL       19
REMARK 921   NORMALIZED FREE ENERGY PREDICTED BY IDOCK:   -5.15 KCAL/MOL
REMARK 922        TOTAL FREE ENERGY PREDICTED BY IDOCK:   -6.98 KCAL/MOL
REMARK 923 INTER-LIGAND FREE ENERGY PREDICTED BY IDOCK:   -6.41 KCAL/MOL
REMARK 924 INTRA-LIGAND FREE ENERGY PREDICTED BY IDOCK:   -0.57 KCAL/MOL
REMARK 927      BINDING AFFINITY PREDICTED BY RF-SCORE:    0.00 PKD
ROOT
HETATM    1  N   UNL     1      -9.864   9.164  65.702  1.00  0.00    -0.459 N  
HETATM    2  C   UNL     1      -9.423  10.151  66.546  1.00  0.00    -0.169 C  
HETATM    3  H2  UNL     1      -9.236   8.403  65.444  1.00  0.00     0.000 HD 
HETATM    4  H1  UNL     1     -10.814   9.181  65.329  1.00  0.00     0.000 HD 
HETATM    5  O   UNL     1      -8.279  10.130  66.995  1.00  0.00    -0.117 OA 
ENDROOT
BRANCH   2   6
HETATM    6  C   UNL     1     -10.435  11.181  66.844  1.00  0.00    -0.246 A  
HETATM    7  N   UNL     1     -10.500  12.371  66.227  1.00  0.00    -0.241 NA 
HETATM    8  N   UNL     1     -11.500  12.981  66.885  1.00  0.00    -0.321 NA 
HETATM    9  C   UNL     1     -12.065  12.148  67.798  1.00  0.00     0.073 A  
HETATM   10  N   UNL     1     -11.413  11.012  67.816  1.00  0.00    -0.499 NA 
BRANCH   8  11
HETATM   11  C1* UNL     1     -11.906  14.342  66.593  1.00  0.00    -0.421 C  
HETATM   12  O4* UNL     1     -13.018  14.296  65.669  1.00  0.00    -0.535 OA 
HETATM   13  C4* UNL     1     -12.508  14.537  64.339  1.00  0.00    -0.309 C  
HETATM   14  C3* UNL     1     -11.238  15.376  64.500  1.00  0.00    -0.299 C  
HETATM   15  H2* UNL     1     -10.203  17.079  66.261  1.00  0.00     0.000 HD 
HETATM   16  C2* UNL     1     -10.838  15.245  65.972  1.00  0.00    -0.330 C  
HETATM   17  H3* UNL     1     -10.690  17.287  64.311  1.00  0.00     0.000 HD 
HETATM   18  O3* UNL     1     -11.478  16.767  64.211  1.00  0.00    -1.125 OA 
HETATM   19  O2* UNL     1     -10.867  16.519  66.646  1.00  0.00    -0.206 OA 
BRANCH  13  20
HETATM   20  C5* UNL     1     -12.278  13.196  63.632  1.00  0.00    -0.479 C  
HETATM   21  O5* UNL     1     -13.126  12.202  64.208  1.00  0.00    -0.723 OA 
HETATM   22  H5* UNL     1     -12.984  11.371  63.769  1.00  0.00     0.000 HD 
ENDBRANCH  13  20
ENDBRANCH   8  11
ENDBRANCH   2   6
TORSDOF 3
ENDMDL
MODEL       20
REMARK 921   NORMALIZED FREE ENERGY PREDICTED BY IDOCK:   -5.14 KCAL/MOL
REMARK 922        TOTAL FREE ENERGY PREDICTED BY IDOCK:   -6.97 KCAL/MOL
REMARK 923 INTER-LIGAND FREE ENERGY PREDICTED BY IDOCK:   -6.31 KCAL/MOL
REMARK 924 INTRA-LIGAND FREE ENERGY PREDICTED BY IDOCK:   -0.67 KCAL/MOL
REMARK 927      BINDING AFFINITY PREDICTED BY RF-SCORE:    0.00 PKD
ROOT
HETATM    1  N   UNL     1     -11.290  11.361  63.001  1.00  0.00    -0.852 N  
HETATM    2  C   UNL     1     -12.459  11.878  63.499  1.00  0.00    -0.492 C  
HETATM    3  H2  UNL     1     -11.279  10.946  62.070  1.00  0.00     0.000 HD 
HETATM    4  H1  UNL     1     -10.431  11.386  63.551  1.00  0.00     0.000 HD 
HETATM    5  O   UNL     1     -13.494  11.847  62.836  1.00  0.00    -0.178 OA 
ENDROOT
BRANCH   2   6
HETATM    6  C   UNL     1     -12.332  12.456  64.850  1.00  0.00    -0.402 A  
HETATM    7  N   UNL     1     -11.854  11.788  65.910  1.00  0.00    -0.369 NA 
HETATM    8  N   UNL     1     -12.015  12.677  66.906  1.00  0.00    -0.506 NA 
HETATM    9  C   UNL     1     -12.487  13.860  66.434  1.00  0.00    -0.370 A  
HETATM   10  N   UNL     1     -12.716  13.758  65.148  1.00  0.00    -0.686 NA 
BRANCH   8  11
HETATM   11  C1* UNL     1     -11.677  12.372  68.282  1.00  0.00    -0.345 C  
HETATM   12  O4* UNL     1     -10.360  12.905  68.556  1.00  0.00    -0.243 OA 
HETATM   13  C4* UNL     1      -9.407  11.824  68.452  1.00  0.00    -0.185 C  
HETATM   14  C3* UNL     1     -10.167  10.535  68.774  1.00  0.00    -0.190 C  
HETATM   15  H2* UNL     1     -12.324   9.800  70.145  1.00  0.00     0.000 HD 
HETATM   16  C2* UNL     1     -11.652  10.889  68.657  1.00  0.00    -0.303 C  
HETATM   17  H3* UNL     1     -10.378   9.284  70.316  1.00  0.00     0.000 HD 
HETATM   18  O3* UNL     1      -9.906  10.083  70.117  1.00  0.00    -0.241 OA 
HETATM   19  O2* UNL     1     -12.339  10.721  69.913  1.00  0.00    -0.329 OA 
BRANCH  13  20
HETATM   20  C5* UNL     1      -8.773  11.837  67.057  1.00  0.00    -0.181 C  
HETATM   21  O5* UNL     1      -9.004  13.104  66.440  1.00  0.00    -0.434 OA 
HETATM   22  H5* UNL     1      -8.611  13.112  65.575  1.00  0.00     0.000 HD 
ENDBRANCH  13  20
ENDBRANCH   8  11
ENDBRANCH   2   6
TORSDOF 3
ENDMDL
MODEL       21
REMARK 921   NORMALIZED FREE ENERGY PREDICTED BY IDOCK:   -5.11 KCAL/MOL
REMARK 922        TOTAL FREE ENERGY PREDICTED BY IDOCK:   -6.93 KCAL/MOL
REMARK 923 INTER-LIGAND FREE ENERGY PREDICTED BY IDOCK:   -6.16 KCAL/MOL
REMARK 924 INTRA-LIGAND FREE ENERGY PREDICTED BY IDOCK:   -0.77 KCAL/MOL
REMARK 927      BINDING AFFINITY PREDICTED BY RF-SCORE:    0.00 PKD
ROOT
HETATM    1  N   UNL     1     -12.496  13.755  63.482  1.00  0.00    -1.020 N  
HETATM    2  C   UNL     1     -12.151  14.807  64.292  1.00  0.00    -0.394 C  
HETATM    3  H2  UNL     1     -13.064  13.923  62.652  1.00  0.00     0.000 HD 
HETATM    4  H1  UNL     1     -12.192  12.806  63.701  1.00  0.00     0.000 HD 
HETATM    5  O   UNL     1     -12.518  15.951  64.028  1.00  0.00    -0.710 OA 
ENDROOT
BRANCH   2   6
HETATM    6  C   UNL     1     -11.321  14.426  65.449  1.00  0.00    -0.339 A  
HETATM    7  N   UNL     1     -11.815  14.120  66.658  1.00  0.00    -0.406 NA 
HETATM    8  N   UNL     1     -10.699  13.936  67.385  1.00  0.00    -0.270 NA 
HETATM    9  C   UNL     1      -9.588  14.041  66.611  1.00  0.00    -0.289 A  
HETATM   10  N   UNL     1      -9.935  14.366  65.391  1.00  0.00    -0.344 NA 
BRANCH   8  11
HETATM   11  C1* UNL     1     -10.737  13.630  68.802  1.00  0.00    -0.244 C  
HETATM   12  O4* UNL     1      -9.927  12.455  69.035  1.00  0.00     0.013 OA 
HETATM   13  C4* UNL     1     -10.806  11.313  69.125  1.00  0.00    -0.222 C  
HETATM   14  C3* UNL     1     -12.159  11.836  69.611  1.00  0.00    -0.258 C  
HETATM   15  H2* UNL     1     -13.098  13.896  71.007  1.00  0.00     0.000 HD 
HETATM   16  C2* UNL     1     -12.120  13.352  69.395  1.00  0.00    -0.269 C  
HETATM   17  H3* UNL     1     -13.199  11.902  71.315  1.00  0.00     0.000 HD 
HETATM   18  O3* UNL     1     -12.359  11.577  71.014  1.00  0.00    -0.371 OA 
HETATM   19  O2* UNL     1     -12.239  14.069  70.639  1.00  0.00    -0.328 OA 
BRANCH  13  20
HETATM   20  C5* UNL     1     -10.867  10.609  67.764  1.00  0.00    -0.286 C  
HETATM   21  O5* UNL     1     -11.870  11.224  66.955  1.00  0.00    -0.423 OA 
HETATM   22  H5* UNL     1     -11.908  10.789  66.111  1.00  0.00     0.000 HD 
ENDBRANCH  13  20
ENDBRANCH   8  11
ENDBRANCH   2   6
TORSDOF 3
ENDMDL
MODEL       22
REMARK 921   NORMALIZED FREE ENERGY PREDICTED BY IDOCK:   -5.08 KCAL/MOL
REMARK 922        TOTAL FREE ENERGY PREDICTED BY IDOCK:   -6.90 KCAL/MOL
REMARK 923 INTER-LIGAND FREE ENERGY PREDICTED BY IDOCK:   -6.50 KCAL/MOL
REMARK 924 INTRA-LIGAND FREE ENERGY PREDICTED BY IDOCK:   -0.40 KCAL/MOL
REMARK 927      BINDING AFFINITY PREDICTED BY RF-SCORE:    0.00 PKD
ROOT
HETATM    1  N   UNL     1     -13.778  15.495  70.351  1.00  0.00    -0.628 N  
HETATM    2  C   UNL     1     -12.547  14.897  70.431  1.00  0.00    -0.343 C  
HETATM    3  H2  UNL     1     -14.388  15.505  71.168  1.00  0.00     0.000 HD 
HETATM    4  H1  UNL     1     -14.092  15.930  69.483  1.00  0.00     0.000 HD 
HETATM    5  O   UNL     1     -12.168  14.372  71.476  1.00  0.00    -0.341 OA 
ENDROOT
BRANCH   2   6
HETATM    6  C   UNL     1     -11.765  14.964  69.182  1.00  0.00    -0.309 A  
HETATM    7  N   UNL     1     -11.350  13.887  68.498  1.00  0.00    -0.261 NA 
HETATM    8  N   UNL     1     -10.620  14.438  67.512  1.00  0.00    -0.263 NA 
HETATM    9  C   UNL     1     -10.676  15.794  67.561  1.00  0.00    -0.317 A  
HETATM   10  N   UNL     1     -11.372  16.165  68.607  1.00  0.00    -0.370 NA 
BRANCH   8  11
HETATM   11  C1* UNL     1      -9.914  13.639  66.530  1.00  0.00    -0.288 C  
HETATM   12  O4* UNL     1      -9.959  14.334  65.262  1.00  0.00    -0.351 OA 
HETATM   13  C4* UNL     1     -11.010  13.747  64.465  1.00  0.00    -0.391 C  
HETATM   14  C3* UNL     1     -11.166  12.301  64.938  1.00  0.00    -0.319 C  
HETATM   15  H2* UNL     1      -9.682  10.433  66.115  1.00  0.00     0.000 HD 
HETATM   16  C2* UNL     1     -10.456  12.228  66.293  1.00  0.00    -0.238 C  
HETATM   17  H3* UNL     1     -10.630  10.475  64.331  1.00  0.00     0.000 HD 
HETATM   18  O3* UNL     1     -10.533  11.373  64.037  1.00  0.00    -0.315 OA 
HETATM   19  O2* UNL     1      -9.345  11.309  66.261  1.00  0.00    -0.194 OA 
BRANCH  13  20
HETATM   20  C5* UNL     1     -12.285  14.586  64.607  1.00  0.00    -0.460 C  
HETATM   21  O5* UNL     1     -12.195  15.736  63.765  1.00  0.00    -1.113 OA 
HETATM   22  H5* UNL     1     -12.985  16.257  63.853  1.00  0.00     0.000 HD 
ENDBRANCH  13  20
ENDBRANCH   8  11
ENDBRANCH   2   6
TORSDOF 3
ENDMDL
MODEL       23
REMARK 921   NORMALIZED FREE ENERGY PREDICTED BY IDOCK:   -5.05 KCAL/MOL
REMARK 922        TOTAL FREE ENERGY PREDICTED BY IDOCK:   -6.87 KCAL/MOL
REMARK 923 INTER-LIGAND FREE ENERGY PREDICTED BY IDOCK:   -6.03 KCAL/MOL
REMARK 924 INTRA-LIGAND FREE ENERGY PREDICTED BY IDOCK:   -0.84 KCAL/MOL
REMARK 927      BINDING AFFINITY PREDICTED BY RF-SCORE:    0.00 PKD
ROOT
HETATM    1  N   UNL     1     -12.211  12.773  65.068  1.00  0.00    -0.448 N  
HETATM    2  C   UNL     1     -11.943  12.801  66.413  1.00  0.00    -0.375 C  
HETATM    3  H2  UNL     1     -12.430  11.886  64.616  1.00  0.00     0.000 HD 
HETATM    4  H1  UNL     1     -12.194  13.630  64.514  1.00  0.00     0.000 HD 
HETATM    5  O   UNL     1     -11.963  11.769  67.081  1.00  0.00    -0.617 OA 
ENDROOT
BRANCH   2   6
HETATM    6  C   UNL     1     -11.654  14.148  66.939  1.00  0.00    -0.391 A  
HETATM    7  N   UNL     1     -11.256  15.180  66.181  1.00  0.00    -0.313 NA 
HETATM    8  N   UNL     1     -11.036  16.141  67.095  1.00  0.00    -0.213 NA 
HETATM    9  C   UNL     1     -11.379  15.718  68.340  1.00  0.00    -0.372 A  
HETATM   10  N   UNL     1     -11.756  14.465  68.288  1.00  0.00    -0.328 NA 
BRANCH   8  11
HETATM   11  C1* UNL     1     -10.532  17.452  66.739  1.00  0.00    -0.257 C  
HETATM   12  O4* UNL     1      -9.433  17.282  65.814  1.00  0.00    -0.527 OA 
HETATM   13  C4* UNL     1      -8.199  17.398  66.556  1.00  0.00    -0.276 C  
HETATM   14  C3* UNL     1      -8.496  18.283  67.769  1.00  0.00    -0.249 C  
HETATM   15  H2* UNL     1     -10.224  20.186  68.452  1.00  0.00     0.000 HD 
HETATM   16  C2* UNL     1     -10.022  18.315  67.895  1.00  0.00    -0.345 C  
HETATM   17  H3* UNL     1      -8.207  20.179  68.327  1.00  0.00     0.000 HD 
HETATM   18  O3* UNL     1      -8.022  19.630  67.575  1.00  0.00    -0.266 OA 
HETATM   19  O2* UNL     1     -10.540  19.651  67.734  1.00  0.00    -0.435 OA 
BRANCH  13  20
HETATM   20  C5* UNL     1      -7.691  15.998  66.922  1.00  0.00    -0.244 C  
HETATM   21  O5* UNL     1      -8.429  15.018  66.191  1.00  0.00    -0.374 OA 
HETATM   22  H5* UNL     1      -8.115  14.150  66.417  1.00  0.00     0.000 HD 
ENDBRANCH  13  20
ENDBRANCH   8  11
ENDBRANCH   2   6
TORSDOF 3
ENDMDL
MODEL       24
REMARK 921   NORMALIZED FREE ENERGY PREDICTED BY IDOCK:   -5.05 KCAL/MOL
REMARK 922        TOTAL FREE ENERGY PREDICTED BY IDOCK:   -6.86 KCAL/MOL
REMARK 923 INTER-LIGAND FREE ENERGY PREDICTED BY IDOCK:   -6.03 KCAL/MOL
REMARK 924 INTRA-LIGAND FREE ENERGY PREDICTED BY IDOCK:   -0.83 KCAL/MOL
REMARK 927      BINDING AFFINITY PREDICTED BY RF-SCORE:    0.00 PKD
ROOT
HETATM    1  N   UNL     1      -9.846  10.486  62.370  1.00  0.00    -0.725 N  
HETATM    2  C   UNL     1      -9.785  10.491  63.741  1.00  0.00    -0.326 C  
HETATM    3  H2  UNL     1      -9.233   9.867  61.841  1.00  0.00     0.000 HD 
HETATM    4  H1  UNL     1     -10.498  11.095  61.874  1.00  0.00     0.000 HD 
HETATM    5  O   UNL     1      -9.000   9.758  64.339  1.00  0.00    -0.214 OA 
ENDROOT
BRANCH   2   6
HETATM    6  C   UNL     1     -10.732  11.424  64.380  1.00  0.00    -0.342 A  
HETATM    7  N   UNL     1     -10.627  11.849  65.647  1.00  0.00    -0.259 NA 
HETATM    8  N   UNL     1     -11.740  12.588  65.795  1.00  0.00    -0.406 NA 
HETATM    9  C   UNL     1     -12.431  12.670  64.629  1.00  0.00    -0.466 A  
HETATM   10  N   UNL     1     -11.841  11.937  63.718  1.00  0.00    -0.457 NA 
BRANCH   8  11
HETATM   11  C1* UNL     1     -12.089  13.224  67.051  1.00  0.00    -0.320 C  
HETATM   12  O4* UNL     1     -12.149  14.653  66.836  1.00  0.00    -0.361 OA 
HETATM   13  C4* UNL     1     -10.908  15.230  67.295  1.00  0.00    -0.318 C  
HETATM   14  C3* UNL     1     -10.364  14.297  68.379  1.00  0.00    -0.247 C  
HETATM   15  H2* UNL     1     -11.310  12.520  70.117  1.00  0.00     0.000 HD 
HETATM   16  C2* UNL     1     -11.130  12.982  68.218  1.00  0.00    -0.263 C  
HETATM   17  H3* UNL     1     -10.274  14.236  70.374  1.00  0.00     0.000 HD 
HETATM   18  O3* UNL     1     -10.612  14.815  69.701  1.00  0.00    -0.220 OA 
HETATM   19  O2* UNL     1     -11.906  12.671  69.393  1.00  0.00    -0.295 OA 
BRANCH  13  20
HETATM   20  C5* UNL     1      -9.960  15.412  66.104  1.00  0.00    -0.307 C  
HETATM   21  O5* UNL     1      -9.059  14.306  66.038  1.00  0.00    -0.504 OA 
HETATM   22  H5* UNL     1      -8.472  14.419  65.300  1.00  0.00     0.000 HD 
ENDBRANCH  13  20
ENDBRANCH   8  11
ENDBRANCH   2   6
TORSDOF 3
ENDMDL
MODEL       25
REMARK 921   NORMALIZED FREE ENERGY PREDICTED BY IDOCK:   -5.03 KCAL/MOL
REMARK 922        TOTAL FREE ENERGY PREDICTED BY IDOCK:   -6.84 KCAL/MOL
REMARK 923 INTER-LIGAND FREE ENERGY PREDICTED BY IDOCK:   -6.57 KCAL/MOL
REMARK 924 INTRA-LIGAND FREE ENERGY PREDICTED BY IDOCK:   -0.27 KCAL/MOL
REMARK 927      BINDING AFFINITY PREDICTED BY RF-SCORE:    0.00 PKD
ROOT
HETATM    1  N   UNL     1     -12.326  13.886  63.191  1.00  0.00    -1.106 N  
HETATM    2  C   UNL     1     -12.403  12.825  64.057  1.00  0.00    -0.411 C  
HETATM    3  H2  UNL     1     -12.905  13.894  62.352  1.00  0.00     0.000 HD 
HETATM    4  H1  UNL     1     -11.696  14.667  63.376  1.00  0.00     0.000 HD 
HETATM    5  O   UNL     1     -13.162  11.884  63.834  1.00  0.00    -0.626 OA 
ENDROOT
BRANCH   2   6
HETATM    6  C   UNL     1     -11.522  12.947  65.233  1.00  0.00    -0.313 A  
HETATM    7  N   UNL     1     -11.818  12.457  66.447  1.00  0.00    -0.560 NA 
HETATM    8  N   UNL     1     -10.782  12.884  67.189  1.00  0.00    -0.251 NA 
HETATM    9  C   UNL     1      -9.862  13.526  66.423  1.00  0.00    -0.295 A  
HETATM   10  N   UNL     1     -10.298  13.602  65.190  1.00  0.00    -0.357 NA 
BRANCH   8  11
HETATM   11  C1* UNL     1     -10.691  12.632  68.614  1.00  0.00    -0.242 C  
HETATM   12  O4* UNL     1      -9.792  11.518  68.822  1.00  0.00    -0.201 OA 
HETATM   13  C4* UNL     1     -10.587  10.329  69.020  1.00  0.00    -0.224 C  
HETATM   14  C3* UNL     1     -11.929  10.787  69.593  1.00  0.00    -0.313 C  
HETATM   15  H2* UNL     1     -12.888  12.838  70.988  1.00  0.00     0.000 HD 
HETATM   16  C2* UNL     1     -12.004  12.292  69.323  1.00  0.00    -0.253 C  
HETATM   17  H3* UNL     1     -12.837  10.855  71.371  1.00  0.00     0.000 HD 
HETATM   18  O3* UNL     1     -12.004  10.571  71.016  1.00  0.00    -0.343 OA 
HETATM   19  O2* UNL     1     -12.073  13.049  70.548  1.00  0.00    -0.355 OA 
BRANCH  13  20
HETATM   20  C5* UNL     1     -10.707   9.570  67.693  1.00  0.00    -0.250 C  
HETATM   21  O5* UNL     1     -11.152   8.237  67.945  1.00  0.00    -0.469 OA 
HETATM   22  H5* UNL     1     -11.226   7.766  67.123  1.00  0.00     0.000 HD 
ENDBRANCH  13  20
ENDBRANCH   8  11
ENDBRANCH   2   6
TORSDOF 3
ENDMDL
MODEL       26
REMARK 921   NORMALIZED FREE ENERGY PREDICTED BY IDOCK:   -4.97 KCAL/MOL
REMARK 922        TOTAL FREE ENERGY PREDICTED BY IDOCK:   -6.77 KCAL/MOL
REMARK 923 INTER-LIGAND FREE ENERGY PREDICTED BY IDOCK:   -6.28 KCAL/MOL
REMARK 924 INTRA-LIGAND FREE ENERGY PREDICTED BY IDOCK:   -0.49 KCAL/MOL
REMARK 927      BINDING AFFINITY PREDICTED BY RF-SCORE:    0.00 PKD
ROOT
HETATM    1  N   UNL     1     -13.620  15.451  70.595  1.00  0.00    -0.826 N  
HETATM    2  C   UNL     1     -12.307  15.714  70.890  1.00  0.00    -0.429 C  
HETATM    3  H2  UNL     1     -14.298  15.361  71.352  1.00  0.00     0.000 HD 
HETATM    4  H1  UNL     1     -13.927  15.343  69.628  1.00  0.00     0.000 HD 
HETATM    5  O   UNL     1     -11.937  15.844  72.056  1.00  0.00    -0.420 OA 
ENDROOT
BRANCH   2   6
HETATM    6  C   UNL     1     -11.437  15.829  69.705  1.00  0.00    -0.349 A  
HETATM    7  N   UNL     1     -10.312  16.559  69.667  1.00  0.00    -0.258 NA 
HETATM    8  N   UNL     1      -9.930  16.430  68.385  1.00  0.00    -0.231 NA 
HETATM    9  C   UNL     1     -10.750  15.581  67.713  1.00  0.00    -0.297 A  
HETATM   10  N   UNL     1     -11.721  15.195  68.502  1.00  0.00    -0.336 NA 
BRANCH   8  11
HETATM   11  C1* UNL     1      -8.762  17.103  67.851  1.00  0.00    -0.222 C  
HETATM   12  O4* UNL     1      -8.483  18.255  68.681  1.00  0.00    -0.317 OA 
HETATM   13  C4* UNL     1      -9.020  19.423  68.024  1.00  0.00    -0.322 C  
HETATM   14  C3* UNL     1      -9.034  19.119  66.525  1.00  0.00    -0.341 C  
HETATM   15  H2* UNL     1      -7.732  17.556  64.812  1.00  0.00     0.000 HD 
HETATM   16  C2* UNL     1      -8.872  17.601  66.408  1.00  0.00    -0.236 C  
HETATM   17  H3* UNL     1      -7.944  19.563  64.911  1.00  0.00     0.000 HD 
HETATM   18  O3* UNL     1      -7.935  19.752  65.841  1.00  0.00    -0.347 OA 
HETATM   19  O2* UNL     1      -7.663  17.248  65.708  1.00  0.00    -0.470 OA 
BRANCH  13  20
HETATM   20  C5* UNL     1     -10.404  19.741  68.604  1.00  0.00    -0.308 C  
HETATM   21  O5* UNL     1     -10.308  19.866  70.023  1.00  0.00    -0.572 OA 
HETATM   22  H5* UNL     1     -11.165  20.063  70.383  1.00  0.00     0.000 HD 
ENDBRANCH  13  20
ENDBRANCH   8  11
ENDBRANCH   2   6
TORSDOF 3
ENDMDL
MODEL       27
REMARK 921   NORMALIZED FREE ENERGY PREDICTED BY IDOCK:   -4.97 KCAL/MOL
REMARK 922        TOTAL FREE ENERGY PREDICTED BY IDOCK:   -6.77 KCAL/MOL
REMARK 923 INTER-LIGAND FREE ENERGY PREDICTED BY IDOCK:   -6.23 KCAL/MOL
REMARK 924 INTRA-LIGAND FREE ENERGY PREDICTED BY IDOCK:   -0.54 KCAL/MOL
REMARK 927      BINDING AFFINITY PREDICTED BY RF-SCORE:    0.00 PKD
ROOT
HETATM    1  N   UNL     1     -12.675  11.921  71.126  1.00  0.00    -0.344 N  
HETATM    2  C   UNL     1     -12.249  10.753  70.547  1.00  0.00    -0.366 C  
HETATM    3  H2  UNL     1     -12.990  11.917  72.096  1.00  0.00     0.000 HD 
HETATM    4  H1  UNL     1     -12.680  12.794  70.599  1.00  0.00     0.000 HD 
HETATM    5  O   UNL     1     -12.244   9.701  71.183  1.00  0.00    -0.311 OA 
ENDROOT
BRANCH   2   6
HETATM    6  C   UNL     1     -11.811  10.902  69.148  1.00  0.00    -0.317 A  
HETATM    7  N   UNL     1     -12.153  11.933  68.360  1.00  0.00    -0.433 NA 
HETATM    8  N   UNL     1     -11.605  11.588  67.182  1.00  0.00    -0.557 NA 
HETATM    9  C   UNL     1     -10.889  10.439  67.293  1.00  0.00    -0.264 A  
HETATM   10  N   UNL     1     -11.007   9.966  68.509  1.00  0.00    -0.210 NA 
BRANCH   8  11
HETATM   11  C1* UNL     1     -11.760  12.394  65.987  1.00  0.00    -0.410 C  
HETATM   12  O4* UNL     1     -10.462  12.538  65.365  1.00  0.00    -0.270 OA 
HETATM   13  C4* UNL     1      -9.925  13.826  65.737  1.00  0.00    -0.275 C  
HETATM   14  C3* UNL     1     -11.121  14.736  66.022  1.00  0.00    -0.330 C  
HETATM   15  H2* UNL     1     -13.680  14.919  65.320  1.00  0.00     0.000 HD 
HETATM   16  C2* UNL     1     -12.322  13.802  66.193  1.00  0.00    -0.452 C  
HETATM   17  H3* UNL     1     -12.128  16.194  65.100  1.00  0.00     0.000 HD 
HETATM   18  O3* UNL     1     -11.386  15.630  64.923  1.00  0.00    -0.372 OA 
HETATM   19  O2* UNL     1     -13.330  14.045  65.191  1.00  0.00    -0.703 OA 
BRANCH  13  20
HETATM   20  C5* UNL     1      -8.979  13.656  66.932  1.00  0.00    -0.218 C  
HETATM   21  O5* UNL     1      -8.067  12.589  66.668  1.00  0.00    -0.398 OA 
HETATM   22  H5* UNL     1      -7.480  12.483  67.408  1.00  0.00     0.000 HD 
ENDBRANCH  13  20
ENDBRANCH   8  11
ENDBRANCH   2   6
TORSDOF 3
ENDMDL
MODEL       28
REMARK 921   NORMALIZED FREE ENERGY PREDICTED BY IDOCK:   -4.91 KCAL/MOL
REMARK 922        TOTAL FREE ENERGY PREDICTED BY IDOCK:   -6.70 KCAL/MOL
REMARK 923 INTER-LIGAND FREE ENERGY PREDICTED BY IDOCK:   -6.32 KCAL/MOL
REMARK 924 INTRA-LIGAND FREE ENERGY PREDICTED BY IDOCK:   -0.39 KCAL/MOL
REMARK 927      BINDING AFFINITY PREDICTED BY RF-SCORE:    0.00 PKD
ROOT
HETATM    1  N   UNL     1     -11.131   8.548  69.612  1.00  0.00    -0.438 N  
HETATM    2  C   UNL     1     -11.523   9.663  70.308  1.00  0.00    -0.233 C  
HETATM    3  H2  UNL     1     -10.962   7.675  70.113  1.00  0.00     0.000 HD 
HETATM    4  H1  UNL     1     -11.007   8.580  68.600  1.00  0.00     0.000 HD 
HETATM    5  O   UNL     1     -11.672   9.624  71.528  1.00  0.00    -0.371 OA 
ENDROOT
BRANCH   2   6
HETATM    6  C   UNL     1     -11.743  10.850  69.462  1.00  0.00    -0.328 A  
HETATM    7  N   UNL     1     -11.804  10.817  68.123  1.00  0.00    -0.514 NA 
HETATM    8  N   UNL     1     -11.923  12.118  67.808  1.00  0.00    -0.524 NA 
HETATM    9  C   UNL     1     -12.020  12.885  68.925  1.00  0.00    -0.250 A  
HETATM   10  N   UNL     1     -11.894  12.128  69.987  1.00  0.00    -0.330 NA 
BRANCH   8  11
HETATM   11  C1* UNL     1     -11.974  12.584  66.436  1.00  0.00    -0.318 C  
HETATM   12  O4* UNL     1     -10.682  12.351  65.828  1.00  0.00    -0.255 OA 
HETATM   13  C4* UNL     1      -9.945  13.593  65.851  1.00  0.00    -0.291 C  
HETATM   14  C3* UNL     1     -10.979  14.720  65.851  1.00  0.00    -0.335 C  
HETATM   15  H2* UNL     1     -13.491  15.099  65.064  1.00  0.00     0.000 HD 
HETATM   16  C2* UNL     1     -12.307  14.065  66.239  1.00  0.00    -0.448 C  
HETATM   17  H3* UNL     1     -11.765  16.010  64.544  1.00  0.00     0.000 HD 
HETATM   18  O3* UNL     1     -11.123  15.311  64.545  1.00  0.00    -0.343 OA 
HETATM   19  O2* UNL     1     -13.285  14.179  65.186  1.00  0.00    -0.743 OA 
BRANCH  13  20
HETATM   20  C5* UNL     1      -9.013  13.608  67.069  1.00  0.00    -0.236 C  
HETATM   21  O5* UNL     1      -7.971  14.562  66.859  1.00  0.00    -0.359 OA 
HETATM   22  H5* UNL     1      -7.393  14.572  67.613  1.00  0.00     0.000 HD 
ENDBRANCH  13  20
ENDBRANCH   8  11
ENDBRANCH   2   6
TORSDOF 3
ENDMDL
MODEL       29
REMARK 921   NORMALIZED FREE ENERGY PREDICTED BY IDOCK:   -4.89 KCAL/MOL
REMARK 922        TOTAL FREE ENERGY PREDICTED BY IDOCK:   -6.67 KCAL/MOL
REMARK 923 INTER-LIGAND FREE ENERGY PREDICTED BY IDOCK:   -5.75 KCAL/MOL
REMARK 924 INTRA-LIGAND FREE ENERGY PREDICTED BY IDOCK:   -0.92 KCAL/MOL
REMARK 927      BINDING AFFINITY PREDICTED BY RF-SCORE:    0.00 PKD
ROOT
HETATM    1  N   UNL     1     -11.278  13.077  69.422  1.00  0.00    -0.436 N  
HETATM    2  C   UNL     1     -11.749  11.848  69.036  1.00  0.00    -0.331 C  
HETATM    3  H2  UNL     1     -11.246  13.839  68.745  1.00  0.00     0.000 HD 
HETATM    4  H1  UNL     1     -10.960  13.239  70.378  1.00  0.00     0.000 HD 
HETATM    5  O   UNL     1     -12.131  11.653  67.884  1.00  0.00    -0.613 OA 
ENDROOT
BRANCH   2   6
HETATM    6  C   UNL     1     -11.752  10.842  70.114  1.00  0.00    -0.339 A  
HETATM    7  N   UNL     1     -10.693  10.084  70.436  1.00  0.00    -0.303 NA 
HETATM    8  N   UNL     1     -11.195   9.279  71.388  1.00  0.00    -0.335 NA 
HETATM    9  C   UNL     1     -12.480   9.610  71.681  1.00  0.00    -0.407 A  
HETATM   10  N   UNL     1     -12.873  10.577  70.890  1.00  0.00    -0.385 NA 
BRANCH   8  11
HETATM   11  C1* UNL     1     -10.411   8.233  72.014  1.00  0.00    -0.279 C  
HETATM   12  O4* UNL     1      -9.784   7.449  70.972  1.00  0.00    -0.166 OA 
HETATM   13  C4* UNL     1     -10.570   6.254  70.773  1.00  0.00    -0.243 C  
HETATM   14  C3* UNL     1     -11.275   5.965  72.100  1.00  0.00    -0.287 C  
HETATM   15  H2* UNL     1     -10.908   6.466  74.686  1.00  0.00     0.000 HD 
HETATM   16  C2* UNL     1     -11.179   7.260  72.911  1.00  0.00    -0.292 C  
HETATM   17  H3* UNL     1     -11.059   4.734  73.657  1.00  0.00     0.000 HD 
HETATM   18  O3* UNL     1     -10.621   4.913  72.834  1.00  0.00    -0.195 OA 
HETATM   19  O2* UNL     1     -10.430   7.069  74.129  1.00  0.00    -0.335 OA 
BRANCH  13  20
HETATM   20  C5* UNL     1     -11.528   6.466  69.595  1.00  0.00    -0.378 C  
HETATM   21  O5* UNL     1     -11.085   7.576  68.814  1.00  0.00    -0.427 OA 
HETATM   22  H5* UNL     1     -11.679   7.708  68.084  1.00  0.00     0.000 HD 
ENDBRANCH  13  20
ENDBRANCH   8  11
ENDBRANCH   2   6
TORSDOF 3
ENDMDL
MODEL       30
REMARK 921   NORMALIZED FREE ENERGY PREDICTED BY IDOCK:   -4.87 KCAL/MOL
REMARK 922        TOTAL FREE ENERGY PREDICTED BY IDOCK:   -6.65 KCAL/MOL
REMARK 923 INTER-LIGAND FREE ENERGY PREDICTED BY IDOCK:   -5.73 KCAL/MOL
REMARK 924 INTRA-LIGAND FREE ENERGY PREDICTED BY IDOCK:   -0.93 KCAL/MOL
REMARK 927      BINDING AFFINITY PREDICTED BY RF-SCORE:    0.00 PKD
ROOT
HETATM    1  N   UNL     1     -10.642  11.854  63.022  1.00  0.00    -0.665 N  
HETATM    2  C   UNL     1     -11.817  12.008  63.712  1.00  0.00    -0.484 C  
HETATM    3  H2  UNL     1     -10.662  11.757  62.007  1.00  0.00     0.000 HD 
HETATM    4  H1  UNL     1      -9.747  11.835  63.512  1.00  0.00     0.000 HD 
HETATM    5  O   UNL     1     -12.895  12.031  63.122  1.00  0.00    -0.661 OA 
ENDROOT
BRANCH   2   6
HETATM    6  C   UNL     1     -11.643  12.147  65.170  1.00  0.00    -0.317 A  
HETATM    7  N   UNL     1     -12.405  12.933  65.945  1.00  0.00    -0.540 NA 
HETATM    8  N   UNL     1     -11.821  12.802  67.149  1.00  0.00    -0.374 NA 
HETATM    9  C   UNL     1     -10.806  11.901  67.104  1.00  0.00    -0.255 A  
HETATM   10  N   UNL     1     -10.650  11.479  65.874  1.00  0.00    -0.261 NA 
BRANCH   8  11
HETATM   11  C1* UNL     1     -12.281  13.526  68.318  1.00  0.00    -0.113 C  
HETATM   12  O4* UNL     1     -12.390  14.926  67.972  1.00  0.00    -0.060 OA 
HETATM   13  C4* UNL     1     -11.209  15.602  68.454  1.00  0.00    -0.352 C  
HETATM   14  C3* UNL     1     -10.697  14.795  69.649  1.00  0.00    -0.189 C  
HETATM   15  H2* UNL     1     -11.676  13.130  71.478  1.00  0.00     0.000 HD 
HETATM   16  C2* UNL     1     -11.391  13.434  69.559  1.00  0.00    -0.183 C  
HETATM   17  H3* UNL     1     -10.737  14.911  71.643  1.00  0.00     0.000 HD 
HETATM   18  O3* UNL     1     -11.054  15.412  70.901  1.00  0.00    -0.324 OA 
HETATM   19  O2* UNL     1     -12.229  13.188  70.707  1.00  0.00    -0.361 OA 
BRANCH  13  20
HETATM   20  C5* UNL     1     -10.193  15.728  67.312  1.00  0.00    -0.268 C  
HETATM   21  O5* UNL     1     -10.870  15.619  66.059  1.00  0.00    -0.318 OA 
HETATM   22  H5* UNL     1     -10.241  15.697  65.351  1.00  0.00     0.000 HD 
ENDBRANCH  13  20
ENDBRANCH   8  11
ENDBRANCH   2   6
TORSDOF 3
ENDMDL
MODEL       31
REMARK 921   NORMALIZED FREE ENERGY PREDICTED BY IDOCK:   -4.85 KCAL/MOL
REMARK 922        TOTAL FREE ENERGY PREDICTED BY IDOCK:   -6.64 KCAL/MOL
REMARK 923 INTER-LIGAND FREE ENERGY PREDICTED BY IDOCK:   -5.96 KCAL/MOL
REMARK 924 INTRA-LIGAND FREE ENERGY PREDICTED BY IDOCK:   -0.68 KCAL/MOL
REMARK 927      BINDING AFFINITY PREDICTED BY RF-SCORE:    0.00 PKD
ROOT
HETATM    1  N   UNL     1     -10.941   7.977  67.665  1.00  0.00    -0.506 N  
HETATM    2  C   UNL     1      -9.682   8.288  67.216  1.00  0.00    -0.177 C  
HETATM    3  H2  UNL     1     -11.050   7.369  68.477  1.00  0.00     0.000 HD 
HETATM    4  H1  UNL     1     -11.769   8.347  67.198  1.00  0.00     0.000 HD 
HETATM    5  O   UNL     1      -8.685   7.842  67.779  1.00  0.00    -0.127 OA 
ENDROOT
BRANCH   2   6
HETATM    6  C   UNL     1      -9.668   9.183  66.044  1.00  0.00    -0.287 A  
HETATM    7  N   UNL     1     -10.495  10.228  65.888  1.00  0.00    -0.153 NA 
HETATM    8  N   UNL     1     -10.172  10.668  64.660  1.00  0.00    -0.349 NA 
HETATM    9  C   UNL     1      -9.129   9.965  64.146  1.00  0.00    -0.252 A  
HETATM   10  N   UNL     1      -8.794   9.011  64.979  1.00  0.00    -0.192 NA 
BRANCH   8  11
HETATM   11  C1* UNL     1     -10.857  11.778  64.027  1.00  0.00    -0.385 C  
HETATM   12  O4* UNL     1     -10.039  12.962  64.177  1.00  0.00    -0.350 OA 
HETATM   13  C4* UNL     1     -10.559  13.731  65.283  1.00  0.00    -0.353 C  
HETATM   14  C3* UNL     1     -12.048  13.395  65.392  1.00  0.00    -0.421 C  
HETATM   15  H2* UNL     1     -14.002  12.533  63.807  1.00  0.00     0.000 HD 
HETATM   16  C2* UNL     1     -12.245  12.115  64.576  1.00  0.00    -0.319 C  
HETATM   17  H3* UNL     1     -13.795  14.225  64.892  1.00  0.00     0.000 HD 
HETATM   18  O3* UNL     1     -12.871  14.433  64.825  1.00  0.00    -0.647 OA 
HETATM   19  O2* UNL     1     -13.140  12.325  63.465  1.00  0.00    -0.766 OA 
BRANCH  13  20
HETATM   20  C5* UNL     1      -9.757  13.406  66.550  1.00  0.00    -0.282 C  
HETATM   21  O5* UNL     1      -8.583  12.674  66.195  1.00  0.00    -0.391 OA 
HETATM   22  H5* UNL     1      -8.086  12.473  66.980  1.00  0.00     0.000 HD 
ENDBRANCH  13  20
ENDBRANCH   8  11
ENDBRANCH   2   6
TORSDOF 3
ENDMDL
MODEL       32
REMARK 921   NORMALIZED FREE ENERGY PREDICTED BY IDOCK:   -4.85 KCAL/MOL
REMARK 922        TOTAL FREE ENERGY PREDICTED BY IDOCK:   -6.64 KCAL/MOL
REMARK 923 INTER-LIGAND FREE ENERGY PREDICTED BY IDOCK:   -5.98 KCAL/MOL
REMARK 924 INTRA-LIGAND FREE ENERGY PREDICTED BY IDOCK:   -0.65 KCAL/MOL
REMARK 927      BINDING AFFINITY PREDICTED BY RF-SCORE:    0.00 PKD
ROOT
HETATM    1  N   UNL     1     -10.325  16.306  65.773  1.00  0.00    -0.364 N  
HETATM    2  C   UNL     1     -11.147  15.868  64.765  1.00  0.00    -0.384 C  
HETATM    3  H2  UNL     1     -10.081  17.295  65.830  1.00  0.00     0.000 HD 
HETATM    4  H1  UNL     1      -9.955  15.655  66.466  1.00  0.00     0.000 HD 
HETATM    5  O   UNL     1     -11.592  16.652  63.930  1.00  0.00    -1.204 OA 
ENDROOT
BRANCH   2   6
HETATM    6  C   UNL     1     -11.427  14.421  64.807  1.00  0.00    -0.402 A  
HETATM    7  N   UNL     1     -10.532  13.473  64.491  1.00  0.00    -0.432 NA 
HETATM    8  N   UNL     1     -11.259  12.347  64.589  1.00  0.00    -0.300 NA 
HETATM    9  C   UNL     1     -12.515  12.613  65.036  1.00  0.00    -0.487 A  
HETATM   10  N   UNL     1     -12.666  13.907  65.168  1.00  0.00    -0.689 NA 
BRANCH   8  11
HETATM   11  C1* UNL     1     -10.713  11.040  64.282  1.00  0.00    -0.278 C  
HETATM   12  O4* UNL     1     -10.643  10.277  65.509  1.00  0.00    -0.142 OA 
HETATM   13  C4* UNL     1      -9.286  10.338  66.000  1.00  0.00    -0.180 C  
HETATM   14  C3* UNL     1      -8.387  10.558  64.783  1.00  0.00    -0.125 C  
HETATM   15  H2* UNL     1      -8.450  10.088  62.165  1.00  0.00     0.000 HD 
HETATM   16  C2* UNL     1      -9.316  11.024  63.658  1.00  0.00    -0.238 C  
HETATM   17  H3* UNL     1      -7.182   9.474  63.614  1.00  0.00     0.000 HD 
HETATM   18  O3* UNL     1      -7.741   9.338  64.370  1.00  0.00    -0.110 OA 
HETATM   19  O2* UNL     1      -9.318  10.098  62.553  1.00  0.00    -0.284 OA 
BRANCH  13  20
HETATM   20  C5* UNL     1      -9.178  11.444  67.057  1.00  0.00    -0.169 C  
HETATM   21  O5* UNL     1     -10.476  11.736  67.576  1.00  0.00    -0.196 OA 
HETATM   22  H5* UNL     1     -10.409  12.421  68.231  1.00  0.00     0.000 HD 
ENDBRANCH  13  20
ENDBRANCH   8  11
ENDBRANCH   2   6
TORSDOF 3
ENDMDL
MODEL       33
REMARK 921   NORMALIZED FREE ENERGY PREDICTED BY IDOCK:   -4.82 KCAL/MOL
REMARK 922        TOTAL FREE ENERGY PREDICTED BY IDOCK:   -6.60 KCAL/MOL
REMARK 923 INTER-LIGAND FREE ENERGY PREDICTED BY IDOCK:   -5.84 KCAL/MOL
REMARK 924 INTRA-LIGAND FREE ENERGY PREDICTED BY IDOCK:   -0.76 KCAL/MOL
REMARK 927      BINDING AFFINITY PREDICTED BY RF-SCORE:    0.00 PKD
ROOT
HETATM    1  N   UNL     1     -12.298  11.654  62.897  1.00  0.00    -0.861 N  
HETATM    2  C   UNL     1     -11.239  11.618  63.769  1.00  0.00    -0.414 C  
HETATM    3  H2  UNL     1     -12.307  11.031  62.090  1.00  0.00     0.000 HD 
HETATM    4  H1  UNL     1     -13.077  12.296  63.047  1.00  0.00     0.000 HD 
HETATM    5  O   UNL     1     -10.300  10.846  63.587  1.00  0.00    -0.355 OA 
ENDROOT
BRANCH   2   6
HETATM    6  C   UNL     1     -11.358  12.561  64.896  1.00  0.00    -0.310 A  
HETATM    7  N   UNL     1     -10.355  13.334  65.338  1.00  0.00    -0.300 NA 
HETATM    8  N   UNL     1     -10.905  13.934  66.408  1.00  0.00    -0.289 NA 
HETATM    9  C   UNL     1     -12.214  13.595  66.540  1.00  0.00    -0.404 A  
HETATM   10  N   UNL     1     -12.534  12.720  65.620  1.00  0.00    -0.608 NA 
BRANCH   8  11
HETATM   11  C1* UNL     1     -10.161  14.844  67.256  1.00  0.00    -0.241 C  
HETATM   12  O4* UNL     1     -10.918  16.071  67.380  1.00  0.00    -0.315 OA 
HETATM   13  C4* UNL     1     -10.364  17.036  66.459  1.00  0.00    -0.298 C  
HETATM   14  C3* UNL     1      -8.895  16.659  66.257  1.00  0.00    -0.312 C  
HETATM   15  H2* UNL     1      -6.981  15.377  67.586  1.00  0.00     0.000 HD 
HETATM   16  C2* UNL     1      -8.760  15.223  66.771  1.00  0.00    -0.270 C  
HETATM   17  H3* UNL     1      -7.105  17.273  66.898  1.00  0.00     0.000 HD 
HETATM   18  O3* UNL     1      -8.017  17.507  67.023  1.00  0.00    -0.200 OA 
HETATM   19  O2* UNL     1      -7.851  15.142  67.887  1.00  0.00    -0.120 OA 
BRANCH  13  20
HETATM   20  C5* UNL     1     -11.187  17.034  65.165  1.00  0.00     0.246 C  
HETATM   21  O5* UNL     1     -10.708  16.006  64.298  1.00  0.00    -0.783 OA 
HETATM   22  H5* UNL     1     -11.218  16.004  63.496  1.00  0.00     0.000 HD 
ENDBRANCH  13  20
ENDBRANCH   8  11
ENDBRANCH   2   6
TORSDOF 3
ENDMDL
MODEL       34
REMARK 921   NORMALIZED FREE ENERGY PREDICTED BY IDOCK:   -4.78 KCAL/MOL
REMARK 922        TOTAL FREE ENERGY PREDICTED BY IDOCK:   -6.55 KCAL/MOL
REMARK 923 INTER-LIGAND FREE ENERGY PREDICTED BY IDOCK:   -6.04 KCAL/MOL
REMARK 924 INTRA-LIGAND FREE ENERGY PREDICTED BY IDOCK:   -0.51 KCAL/MOL
REMARK 927      BINDING AFFINITY PREDICTED BY RF-SCORE:    0.00 PKD
ROOT
HETATM    1  N   UNL     1     -12.410  13.917  63.328  1.00  0.00    -1.148 N  
HETATM    2  C   UNL     1     -11.961  14.961  64.097  1.00  0.00    -0.235 C  
HETATM    3  H2  UNL     1     -12.994  14.106  62.514  1.00  0.00     0.000 HD 
HETATM    4  H1  UNL     1     -12.167  12.954  63.561  1.00  0.00     0.000 HD 
HETATM    5  O   UNL     1     -12.254  16.121  63.817  1.00  0.00    -0.934 OA 
ENDROOT
BRANCH   2   6
HETATM    6  C   UNL     1     -11.119  14.548  65.235  1.00  0.00    -0.353 A  
HETATM    7  N   UNL     1     -11.530  13.729  66.215  1.00  0.00    -0.325 NA 
HETATM    8  N   UNL     1     -10.474  13.723  67.046  1.00  0.00    -0.272 NA 
HETATM    9  C   UNL     1      -9.442  14.441  66.531  1.00  0.00    -0.289 A  
HETATM   10  N   UNL     1      -9.813  14.990  65.401  1.00  0.00    -0.324 NA 
BRANCH   8  11
HETATM   11  C1* UNL     1     -10.477  12.997  68.301  1.00  0.00    -0.250 C  
HETATM   12  O4* UNL     1      -9.251  12.234  68.388  1.00  0.00    -0.192 OA 
HETATM   13  C4* UNL     1      -9.542  10.872  68.005  1.00  0.00    -0.162 C  
HETATM   14  C3* UNL     1     -11.019  10.631  68.324  1.00  0.00    -0.263 C  
HETATM   15  H2* UNL     1     -12.868  11.591  69.977  1.00  0.00     0.000 HD 
HETATM   16  C2* UNL     1     -11.635  12.020  68.511  1.00  0.00    -0.309 C  
HETATM   17  H3* UNL     1     -12.103   9.736  69.743  1.00  0.00     0.000 HD 
HETATM   18  O3* UNL     1     -11.187   9.885  69.545  1.00  0.00    -0.229 OA 
HETATM   19  O2* UNL     1     -12.149  12.197  69.847  1.00  0.00    -0.298 OA 
BRANCH  13  20
HETATM   20  C5* UNL     1      -9.187  10.671  66.527  1.00  0.00    -0.166 C  
HETATM   21  O5* UNL     1     -10.065   9.702  65.954  1.00  0.00    -0.288 OA 
HETATM   22  H5* UNL     1      -9.845   9.577  65.038  1.00  0.00     0.000 HD 
ENDBRANCH  13  20
ENDBRANCH   8  11
ENDBRANCH   2   6
TORSDOF 3
ENDMDL
MODEL       35
REMARK 921   NORMALIZED FREE ENERGY PREDICTED BY IDOCK:   -4.77 KCAL/MOL
REMARK 922        TOTAL FREE ENERGY PREDICTED BY IDOCK:   -6.54 KCAL/MOL
REMARK 923 INTER-LIGAND FREE ENERGY PREDICTED BY IDOCK:   -5.73 KCAL/MOL
REMARK 924 INTRA-LIGAND FREE ENERGY PREDICTED BY IDOCK:   -0.81 KCAL/MOL
REMARK 927      BINDING AFFINITY PREDICTED BY RF-SCORE:    0.00 PKD
ROOT
HETATM    1  N   UNL     1     -12.027  15.941  63.705  1.00  0.00    -0.822 N  
HETATM    2  C   UNL     1     -11.233  15.861  64.821  1.00  0.00    -0.355 C  
HETATM    3  H2  UNL     1     -11.953  16.752  63.091  1.00  0.00     0.000 HD 
HETATM    4  H1  UNL     1     -12.691  15.199  63.482  1.00  0.00     0.000 HD 
HETATM    5  O   UNL     1     -10.433  16.755  65.089  1.00  0.00    -0.658 OA 
ENDROOT
BRANCH   2   6
HETATM    6  C   UNL     1     -11.433  14.633  65.612  1.00  0.00    -0.340 A  
HETATM    7  N   UNL     1     -10.972  14.461  66.860  1.00  0.00    -0.302 NA 
HETATM    8  N   UNL     1     -11.315  13.188  67.120  1.00  0.00    -0.301 NA 
HETATM    9  C   UNL     1     -12.032  12.655  66.096  1.00  0.00    -0.395 A  
HETATM   10  N   UNL     1     -12.114  13.526  65.121  1.00  0.00    -0.381 NA 
BRANCH   8  11
HETATM   11  C1* UNL     1     -10.969  12.528  68.364  1.00  0.00    -0.248 C  
HETATM   12  O4* UNL     1      -9.529  12.413  68.433  1.00  0.00    -0.212 OA 
HETATM   13  C4* UNL     1      -9.166  11.074  68.032  1.00  0.00    -0.159 C  
HETATM   14  C3* UNL     1     -10.363  10.178  68.355  1.00  0.00    -0.183 C  
HETATM   15  H2* UNL     1     -12.427  10.162  70.031  1.00  0.00     0.000 HD 
HETATM   16  C2* UNL     1     -11.546  11.126  68.566  1.00  0.00    -0.314 C  
HETATM   17  H3* UNL     1     -10.898   8.869  69.766  1.00  0.00     0.000 HD 
HETATM   18  O3* UNL     1     -10.155   9.425  69.566  1.00  0.00    -0.186 OA 
HETATM   19  O2* UNL     1     -12.069  11.033  69.906  1.00  0.00    -0.315 OA 
BRANCH  13  20
HETATM   20  C5* UNL     1      -8.775  11.075  66.549  1.00  0.00    -0.168 C  
HETATM   21  O5* UNL     1      -8.441  12.403  66.145  1.00  0.00    -0.388 OA 
HETATM   22  H5* UNL     1      -8.199  12.404  65.227  1.00  0.00     0.000 HD 
ENDBRANCH  13  20
ENDBRANCH   8  11
ENDBRANCH   2   6
TORSDOF 3
ENDMDL
MODEL       36
REMARK 921   NORMALIZED FREE ENERGY PREDICTED BY IDOCK:   -4.77 KCAL/MOL
REMARK 922        TOTAL FREE ENERGY PREDICTED BY IDOCK:   -6.54 KCAL/MOL
REMARK 923 INTER-LIGAND FREE ENERGY PREDICTED BY IDOCK:   -5.60 KCAL/MOL
REMARK 924 INTRA-LIGAND FREE ENERGY PREDICTED BY IDOCK:   -0.93 KCAL/MOL
REMARK 927      BINDING AFFINITY PREDICTED BY RF-SCORE:    0.00 PKD
ROOT
HETATM    1  N   UNL     1     -10.220  19.153  68.933  1.00  0.00    -0.534 N  
HETATM    2  C   UNL     1     -10.137  19.124  67.564  1.00  0.00    -0.376 C  
HETATM    3  H2  UNL     1     -10.049  20.027  69.430  1.00  0.00     0.000 HD 
HETATM    4  H1  UNL     1     -10.452  18.311  69.460  1.00  0.00     0.000 HD 
HETATM    5  O   UNL     1      -9.858  20.138  66.928  1.00  0.00    -0.401 OA 
ENDROOT
BRANCH   2   6
HETATM    6  C   UNL     1     -10.419  17.802  66.974  1.00  0.00    -0.322 A  
HETATM    7  N   UNL     1     -11.113  16.836  67.594  1.00  0.00    -0.170 NA 
HETATM    8  N   UNL     1     -11.028  15.817  66.722  1.00  0.00    -0.251 NA 
HETATM    9  C   UNL     1     -10.386  16.196  65.587  1.00  0.00    -0.382 A  
HETATM   10  N   UNL     1      -9.971  17.432  65.712  1.00  0.00    -0.567 NA 
BRANCH   8  11
HETATM   11  C1* UNL     1     -11.601  14.513  66.993  1.00  0.00    -0.386 C  
HETATM   12  O4* UNL     1     -11.179  14.096  68.313  1.00  0.00    -0.251 OA 
HETATM   13  C4* UNL     1     -10.068  13.187  68.164  1.00  0.00    -0.237 C  
HETATM   14  C3* UNL     1     -10.221  12.525  66.793  1.00  0.00    -0.231 C  
HETATM   15  H2* UNL     1     -12.171  11.963  65.074  1.00  0.00     0.000 HD 
HETATM   16  C2* UNL     1     -11.218  13.394  66.022  1.00  0.00    -0.296 C  
HETATM   17  H3* UNL     1     -10.853  10.782  66.050  1.00  0.00     0.000 HD 
HETATM   18  O3* UNL     1     -10.758  11.193  66.900  1.00  0.00    -0.249 OA 
HETATM   19  O2* UNL     1     -12.409  12.657  65.678  1.00  0.00    -0.581 OA 
BRANCH  13  20
HETATM   20  C5* UNL     1      -8.753  13.957  68.336  1.00  0.00    -0.173 C  
HETATM   21  O5* UNL     1      -9.009  15.190  69.010  1.00  0.00    -0.197 OA 
HETATM   22  H5* UNL     1      -8.194  15.668  69.117  1.00  0.00     0.000 HD 
ENDBRANCH  13  20
ENDBRANCH   8  11
ENDBRANCH   2   6
TORSDOF 3
ENDMDL
MODEL       37
REMARK 921   NORMALIZED FREE ENERGY PREDICTED BY IDOCK:   -4.76 KCAL/MOL
REMARK 922        TOTAL FREE ENERGY PREDICTED BY IDOCK:   -6.52 KCAL/MOL
REMARK 923 INTER-LIGAND FREE ENERGY PREDICTED BY IDOCK:   -5.82 KCAL/MOL
REMARK 924 INTRA-LIGAND FREE ENERGY PREDICTED BY IDOCK:   -0.70 KCAL/MOL
REMARK 927      BINDING AFFINITY PREDICTED BY RF-SCORE:    0.00 PKD
ROOT
HETATM    1  N   UNL     1     -12.358  13.732  63.128  1.00  0.00    -1.106 N  
HETATM    2  C   UNL     1     -12.485  13.377  64.446  1.00  0.00    -0.277 C  
HETATM    3  H2  UNL     1     -12.743  13.127  62.403  1.00  0.00     0.000 HD 
HETATM    4  H1  UNL     1     -11.883  14.596  62.863  1.00  0.00     0.000 HD 
HETATM    5  O   UNL     1     -13.057  12.336  64.765  1.00  0.00    -0.724 OA 
ENDROOT
BRANCH   2   6
HETATM    6  C   UNL     1     -11.894  14.345  65.388  1.00  0.00    -0.366 A  
HETATM    7  N   UNL     1     -12.262  14.463  66.673  1.00  0.00    -0.389 NA 
HETATM    8  N   UNL     1     -11.528  15.510  67.087  1.00  0.00    -0.153 NA 
HETATM    9  C   UNL     1     -10.691  15.939  66.106  1.00  0.00    -0.271 A  
HETATM   10  N   UNL     1     -10.902  15.244  65.016  1.00  0.00    -0.419 NA 
BRANCH   8  11
HETATM   11  C1* UNL     1     -11.631  16.049  68.428  1.00  0.00    -0.279 C  
HETATM   12  O4* UNL     1     -10.310  16.449  68.861  1.00  0.00    -0.236 OA 
HETATM   13  C4* UNL     1      -9.776  15.403  69.701  1.00  0.00    -0.246 C  
HETATM   14  C3* UNL     1     -10.975  14.687  70.328  1.00  0.00    -0.031 C  
HETATM   15  H2* UNL     1     -13.503  15.234  70.946  1.00  0.00     0.000 HD 
HETATM   16  C2* UNL     1     -12.189  15.103  69.494  1.00  0.00    -0.233 C  
HETATM   17  H3* UNL     1     -11.934  14.657  72.080  1.00  0.00     0.000 HD 
HETATM   18  O3* UNL     1     -11.190  15.101  71.691  1.00  0.00    -0.373 OA 
HETATM   19  O2* UNL     1     -13.157  15.822  70.285  1.00  0.00    -0.311 OA 
BRANCH  13  20
HETATM   20  C5* UNL     1      -8.877  14.486  68.864  1.00  0.00    -0.103 C  
HETATM   21  O5* UNL     1      -9.616  13.332  68.462  1.00  0.00    -0.308 OA 
HETATM   22  H5* UNL     1      -9.059  12.763  67.943  1.00  0.00     0.000 HD 
ENDBRANCH  13  20
ENDBRANCH   8  11
ENDBRANCH   2   6
TORSDOF 3
ENDMDL
MODEL       38
REMARK 921   NORMALIZED FREE ENERGY PREDICTED BY IDOCK:   -4.74 KCAL/MOL
REMARK 922        TOTAL FREE ENERGY PREDICTED BY IDOCK:   -6.50 KCAL/MOL
REMARK 923 INTER-LIGAND FREE ENERGY PREDICTED BY IDOCK:   -5.58 KCAL/MOL
REMARK 924 INTRA-LIGAND FREE ENERGY PREDICTED BY IDOCK:   -0.92 KCAL/MOL
REMARK 927      BINDING AFFINITY PREDICTED BY RF-SCORE:    0.00 PKD
ROOT
HETATM    1  N   UNL     1     -11.176   9.406  68.172  1.00  0.00    -0.497 N  
HETATM    2  C   UNL     1     -10.998  10.480  69.007  1.00  0.00    -0.243 C  
HETATM    3  H2  UNL     1     -11.196   8.463  68.561  1.00  0.00     0.000 HD 
HETATM    4  H1  UNL     1     -11.289   9.539  67.167  1.00  0.00     0.000 HD 
HETATM    5  O   UNL     1     -10.861  10.320  70.218  1.00  0.00    -0.288 OA 
ENDROOT
BRANCH   2   6
HETATM    6  C   UNL     1     -11.000  11.783  68.317  1.00  0.00    -0.229 A  
HETATM    7  N   UNL     1     -10.033  12.703  68.446  1.00  0.00    -0.226 NA 
HETATM    8  N   UNL     1     -10.511  13.727  67.720  1.00  0.00    -0.237 NA 
HETATM    9  C   UNL     1     -11.678  13.391  67.109  1.00  0.00    -0.379 A  
HETATM   10  N   UNL     1     -12.029  12.183  67.473  1.00  0.00    -0.553 NA 
BRANCH   8  11
HETATM   11  C1* UNL     1      -9.813  14.992  67.606  1.00  0.00    -0.220 C  
HETATM   12  O4* UNL     1      -9.537  15.480  68.940  1.00  0.00    -0.195 OA 
HETATM   13  C4* UNL     1     -10.538  16.466  69.274  1.00  0.00    -0.311 C  
HETATM   14  C3* UNL     1     -11.019  17.070  67.954  1.00  0.00    -0.226 C  
HETATM   15  H2* UNL     1     -10.090  17.430  65.488  1.00  0.00     0.000 HD 
HETATM   16  C2* UNL     1     -10.552  16.106  66.861  1.00  0.00    -0.283 C  
HETATM   17  H3* UNL     1     -10.726  18.737  66.892  1.00  0.00     0.000 HD 
HETATM   18  O3* UNL     1     -10.427  18.361  67.711  1.00  0.00    -0.388 OA 
HETATM   19  O2* UNL     1      -9.631  16.739  65.951  1.00  0.00    -0.458 OA 
BRANCH  13  20
HETATM   20  C5* UNL     1     -11.652  15.802  70.093  1.00  0.00    -0.357 C  
HETATM   21  O5* UNL     1     -11.188  14.550  70.601  1.00  0.00    -0.488 OA 
HETATM   22  H5* UNL     1     -11.878  14.138  71.108  1.00  0.00     0.000 HD 
ENDBRANCH  13  20
ENDBRANCH   8  11
ENDBRANCH   2   6
TORSDOF 3
ENDMDL
MODEL       39
REMARK 921   NORMALIZED FREE ENERGY PREDICTED BY IDOCK:   -4.72 KCAL/MOL
REMARK 922        TOTAL FREE ENERGY PREDICTED BY IDOCK:   -6.48 KCAL/MOL
REMARK 923 INTER-LIGAND FREE ENERGY PREDICTED BY IDOCK:   -5.70 KCAL/MOL
REMARK 924 INTRA-LIGAND FREE ENERGY PREDICTED BY IDOCK:   -0.78 KCAL/MOL
REMARK 927      BINDING AFFINITY PREDICTED BY RF-SCORE:    0.00 PKD
ROOT
HETATM    1  N   UNL     1     -13.169  15.607  70.258  1.00  0.00    -0.713 N  
HETATM    2  C   UNL     1     -11.922  15.045  70.363  1.00  0.00    -0.323 C  
HETATM    3  H2  UNL     1     -13.796  15.596  71.063  1.00  0.00     0.000 HD 
HETATM    4  H1  UNL     1     -13.478  16.036  69.386  1.00  0.00     0.000 HD 
HETATM    5  O   UNL     1     -11.551  14.527  71.415  1.00  0.00    -0.257 OA 
ENDROOT
BRANCH   2   6
HETATM    6  C   UNL     1     -11.117  15.139  69.132  1.00  0.00    -0.258 A  
HETATM    7  N   UNL     1     -11.062  16.230  68.353  1.00  0.00    -0.355 NA 
HETATM    8  N   UNL     1     -10.294  15.814  67.331  1.00  0.00    -0.276 NA 
HETATM    9  C   UNL     1      -9.837  14.553  67.543  1.00  0.00    -0.222 A  
HETATM   10  N   UNL     1     -10.346  14.086  68.656  1.00  0.00    -0.239 NA 
BRANCH   8  11
HETATM   11  C1* UNL     1      -9.993  16.659  66.191  1.00  0.00    -0.337 C  
HETATM   12  O4* UNL     1      -8.600  16.477  65.845  1.00  0.00    -0.441 OA 
HETATM   13  C4* UNL     1      -7.850  17.575  66.409  1.00  0.00    -0.294 C  
HETATM   14  C3* UNL     1      -8.816  18.756  66.522  1.00  0.00    -0.312 C  
HETATM   15  H2* UNL     1     -11.047  19.606  65.350  1.00  0.00     0.000 HD 
HETATM   16  C2* UNL     1     -10.220  18.159  66.386  1.00  0.00    -0.399 C  
HETATM   17  H3* UNL     1      -9.217  20.443  65.530  1.00  0.00     0.000 HD 
HETATM   18  O3* UNL     1      -8.618  19.710  65.461  1.00  0.00    -0.260 OA 
HETATM   19  O2* UNL     1     -10.906  18.674  65.228  1.00  0.00    -0.591 OA 
BRANCH  13  20
HETATM   20  C5* UNL     1      -7.244  17.142  67.749  1.00  0.00    -0.157 C  
HETATM   21  O5* UNL     1      -8.165  17.425  68.803  1.00  0.00    -0.269 OA 
HETATM   22  H5* UNL     1      -7.790  17.157  69.633  1.00  0.00     0.000 HD 
ENDBRANCH  13  20
ENDBRANCH   8  11
ENDBRANCH   2   6
TORSDOF 3
ENDMDL
MODEL       40
REMARK 921   NORMALIZED FREE ENERGY PREDICTED BY IDOCK:   -4.70 KCAL/MOL
REMARK 922        TOTAL FREE ENERGY PREDICTED BY IDOCK:   -6.45 KCAL/MOL
REMARK 923 INTER-LIGAND FREE ENERGY PREDICTED BY IDOCK:   -5.54 KCAL/MOL
REMARK 924 INTRA-LIGAND FREE ENERGY PREDICTED BY IDOCK:   -0.92 KCAL/MOL
REMARK 927      BINDING AFFINITY PREDICTED BY RF-SCORE:    0.00 PKD
ROOT
HETATM    1  N   UNL     1      -9.916  10.683  69.365  1.00  0.00    -0.363 N  
HETATM    2  C   UNL     1     -10.453  10.449  68.124  1.00  0.00    -0.188 C  
HETATM    3  H2  UNL     1      -9.635   9.895  69.949  1.00  0.00     0.000 HD 
HETATM    4  H1  UNL     1      -9.793  11.635  69.711  1.00  0.00     0.000 HD 
HETATM    5  O   UNL     1     -10.600   9.302  67.708  1.00  0.00    -0.254 OA 
ENDROOT
BRANCH   2   6
HETATM    6  C   UNL     1     -10.803  11.674  67.382  1.00  0.00    -0.250 A  
HETATM    7  N   UNL     1      -9.904  12.490  66.812  1.00  0.00    -0.224 NA 
HETATM    8  N   UNL     1     -10.675  13.488  66.349  1.00  0.00    -0.286 NA 
HETATM    9  C   UNL     1     -11.992  13.227  66.558  1.00  0.00    -0.391 A  
HETATM   10  N   UNL     1     -12.114  12.104  67.221  1.00  0.00    -0.525 NA 
BRANCH   8  11
HETATM   11  C1* UNL     1     -10.123  14.653  65.685  1.00  0.00    -0.363 C  
HETATM   12  O4* UNL     1      -8.919  15.046  66.385  1.00  0.00    -0.280 OA 
HETATM   13  C4* UNL     1      -9.249  16.142  67.265  1.00  0.00    -0.208 C  
HETATM   14  C3* UNL     1     -10.451  16.858  66.647  1.00  0.00    -0.257 C  
HETATM   15  H2* UNL     1     -11.534  17.188  64.240  1.00  0.00     0.000 HD 
HETATM   16  C2* UNL     1     -11.030  15.883  65.617  1.00  0.00    -0.203 C  
HETATM   17  H3* UNL     1     -10.808  18.511  65.583  1.00  0.00     0.000 HD 
HETATM   18  O3* UNL     1     -10.062  18.067  65.967  1.00  0.00    -0.494 OA 
HETATM   19  O2* UNL     1     -10.970  16.424  64.282  1.00  0.00    -0.788 OA 
BRANCH  13  20
HETATM   20  C5* UNL     1      -9.509  15.601  68.676  1.00  0.00    -0.204 C  
HETATM   21  O5* UNL     1      -8.892  14.320  68.816  1.00  0.00    -0.259 OA 
HETATM   22  H5* UNL     1      -9.052  13.984  69.690  1.00  0.00     0.000 HD 
ENDBRANCH  13  20
ENDBRANCH   8  11
ENDBRANCH   2   6
TORSDOF 3
ENDMDL
MODEL       41
REMARK 921   NORMALIZED FREE ENERGY PREDICTED BY IDOCK:   -4.69 KCAL/MOL
REMARK 922        TOTAL FREE ENERGY PREDICTED BY IDOCK:   -6.44 KCAL/MOL
REMARK 923 INTER-LIGAND FREE ENERGY PREDICTED BY IDOCK:   -5.90 KCAL/MOL
REMARK 924 INTRA-LIGAND FREE ENERGY PREDICTED BY IDOCK:   -0.54 KCAL/MOL
REMARK 927      BINDING AFFINITY PREDICTED BY RF-SCORE:    0.00 PKD
ROOT
HETATM    1  N   UNL     1     -11.856  15.354  64.028  1.00  0.00    -0.927 N  
HETATM    2  C   UNL     1     -12.046  14.004  63.876  1.00  0.00    -0.311 C  
HETATM    3  H2  UNL     1     -12.321  16.003  63.394  1.00  0.00     0.000 HD 
HETATM    4  H1  UNL     1     -11.254  15.717  64.768  1.00  0.00     0.000 HD 
HETATM    5  O   UNL     1     -12.771  13.567  62.985  1.00  0.00    -0.668 OA 
ENDROOT
BRANCH   2   6
HETATM    6  C   UNL     1     -11.325  13.182  64.865  1.00  0.00    -0.309 A  
HETATM    7  N   UNL     1     -11.851  12.112  65.479  1.00  0.00    -0.440 NA 
HETATM    8  N   UNL     1     -10.874  11.761  66.333  1.00  0.00    -0.271 NA 
HETATM    9  C   UNL     1      -9.774  12.540  66.165  1.00  0.00    -0.254 A  
HETATM   10  N   UNL     1     -10.023  13.458  65.263  1.00  0.00    -0.223 NA 
BRANCH   8  11
HETATM   11  C1* UNL     1     -11.016  10.660  67.266  1.00  0.00    -0.284 C  
HETATM   12  O4* UNL     1     -12.162  10.922  68.108  1.00  0.00    -0.503 OA 
HETATM   13  C4* UNL     1     -11.686  11.460  69.361  1.00  0.00    -0.338 C  
HETATM   14  C3* UNL     1     -10.268  10.921  69.561  1.00  0.00    -0.062 C  
HETATM   15  H2* UNL     1      -8.821   8.826  68.791  1.00  0.00     0.000 HD 
HETATM   16  C2* UNL     1      -9.824  10.403  68.190  1.00  0.00    -0.151 C  
HETATM   17  H3* UNL     1      -9.361   9.491  70.621  1.00  0.00     0.000 HD 
HETATM   18  O3* UNL     1     -10.240   9.826  70.497  1.00  0.00    -0.274 OA 
HETATM   19  O2* UNL     1      -9.562   8.985  68.217  1.00  0.00    -0.142 OA 
BRANCH  13  20
HETATM   20  C5* UNL     1     -11.767  12.990  69.321  1.00  0.00    -0.320 C  
HETATM   21  O5* UNL     1     -10.455  13.540  69.459  1.00  0.00    -0.418 OA 
HETATM   22  H5* UNL     1     -10.505  14.488  69.435  1.00  0.00     0.000 HD 
ENDBRANCH  13  20
ENDBRANCH   8  11
ENDBRANCH   2   6
TORSDOF 3
ENDMDL
MODEL       42
REMARK 921   NORMALIZED FREE ENERGY PREDICTED BY IDOCK:   -4.67 KCAL/MOL
REMARK 922        TOTAL FREE ENERGY PREDICTED BY IDOCK:   -6.42 KCAL/MOL
REMARK 923 INTER-LIGAND FREE ENERGY PREDICTED BY IDOCK:   -5.90 KCAL/MOL
REMARK 924 INTRA-LIGAND FREE ENERGY PREDICTED BY IDOCK:   -0.52 KCAL/MOL
REMARK 927      BINDING AFFINITY PREDICTED BY RF-SCORE:    0.00 PKD
ROOT
HETATM    1  N   UNL     1     -10.732   7.602  66.907  1.00  0.00    -0.491 N  
HETATM    2  C   UNL     1     -10.477   8.483  67.927  1.00  0.00    -0.201 C  
HETATM    3  H2  UNL     1     -10.792   6.603  67.107  1.00  0.00     0.000 HD 
HETATM    4  H1  UNL     1     -10.861   7.932  65.950  1.00  0.00     0.000 HD 
HETATM    5  O   UNL     1     -10.320   8.084  69.079  1.00  0.00    -0.214 OA 
ENDROOT
BRANCH   2   6
HETATM    6  C   UNL     1     -10.427   9.894  67.501  1.00  0.00    -0.255 A  
HETATM    7  N   UNL     1     -11.510  10.666  67.335  1.00  0.00    -0.410 NA 
HETATM    8  N   UNL     1     -10.979  11.809  66.866  1.00  0.00    -0.270 NA 
HETATM    9  C   UNL     1      -9.622  11.744  66.842  1.00  0.00    -0.193 A  
HETATM   10  N   UNL     1      -9.236  10.550  67.217  1.00  0.00    -0.143 NA 
BRANCH   8  11
HETATM   11  C1* UNL     1     -11.794  12.945  66.485  1.00  0.00    -0.407 C  
HETATM   12  O4* UNL     1     -12.620  12.557  65.363  1.00  0.00    -0.656 OA 
HETATM   13  C4* UNL     1     -11.998  13.046  64.155  1.00  0.00    -0.427 C  
HETATM   14  C3* UNL     1     -11.178  14.276  64.550  1.00  0.00    -0.322 C  
HETATM   15  H2* UNL     1     -11.184  16.128  66.459  1.00  0.00     0.000 HD 
HETATM   16  C2* UNL     1     -11.037  14.210  66.073  1.00  0.00    -0.314 C  
HETATM   17  H3* UNL     1     -11.344  16.264  64.449  1.00  0.00     0.000 HD 
HETATM   18  O3* UNL     1     -11.853  15.501  64.204  1.00  0.00    -0.463 OA 
HETATM   19  O2* UNL     1     -11.655  15.344  66.714  1.00  0.00    -0.145 OA 
BRANCH  13  20
HETATM   20  C5* UNL     1     -11.166  11.925  63.521  1.00  0.00    -0.418 C  
HETATM   21  O5* UNL     1      -9.852  12.408  63.240  1.00  0.00    -0.573 OA 
HETATM   22  H5* UNL     1      -9.336  11.714  62.847  1.00  0.00     0.000 HD 
ENDBRANCH  13  20
ENDBRANCH   8  11
ENDBRANCH   2   6
TORSDOF 3
ENDMDL
MODEL       43
REMARK 921   NORMALIZED FREE ENERGY PREDICTED BY IDOCK:   -4.67 KCAL/MOL
REMARK 922        TOTAL FREE ENERGY PREDICTED BY IDOCK:   -6.42 KCAL/MOL
REMARK 923 INTER-LIGAND FREE ENERGY PREDICTED BY IDOCK:   -5.50 KCAL/MOL
REMARK 924 INTRA-LIGAND FREE ENERGY PREDICTED BY IDOCK:   -0.92 KCAL/MOL
REMARK 927      BINDING AFFINITY PREDICTED BY RF-SCORE:    0.00 PKD
ROOT
HETATM    1  N   UNL     1     -12.779  14.166  72.563  1.00  0.00    -0.295 N  
HETATM    2  C   UNL     1     -12.227  15.187  71.832  1.00  0.00    -0.361 C  
HETATM    3  H2  UNL     1     -13.110  14.346  73.511  1.00  0.00     0.000 HD 
HETATM    4  H1  UNL     1     -12.862  13.227  72.171  1.00  0.00     0.000 HD 
HETATM    5  O   UNL     1     -12.127  16.317  72.306  1.00  0.00    -0.504 OA 
ENDROOT
BRANCH   2   6
HETATM    6  C   UNL     1     -11.801  14.792  70.477  1.00  0.00    -0.302 A  
HETATM    7  N   UNL     1     -12.501  13.974  69.678  1.00  0.00    -0.252 NA 
HETATM    8  N   UNL     1     -11.688  13.843  68.616  1.00  0.00    -0.339 NA 
HETATM    9  C   UNL     1     -10.586  14.628  68.745  1.00  0.00    -0.248 A  
HETATM   10  N   UNL     1     -10.610  15.228  69.909  1.00  0.00    -0.277 NA 
BRANCH   8  11
HETATM   11  C1* UNL     1     -12.011  12.989  67.490  1.00  0.00    -0.306 C  
HETATM   12  O4* UNL     1     -12.252  11.652  67.988  1.00  0.00    -0.551 OA 
HETATM   13  C4* UNL     1     -11.054  10.873  67.782  1.00  0.00    -0.309 C  
HETATM   14  C3* UNL     1     -10.325  11.493  66.588  1.00  0.00    -0.226 C  
HETATM   15  H2* UNL     1     -10.924  12.938  64.437  1.00  0.00     0.000 HD 
HETATM   16  C2* UNL     1     -10.944  12.881  66.399  1.00  0.00    -0.285 C  
HETATM   17  H3* UNL     1     -10.077  11.115  64.643  1.00  0.00     0.000 HD 
HETATM   18  O3* UNL     1     -10.529  10.730  65.383  1.00  0.00    -0.260 OA 
HETATM   19  O2* UNL     1     -11.587  13.005  65.115  1.00  0.00    -0.305 OA 
BRANCH  13  20
HETATM   20  C5* UNL     1     -10.227  10.860  69.073  1.00  0.00    -0.203 C  
HETATM   21  O5* UNL     1     -11.056  11.240  70.173  1.00  0.00    -0.475 OA 
HETATM   22  H5* UNL     1     -10.544  11.232  70.973  1.00  0.00     0.000 HD 
ENDBRANCH  13  20
ENDBRANCH   8  11
ENDBRANCH   2   6
TORSDOF 3
ENDMDL
MODEL       44
REMARK 921   NORMALIZED FREE ENERGY PREDICTED BY IDOCK:   -4.66 KCAL/MOL
REMARK 922        TOTAL FREE ENERGY PREDICTED BY IDOCK:   -6.41 KCAL/MOL
REMARK 923 INTER-LIGAND FREE ENERGY PREDICTED BY IDOCK:   -5.87 KCAL/MOL
REMARK 924 INTRA-LIGAND FREE ENERGY PREDICTED BY IDOCK:   -0.54 KCAL/MOL
REMARK 927      BINDING AFFINITY PREDICTED BY RF-SCORE:    0.00 PKD
ROOT
HETATM    1  N   UNL     1     -11.365  14.728  70.934  1.00  0.00    -0.494 N  
HETATM    2  C   UNL     1     -12.170  13.671  70.596  1.00  0.00    -0.360 C  
HETATM    3  H2  UNL     1     -11.627  15.332  71.713  1.00  0.00     0.000 HD 
HETATM    4  H1  UNL     1     -10.508  14.919  70.415  1.00  0.00     0.000 HD 
HETATM    5  O   UNL     1     -13.204  13.441  71.221  1.00  0.00    -0.274 OA 
ENDROOT
BRANCH   2   6
HETATM    6  C   UNL     1     -11.669  12.875  69.460  1.00  0.00    -0.323 A  
HETATM    7  N   UNL     1     -10.739  13.305  68.595  1.00  0.00    -0.259 NA 
HETATM    8  N   UNL     1     -10.683  12.295  67.709  1.00  0.00    -0.211 NA 
HETATM    9  C   UNL     1     -11.485  11.266  68.088  1.00  0.00    -0.306 A  
HETATM   10  N   UNL     1     -12.136  11.598  69.175  1.00  0.00    -0.296 NA 
BRANCH   8  11
HETATM   11  C1* UNL     1      -9.830  12.336  66.538  1.00  0.00    -0.229 C  
HETATM   12  O4* UNL     1     -10.068  13.584  65.845  1.00  0.00    -0.293 OA 
HETATM   13  C4* UNL     1     -10.967  13.323  64.746  1.00  0.00    -0.350 C  
HETATM   14  C3* UNL     1     -10.764  11.860  64.348  1.00  0.00    -0.323 C  
HETATM   15  H2* UNL     1      -8.852  10.017  64.495  1.00  0.00     0.000 HD 
HETATM   16  C2* UNL     1     -10.026  11.210  65.521  1.00  0.00    -0.249 C  
HETATM   17  H3* UNL     1      -9.823  10.828  62.920  1.00  0.00     0.000 HD 
HETATM   18  O3* UNL     1      -9.949  11.736  63.167  1.00  0.00    -0.409 OA 
HETATM   19  O2* UNL     1      -8.730  10.717  65.126  1.00  0.00    -0.192 OA 
BRANCH  13  20
HETATM   20  C5* UNL     1     -12.402  13.655  65.173  1.00  0.00    -0.452 C  
HETATM   21  O5* UNL     1     -13.281  12.617  64.737  1.00  0.00    -0.846 OA 
HETATM   22  H5* UNL     1     -14.170  12.822  65.002  1.00  0.00     0.000 HD 
ENDBRANCH  13  20
ENDBRANCH   8  11
ENDBRANCH   2   6
TORSDOF 3
ENDMDL
MODEL       45
REMARK 921   NORMALIZED FREE ENERGY PREDICTED BY IDOCK:   -4.65 KCAL/MOL
REMARK 922        TOTAL FREE ENERGY PREDICTED BY IDOCK:   -6.40 KCAL/MOL
REMARK 923 INTER-LIGAND FREE ENERGY PREDICTED BY IDOCK:   -5.48 KCAL/MOL
REMARK 924 INTRA-LIGAND FREE ENERGY PREDICTED BY IDOCK:   -0.92 KCAL/MOL
REMARK 927      BINDING AFFINITY PREDICTED BY RF-SCORE:    0.00 PKD
ROOT
HETATM    1  N   UNL     1     -12.453  13.792  63.373  1.00  0.00    -1.072 N  
HETATM    2  C   UNL     1     -12.430  13.685  64.740  1.00  0.00    -0.350 C  
HETATM    3  H2  UNL     1     -13.221  14.287  62.920  1.00  0.00     0.000 HD 
HETATM    4  H1  UNL     1     -11.712  13.384  62.804  1.00  0.00     0.000 HD 
HETATM    5  O   UNL     1     -13.323  14.177  65.426  1.00  0.00    -0.705 OA 
ENDROOT
BRANCH   2   6
HETATM    6  C   UNL     1     -11.260  12.956  65.264  1.00  0.00    -0.288 A  
HETATM    7  N   UNL     1     -11.132  11.621  65.233  1.00  0.00    -0.271 NA 
HETATM    8  N   UNL     1      -9.975  11.428  65.891  1.00  0.00    -0.224 NA 
HETATM    9  C   UNL     1      -9.396  12.612  66.219  1.00  0.00    -0.160 A  
HETATM   10  N   UNL     1     -10.180  13.597  65.858  1.00  0.00    -0.304 NA 
BRANCH   8  11
HETATM   11  C1* UNL     1      -9.443  10.106  66.155  1.00  0.00    -0.188 C  
HETATM   12  O4* UNL     1     -10.466   9.328  66.820  1.00  0.00    -0.244 OA 
HETATM   13  C4* UNL     1     -10.188   9.338  68.237  1.00  0.00    -0.201 C  
HETATM   14  C3* UNL     1      -8.679   9.538  68.389  1.00  0.00    -0.124 C  
HETATM   15  H2* UNL     1      -6.473   9.096  66.971  1.00  0.00     0.000 HD 
HETATM   16  C2* UNL     1      -8.189  10.047  67.030  1.00  0.00    -0.117 C  
HETATM   17  H3* UNL     1      -7.068   8.425  68.781  1.00  0.00     0.000 HD 
HETATM   18  O3* UNL     1      -8.004   8.301  68.687  1.00  0.00    -0.117 OA 
HETATM   19  O2* UNL     1      -7.252   9.132  66.428  1.00  0.00    -0.089 OA 
BRANCH  13  20
HETATM   20  C5* UNL     1     -11.028  10.429  68.913  1.00  0.00    -0.245 C  
HETATM   21  O5* UNL     1     -12.105  10.803  68.052  1.00  0.00    -0.778 OA 
HETATM   22  H5* UNL     1     -12.625  11.479  68.470  1.00  0.00     0.000 HD 
ENDBRANCH  13  20
ENDBRANCH   8  11
ENDBRANCH   2   6
TORSDOF 3
ENDMDL
MODEL       46
REMARK 921   NORMALIZED FREE ENERGY PREDICTED BY IDOCK:   -4.61 KCAL/MOL
REMARK 922        TOTAL FREE ENERGY PREDICTED BY IDOCK:   -6.35 KCAL/MOL
REMARK 923 INTER-LIGAND FREE ENERGY PREDICTED BY IDOCK:   -5.43 KCAL/MOL
REMARK 924 INTRA-LIGAND FREE ENERGY PREDICTED BY IDOCK:   -0.91 KCAL/MOL
REMARK 927      BINDING AFFINITY PREDICTED BY RF-SCORE:    0.00 PKD
ROOT
HETATM    1  N   UNL     1      -9.596   9.481  63.233  1.00  0.00    -0.426 N  
HETATM    2  C   UNL     1      -9.416  10.827  63.428  1.00  0.00    -0.316 C  
HETATM    3  H2  UNL     1      -9.392   9.073  62.321  1.00  0.00     0.000 HD 
HETATM    4  H1  UNL     1      -9.931   8.883  63.988  1.00  0.00     0.000 HD 
HETATM    5  O   UNL     1      -9.012  11.547  62.517  1.00  0.00    -0.328 OA 
ENDROOT
BRANCH   2   6
HETATM    6  C   UNL     1      -9.737  11.283  64.793  1.00  0.00    -0.256 A  
HETATM    7  N   UNL     1     -10.885  11.887  65.132  1.00  0.00    -0.292 NA 
HETATM    8  N   UNL     1     -10.680  12.188  66.426  1.00  0.00    -0.248 NA 
HETATM    9  C   UNL     1      -9.490  11.697  66.860  1.00  0.00    -0.185 A  
HETATM   10  N   UNL     1      -8.858  11.137  65.859  1.00  0.00    -0.192 NA 
BRANCH   8  11
HETATM   11  C1* UNL     1     -11.654  12.911  67.220  1.00  0.00    -0.360 C  
HETATM   12  O4* UNL     1     -12.180  13.994  66.417  1.00  0.00    -0.442 OA 
HETATM   13  C4* UNL     1     -11.495  15.207  66.795  1.00  0.00    -0.195 C  
HETATM   14  C3* UNL     1     -11.043  15.025  68.246  1.00  0.00    -0.286 C  
HETATM   15  H2* UNL     1     -11.770  13.616  70.381  1.00  0.00     0.000 HD 
HETATM   16  C2* UNL     1     -11.140  13.523  68.525  1.00  0.00    -0.272 C  
HETATM   17  H3* UNL     1     -11.628  15.606  70.065  1.00  0.00     0.000 HD 
HETATM   18  O3* UNL     1     -11.908  15.720  69.165  1.00  0.00    -0.381 OA 
HETATM   19  O2* UNL     1     -12.090  13.237  69.571  1.00  0.00    -0.303 OA 
BRANCH  13  20
HETATM   20  C5* UNL     1     -10.343  15.467  65.817  1.00  0.00    -0.361 C  
HETATM   21  O5* UNL     1     -10.611  14.805  64.580  1.00  0.00    -0.590 OA 
HETATM   22  H5* UNL     1      -9.898  14.966  63.973  1.00  0.00     0.000 HD 
ENDBRANCH  13  20
ENDBRANCH   8  11
ENDBRANCH   2   6
TORSDOF 3
ENDMDL
MODEL       47
REMARK 921   NORMALIZED FREE ENERGY PREDICTED BY IDOCK:   -4.60 KCAL/MOL
REMARK 922        TOTAL FREE ENERGY PREDICTED BY IDOCK:   -6.34 KCAL/MOL
REMARK 923 INTER-LIGAND FREE ENERGY PREDICTED BY IDOCK:   -5.50 KCAL/MOL
REMARK 924 INTRA-LIGAND FREE ENERGY PREDICTED BY IDOCK:   -0.84 KCAL/MOL
REMARK 927      BINDING AFFINITY PREDICTED BY RF-SCORE:    0.00 PKD
ROOT
HETATM    1  N   UNL     1      -7.359  10.472  67.665  1.00  0.00    -0.086 N  
HETATM    2  C   UNL     1      -7.322  11.785  67.270  1.00  0.00    -0.141 C  
HETATM    3  H2  UNL     1      -6.516   9.902  67.600  1.00  0.00     0.000 HD 
HETATM    4  H1  UNL     1      -8.220  10.057  68.022  1.00  0.00     0.000 HD 
HETATM    5  O   UNL     1      -6.285  12.284  66.839  1.00  0.00    -0.184 OA 
ENDROOT
BRANCH   2   6
HETATM    6  C   UNL     1      -8.605  12.494  67.427  1.00  0.00    -0.187 A  
HETATM    7  N   UNL     1      -9.016  13.489  66.626  1.00  0.00    -0.173 NA 
HETATM    8  N   UNL     1     -10.168  13.867  67.206  1.00  0.00    -0.248 NA 
HETATM    9  C   UNL     1     -10.473  13.064  68.259  1.00  0.00    -0.250 A  
HETATM   10  N   UNL     1      -9.506  12.199  68.442  1.00  0.00    -0.203 NA 
BRANCH   8  11
HETATM   11  C1* UNL     1     -10.962  14.973  66.707  1.00  0.00    -0.323 C  
HETATM   12  O4* UNL     1     -12.337  14.535  66.604  1.00  0.00    -0.342 OA 
HETATM   13  C4* UNL     1     -12.597  14.188  65.226  1.00  0.00    -0.442 C  
HETATM   14  C3* UNL     1     -11.634  15.019  64.375  1.00  0.00    -0.276 C  
HETATM   15  H2* UNL     1     -10.302  17.313  64.565  1.00  0.00     0.000 HD 
HETATM   16  C2* UNL     1     -10.560  15.529  65.340  1.00  0.00    -0.408 C  
HETATM   17  H3* UNL     1     -11.696  16.670  63.251  1.00  0.00     0.000 HD 
HETATM   18  O3* UNL     1     -12.293  16.154  63.779  1.00  0.00    -0.864 OA 
HETATM   19  O2* UNL     1     -10.552  16.968  65.414  1.00  0.00    -0.601 OA 
BRANCH  13  20
HETATM   20  C5* UNL     1     -12.435  12.675  65.043  1.00  0.00    -0.487 C  
HETATM   21  O5* UNL     1     -11.107  12.387  64.606  1.00  0.00    -0.286 OA 
HETATM   22  H5* UNL     1     -11.006  11.449  64.492  1.00  0.00     0.000 HD 
ENDBRANCH  13  20
ENDBRANCH   8  11
ENDBRANCH   2   6
TORSDOF 3
ENDMDL
MODEL       48
REMARK 921   NORMALIZED FREE ENERGY PREDICTED BY IDOCK:   -4.57 KCAL/MOL
REMARK 922        TOTAL FREE ENERGY PREDICTED BY IDOCK:   -6.30 KCAL/MOL
REMARK 923 INTER-LIGAND FREE ENERGY PREDICTED BY IDOCK:   -6.06 KCAL/MOL
REMARK 924 INTRA-LIGAND FREE ENERGY PREDICTED BY IDOCK:   -0.24 KCAL/MOL
REMARK 927      BINDING AFFINITY PREDICTED BY RF-SCORE:    0.00 PKD
ROOT
HETATM    1  N   UNL     1     -10.750  19.385  67.678  1.00  0.00    -0.453 N  
HETATM    2  C   UNL     1     -10.439  19.191  66.356  1.00  0.00    -0.463 C  
HETATM    3  H2  UNL     1     -10.771  20.332  68.057  1.00  0.00     0.000 HD 
HETATM    4  H1  UNL     1     -10.961  18.594  68.287  1.00  0.00     0.000 HD 
HETATM    5  O   UNL     1     -10.185  20.144  65.622  1.00  0.00    -0.416 OA 
ENDROOT
BRANCH   2   6
HETATM    6  C   UNL     1     -10.456  17.777  65.938  1.00  0.00    -0.251 A  
HETATM    7  N   UNL     1      -9.858  16.787  66.615  1.00  0.00    -0.264 NA 
HETATM    8  N   UNL     1     -10.066  15.726  65.816  1.00  0.00    -0.344 NA 
HETATM    9  C   UNL     1     -10.838  16.060  64.750  1.00  0.00    -0.294 A  
HETATM   10  N   UNL     1     -11.091  17.345  64.780  1.00  0.00    -0.883 NA 
BRANCH   8  11
HETATM   11  C1* UNL     1      -9.542  14.409  66.121  1.00  0.00    -0.283 C  
HETATM   12  O4* UNL     1     -10.336  13.428  65.414  1.00  0.00    -0.296 OA 
HETATM   13  C4* UNL     1     -11.295  12.874  66.339  1.00  0.00    -0.319 C  
HETATM   14  C3* UNL     1     -10.684  13.001  67.736  1.00  0.00    -0.229 C  
HETATM   15  H2* UNL     1      -8.265  13.166  68.829  1.00  0.00     0.000 HD 
HETATM   16  C2* UNL     1      -9.541  14.010  67.599  1.00  0.00    -0.221 C  
HETATM   17  H3* UNL     1      -9.760  11.828  69.063  1.00  0.00     0.000 HD 
HETATM   18  O3* UNL     1     -10.140  11.749  68.196  1.00  0.00    -0.180 OA 
HETATM   19  O2* UNL     1      -8.266  13.414  67.912  1.00  0.00    -0.137 OA 
BRANCH  13  20
HETATM   20  C5* UNL     1     -12.635  13.603  66.181  1.00  0.00    -0.335 C  
HETATM   21  O5* UNL     1     -13.251  13.207  64.955  1.00  0.00    -0.694 OA 
HETATM   22  H5* UNL     1     -14.081  13.658  64.857  1.00  0.00     0.000 HD 
ENDBRANCH  13  20
ENDBRANCH   8  11
ENDBRANCH   2   6
TORSDOF 3
ENDMDL
MODEL       49
REMARK 921   NORMALIZED FREE ENERGY PREDICTED BY IDOCK:   -4.56 KCAL/MOL
REMARK 922        TOTAL FREE ENERGY PREDICTED BY IDOCK:   -6.29 KCAL/MOL
REMARK 923 INTER-LIGAND FREE ENERGY PREDICTED BY IDOCK:   -5.83 KCAL/MOL
REMARK 924 INTRA-LIGAND FREE ENERGY PREDICTED BY IDOCK:   -0.46 KCAL/MOL
REMARK 927      BINDING AFFINITY PREDICTED BY RF-SCORE:    0.00 PKD
ROOT
HETATM    1  N   UNL     1     -12.521  14.290  69.341  1.00  0.00    -0.520 N  
HETATM    2  C   UNL     1     -11.973  13.812  68.178  1.00  0.00    -0.358 C  
HETATM    3  H2  UNL     1     -12.961  13.642  69.994  1.00  0.00     0.000 HD 
HETATM    4  H1  UNL     1     -12.494  15.286  69.561  1.00  0.00     0.000 HD 
HETATM    5  O   UNL     1     -12.006  12.612  67.913  1.00  0.00    -0.349 OA 
ENDROOT
BRANCH   2   6
HETATM    6  C   UNL     1     -11.361  14.852  67.332  1.00  0.00    -0.347 A  
HETATM    7  N   UNL     1     -10.859  16.004  67.803  1.00  0.00    -0.326 NA 
HETATM    8  N   UNL     1     -10.508  16.646  66.675  1.00  0.00    -0.287 NA 
HETATM    9  C   UNL     1     -10.713  15.865  65.583  1.00  0.00    -0.339 A  
HETATM   10  N   UNL     1     -11.265  14.736  65.951  1.00  0.00    -0.339 NA 
BRANCH   8  11
HETATM   11  C1* UNL     1      -9.953  17.985  66.685  1.00  0.00    -0.362 C  
HETATM   12  O4* UNL     1      -8.756  17.988  65.873  1.00  0.00    -0.506 OA 
HETATM   13  C4* UNL     1      -7.615  17.889  66.753  1.00  0.00    -0.217 C  
HETATM   14  C3* UNL     1      -8.041  18.488  68.095  1.00  0.00    -0.290 C  
HETATM   15  H2* UNL     1      -9.816  20.250  69.001  1.00  0.00     0.000 HD 
HETATM   16  C2* UNL     1      -9.571  18.546  68.056  1.00  0.00    -0.312 C  
HETATM   17  H3* UNL     1      -7.799  20.197  69.099  1.00  0.00     0.000 HD 
HETATM   18  O3* UNL     1      -7.534  19.825  68.267  1.00  0.00    -0.303 OA 
HETATM   19  O2* UNL     1     -10.053  19.902  68.149  1.00  0.00    -0.409 OA 
BRANCH  13  20
HETATM   20  C5* UNL     1      -7.167  16.425  66.843  1.00  0.00    -0.231 C  
HETATM   21  O5* UNL     1      -5.742  16.359  66.785  1.00  0.00    -0.340 OA 
HETATM   22  H5* UNL     1      -5.463  15.453  66.840  1.00  0.00     0.000 HD 
ENDBRANCH  13  20
ENDBRANCH   8  11
ENDBRANCH   2   6
TORSDOF 3
ENDMDL
MODEL       50
REMARK 921   NORMALIZED FREE ENERGY PREDICTED BY IDOCK:   -4.55 KCAL/MOL
REMARK 922        TOTAL FREE ENERGY PREDICTED BY IDOCK:   -6.28 KCAL/MOL
REMARK 923 INTER-LIGAND FREE ENERGY PREDICTED BY IDOCK:   -5.87 KCAL/MOL
REMARK 924 INTRA-LIGAND FREE ENERGY PREDICTED BY IDOCK:   -0.41 KCAL/MOL
REMARK 927      BINDING AFFINITY PREDICTED BY RF-SCORE:    0.00 PKD
ROOT
HETATM    1  N   UNL     1      -9.103   9.931  70.216  1.00  0.00    -0.369 N  
HETATM    2  C   UNL     1      -9.481   9.411  69.004  1.00  0.00    -0.160 C  
HETATM    3  H2  UNL     1      -8.514   9.379  70.839  1.00  0.00     0.000 HD 
HETATM    4  H1  UNL     1      -9.404  10.863  70.502  1.00  0.00     0.000 HD 
HETATM    5  O   UNL     1      -9.119   8.288  68.660  1.00  0.00    -0.140 OA 
ENDROOT
BRANCH   2   6
HETATM    6  C   UNL     1     -10.321  10.318  68.199  1.00  0.00    -0.177 A  
HETATM    7  N   UNL     1     -10.257  10.411  66.863  1.00  0.00    -0.218 NA 
HETATM    8  N   UNL     1     -11.122  11.406  66.603  1.00  0.00    -0.293 NA 
HETATM    9  C   UNL     1     -11.742  11.824  67.737  1.00  0.00    -0.267 A  
HETATM   10  N   UNL     1     -11.254  11.177  68.766  1.00  0.00    -0.228 NA 
BRANCH   8  11
HETATM   11  C1* UNL     1     -11.353  11.905  65.261  1.00  0.00    -0.275 C  
HETATM   12  O4* UNL     1     -10.221  12.720  64.878  1.00  0.00    -0.295 OA 
HETATM   13  C4* UNL     1     -10.577  14.105  65.074  1.00  0.00    -0.419 C  
HETATM   14  C3* UNL     1     -12.098  14.192  64.937  1.00  0.00    -0.428 C  
HETATM   15  H2* UNL     1     -14.057  12.846  63.742  1.00  0.00     0.000 HD 
HETATM   16  C2* UNL     1     -12.610  12.755  65.065  1.00  0.00    -0.468 C  
HETATM   17  H3* UNL     1     -13.433  14.760  63.563  1.00  0.00     0.000 HD 
HETATM   18  O3* UNL     1     -12.489  14.706  63.648  1.00  0.00    -0.754 OA 
HETATM   19  O2* UNL     1     -13.276  12.319  63.863  1.00  0.00    -0.766 OA 
BRANCH  13  20
HETATM   20  C5* UNL     1     -10.051  14.579  66.435  1.00  0.00    -0.284 C  
HETATM   21  O5* UNL     1     -11.089  15.268  67.133  1.00  0.00    -0.333 OA 
HETATM   22  H5* UNL     1     -10.763  15.561  67.976  1.00  0.00     0.000 HD 
ENDBRANCH  13  20
ENDBRANCH   8  11
ENDBRANCH   2   6
TORSDOF 3
ENDMDL
MODEL       51
REMARK 921   NORMALIZED FREE ENERGY PREDICTED BY IDOCK:   -4.55 KCAL/MOL
REMARK 922        TOTAL FREE ENERGY PREDICTED BY IDOCK:   -6.28 KCAL/MOL
REMARK 923 INTER-LIGAND FREE ENERGY PREDICTED BY IDOCK:   -5.49 KCAL/MOL
REMARK 924 INTRA-LIGAND FREE ENERGY PREDICTED BY IDOCK:   -0.80 KCAL/MOL
REMARK 927      BINDING AFFINITY PREDICTED BY RF-SCORE:    0.00 PKD
ROOT
HETATM    1  N   UNL     1     -10.563  18.476  65.729  1.00  0.00    -0.378 N  
HETATM    2  C   UNL     1     -10.778  17.212  65.243  1.00  0.00    -0.056 C  
HETATM    3  H2  UNL     1     -10.957  19.279  65.239  1.00  0.00     0.000 HD 
HETATM    4  H1  UNL     1     -10.013  18.624  66.576  1.00  0.00     0.000 HD 
HETATM    5  O   UNL     1     -11.440  17.034  64.222  1.00  0.00    -1.124 OA 
ENDROOT
BRANCH   2   6
HETATM    6  C   UNL     1     -10.162  16.145  66.053  1.00  0.00    -0.356 A  
HETATM    7  N   UNL     1     -10.845  15.343  66.883  1.00  0.00    -0.316 NA 
HETATM    8  N   UNL     1      -9.867  14.616  67.450  1.00  0.00    -0.221 NA 
HETATM    9  C   UNL     1      -8.658  14.915  66.907  1.00  0.00    -0.239 A  
HETATM   10  N   UNL     1      -8.797  15.884  66.037  1.00  0.00    -0.319 NA 
BRANCH   8  11
HETATM   11  C1* UNL     1     -10.130  13.628  68.477  1.00  0.00    -0.219 C  
HETATM   12  O4* UNL     1      -9.397  12.424  68.149  1.00  0.00    -0.200 OA 
HETATM   13  C4* UNL     1     -10.310  11.499  67.521  1.00  0.00    -0.194 C  
HETATM   14  C3* UNL     1     -11.707  11.833  68.048  1.00  0.00    -0.293 C  
HETATM   15  H2* UNL     1     -12.792  12.958  70.200  1.00  0.00     0.000 HD 
HETATM   16  C2* UNL     1     -11.594  13.228  68.669  1.00  0.00    -0.327 C  
HETATM   17  H3* UNL     1     -12.993  11.115  69.397  1.00  0.00     0.000 HD 
HETATM   18  O3* UNL     1     -12.127  10.907  69.070  1.00  0.00    -0.417 OA 
HETATM   19  O2* UNL     1     -11.883  13.206  70.081  1.00  0.00    -0.313 OA 
BRANCH  13  20
HETATM   20  C5* UNL     1     -10.181  11.611  65.997  1.00  0.00    -0.232 C  
HETATM   21  O5* UNL     1     -11.058  12.631  65.519  1.00  0.00    -0.281 OA 
HETATM   22  H5* UNL     1     -10.979  12.702  64.574  1.00  0.00     0.000 HD 
ENDBRANCH  13  20
ENDBRANCH   8  11
ENDBRANCH   2   6
TORSDOF 3
ENDMDL
MODEL       52
REMARK 921   NORMALIZED FREE ENERGY PREDICTED BY IDOCK:   -4.53 KCAL/MOL
REMARK 922        TOTAL FREE ENERGY PREDICTED BY IDOCK:   -6.25 KCAL/MOL
REMARK 923 INTER-LIGAND FREE ENERGY PREDICTED BY IDOCK:   -5.45 KCAL/MOL
REMARK 924 INTRA-LIGAND FREE ENERGY PREDICTED BY IDOCK:   -0.81 KCAL/MOL
REMARK 927      BINDING AFFINITY PREDICTED BY RF-SCORE:    0.00 PKD
ROOT
HETATM    1  N   UNL     1      -9.381  19.549  67.893  1.00  0.00    -0.323 N  
HETATM    2  C   UNL     1      -9.391  19.267  66.550  1.00  0.00    -0.353 C  
HETATM    3  H2  UNL     1      -9.315  20.518  68.204  1.00  0.00     0.000 HD 
HETATM    4  H1  UNL     1      -9.439  18.802  68.585  1.00  0.00     0.000 HD 
HETATM    5  O   UNL     1      -9.321  20.168  65.717  1.00  0.00    -0.251 OA 
ENDROOT
BRANCH   2   6
HETATM    6  C   UNL     1      -9.502  17.830  66.241  1.00  0.00    -0.217 A  
HETATM    7  N   UNL     1     -10.626  17.239  65.811  1.00  0.00    -0.464 NA 
HETATM    8  N   UNL     1     -10.268  15.944  65.757  1.00  0.00    -0.342 NA 
HETATM    9  C   UNL     1      -8.952  15.788  66.058  1.00  0.00    -0.287 A  
HETATM   10  N   UNL     1      -8.438  16.948  66.385  1.00  0.00    -0.270 NA 
BRANCH   8  11
HETATM   11  C1* UNL     1     -11.197  14.896  65.385  1.00  0.00    -0.359 C  
HETATM   12  O4* UNL     1     -12.235  14.829  66.390  1.00  0.00    -0.216 OA 
HETATM   13  C4* UNL     1     -11.921  13.745  67.290  1.00  0.00    -0.401 C  
HETATM   14  C3* UNL     1     -11.088  12.738  66.492  1.00  0.00    -0.286 C  
HETATM   15  H2* UNL     1     -10.750  12.022  63.953  1.00  0.00     0.000 HD 
HETATM   16  C2* UNL     1     -10.608  13.490  65.248  1.00  0.00    -0.328 C  
HETATM   17  H3* UNL     1     -11.361  10.985  65.576  1.00  0.00     0.000 HD 
HETATM   18  O3* UNL     1     -11.877  11.609  66.071  1.00  0.00    -0.374 OA 
HETATM   19  O2* UNL     1     -11.117  12.895  64.038  1.00  0.00    -0.372 OA 
BRANCH  13  20
HETATM   20  C5* UNL     1     -11.203  14.300  68.525  1.00  0.00    -0.266 C  
HETATM   21  O5* UNL     1     -11.307  15.725  68.537  1.00  0.00    -0.337 OA 
HETATM   22  H5* UNL     1     -10.863  16.069  69.302  1.00  0.00     0.000 HD 
ENDBRANCH  13  20
ENDBRANCH   8  11
ENDBRANCH   2   6
TORSDOF 3
ENDMDL
MODEL       53
REMARK 921   NORMALIZED FREE ENERGY PREDICTED BY IDOCK:   -4.51 KCAL/MOL
REMARK 922        TOTAL FREE ENERGY PREDICTED BY IDOCK:   -6.23 KCAL/MOL
REMARK 923 INTER-LIGAND FREE ENERGY PREDICTED BY IDOCK:   -5.40 KCAL/MOL
REMARK 924 INTRA-LIGAND FREE ENERGY PREDICTED BY IDOCK:   -0.82 KCAL/MOL
REMARK 927      BINDING AFFINITY PREDICTED BY RF-SCORE:    0.00 PKD
ROOT
HETATM    1  N   UNL     1      -7.058  13.391  69.509  1.00  0.00    -0.322 N  
HETATM    2  C   UNL     1      -6.893  13.641  68.171  1.00  0.00    -0.121 C  
HETATM    3  H2  UNL     1      -6.245  13.175  70.086  1.00  0.00     0.000 HD 
HETATM    4  H1  UNL     1      -7.984  13.418  69.936  1.00  0.00     0.000 HD 
HETATM    5  O   UNL     1      -5.777  13.607  67.657  1.00  0.00    -0.266 OA 
ENDROOT
BRANCH   2   6
HETATM    6  C   UNL     1      -8.147  13.949  67.460  1.00  0.00    -0.182 A  
HETATM    7  N   UNL     1      -9.202  13.123  67.405  1.00  0.00    -0.203 NA 
HETATM    8  N   UNL     1     -10.043  13.784  66.591  1.00  0.00    -0.271 NA 
HETATM    9  C   UNL     1      -9.540  14.999  66.250  1.00  0.00    -0.307 A  
HETATM   10  N   UNL     1      -8.342  15.134  66.761  1.00  0.00    -0.228 NA 
BRANCH   8  11
HETATM   11  C1* UNL     1     -11.326  13.239  66.191  1.00  0.00    -0.309 C  
HETATM   12  O4* UNL     1     -11.134  11.857  65.810  1.00  0.00    -0.306 OA 
HETATM   13  C4* UNL     1     -11.056  11.795  64.369  1.00  0.00    -0.334 C  
HETATM   14  C3* UNL     1     -11.847  12.990  63.833  1.00  0.00    -0.477 C  
HETATM   15  H2* UNL     1     -13.840  14.560  64.630  1.00  0.00     0.000 HD 
HETATM   16  C2* UNL     1     -12.020  13.940  65.021  1.00  0.00    -0.390 C  
HETATM   17  H3* UNL     1     -13.643  13.340  63.032  1.00  0.00     0.000 HD 
HETATM   18  O3* UNL     1     -13.152  12.598  63.364  1.00  0.00    -0.512 OA 
HETATM   19  O2* UNL     1     -13.410  14.124  65.356  1.00  0.00    -0.705 OA 
BRANCH  13  20
HETATM   20  C5* UNL     1      -9.584  11.785  63.939  1.00  0.00    -0.122 C  
HETATM   21  O5* UNL     1      -8.802  11.121  64.934  1.00  0.00    -0.350 OA 
HETATM   22  H5* UNL     1      -7.890  11.114  64.668  1.00  0.00     0.000 HD 
ENDBRANCH  13  20
ENDBRANCH   8  11
ENDBRANCH   2   6
TORSDOF 3
ENDMDL
MODEL       54
REMARK 921   NORMALIZED FREE ENERGY PREDICTED BY IDOCK:   -4.50 KCAL/MOL
REMARK 922        TOTAL FREE ENERGY PREDICTED BY IDOCK:   -6.22 KCAL/MOL
REMARK 923 INTER-LIGAND FREE ENERGY PREDICTED BY IDOCK:   -5.60 KCAL/MOL
REMARK 924 INTRA-LIGAND FREE ENERGY PREDICTED BY IDOCK:   -0.62 KCAL/MOL
REMARK 927      BINDING AFFINITY PREDICTED BY RF-SCORE:    0.00 PKD
ROOT
HETATM    1  N   UNL     1     -12.901  15.644  74.360  1.00  0.00    -0.771 N  
HETATM    2  C   UNL     1     -12.255  15.987  73.199  1.00  0.00    -0.531 C  
HETATM    3  H2  UNL     1     -12.896  16.290  75.149  1.00  0.00     0.000 HD 
HETATM    4  H1  UNL     1     -13.387  14.750  74.444  1.00  0.00     0.000 HD 
HETATM    5  O   UNL     1     -11.670  17.063  73.098  1.00  0.00    -0.221 OA 
ENDROOT
BRANCH   2   6
HETATM    6  C   UNL     1     -12.351  14.968  72.137  1.00  0.00    -0.355 A  
HETATM    7  N   UNL     1     -11.382  14.722  71.243  1.00  0.00    -0.202 NA 
HETATM    8  N   UNL     1     -11.953  13.803  70.446  1.00  0.00    -0.327 NA 
HETATM    9  C   UNL     1     -13.182  13.452  70.906  1.00  0.00     0.051 A  
HETATM   10  N   UNL     1     -13.478  14.175  71.958  1.00  0.00    -0.391 NA 
BRANCH   8  11
HETATM   11  C1* UNL     1     -11.283  13.262  69.280  1.00  0.00    -0.208 C  
HETATM   12  O4* UNL     1     -10.238  14.182  68.888  1.00  0.00    -0.230 OA 
HETATM   13  C4* UNL     1     -10.732  14.985  67.794  1.00  0.00    -0.278 C  
HETATM   14  C3* UNL     1     -11.793  14.147  67.078  1.00  0.00    -0.429 C  
HETATM   15  H2* UNL     1     -12.388  11.576  66.742  1.00  0.00     0.000 HD 
HETATM   16  C2* UNL     1     -12.160  13.022  68.049  1.00  0.00    -0.174 C  
HETATM   17  H3* UNL     1     -11.937  13.038  65.422  1.00  0.00     0.000 HD 
HETATM   18  O3* UNL     1     -11.279  13.559  65.867  1.00  0.00    -0.298 OA 
HETATM   19  O2* UNL     1     -11.843  11.725  67.506  1.00  0.00    -0.577 OA 
BRANCH  13  20
HETATM   20  C5* UNL     1     -11.261  16.317  68.339  1.00  0.00    -0.349 C  
HETATM   21  O5* UNL     1     -10.479  16.715  69.466  1.00  0.00    -0.305 OA 
HETATM   22  H5* UNL     1     -10.806  17.540  69.804  1.00  0.00     0.000 HD 
ENDBRANCH  13  20
ENDBRANCH   8  11
ENDBRANCH   2   6
TORSDOF 3
ENDMDL
MODEL       55
REMARK 921   NORMALIZED FREE ENERGY PREDICTED BY IDOCK:   -4.43 KCAL/MOL
REMARK 922        TOTAL FREE ENERGY PREDICTED BY IDOCK:   -6.13 KCAL/MOL
REMARK 923 INTER-LIGAND FREE ENERGY PREDICTED BY IDOCK:   -5.31 KCAL/MOL
REMARK 924 INTRA-LIGAND FREE ENERGY PREDICTED BY IDOCK:   -0.83 KCAL/MOL
REMARK 927      BINDING AFFINITY PREDICTED BY RF-SCORE:    0.00 PKD
ROOT
HETATM    1  N   UNL     1     -11.397  11.963  70.048  1.00  0.00    -0.510 N  
HETATM    2  C   UNL     1     -12.392  11.750  70.968  1.00  0.00    -0.282 C  
HETATM    3  H2  UNL     1     -11.170  12.915  69.762  1.00  0.00     0.000 HD 
HETATM    4  H1  UNL     1     -10.881  11.180  69.646  1.00  0.00     0.000 HD 
HETATM    5  O   UNL     1     -13.014  12.694  71.452  1.00  0.00    -0.361 OA 
ENDROOT
BRANCH   2   6
HETATM    6  C   UNL     1     -12.609  10.330  71.299  1.00  0.00    -0.418 A  
HETATM    7  N   UNL     1     -11.905   9.320  70.769  1.00  0.00    -0.270 NA 
HETATM    8  N   UNL     1     -12.512   8.240  71.292  1.00  0.00    -0.282 NA 
HETATM    9  C   UNL     1     -13.482   8.603  72.171  1.00  0.00    -0.398 A  
HETATM   10  N   UNL     1     -13.587   9.909  72.191  1.00  0.00    -0.371 NA 
BRANCH   8  11
HETATM   11  C1* UNL     1     -12.117   6.887  70.955  1.00  0.00    -0.380 C  
HETATM   12  O4* UNL     1     -11.923   6.150  72.185  1.00  0.00    -0.331 OA 
HETATM   13  C4* UNL     1     -10.508   6.116  72.470  1.00  0.00    -0.201 C  
HETATM   14  C3* UNL     1      -9.785   6.233  71.127  1.00  0.00    -0.175 C  
HETATM   15  H2* UNL     1     -10.272   5.707  68.566  1.00  0.00     0.000 HD 
HETATM   16  C2* UNL     1     -10.833   6.744  70.135  1.00  0.00    -0.266 C  
HETATM   17  H3* UNL     1      -8.853   5.029  69.834  1.00  0.00     0.000 HD 
HETATM   18  O3* UNL     1      -9.301   4.956  70.668  1.00  0.00    -0.145 OA 
HETATM   19  O2* UNL     1     -11.069   5.795  69.075  1.00  0.00    -0.285 OA 
BRANCH  13  20
HETATM   20  C5* UNL     1     -10.161   7.234  73.460  1.00  0.00    -0.358 C  
HETATM   21  O5* UNL     1      -9.806   8.415  72.739  1.00  0.00    -0.274 OA 
HETATM   22  H5* UNL     1      -9.591   9.108  73.352  1.00  0.00     0.000 HD 
ENDBRANCH  13  20
ENDBRANCH   8  11
ENDBRANCH   2   6
TORSDOF 3
ENDMDL
MODEL       56
REMARK 921   NORMALIZED FREE ENERGY PREDICTED BY IDOCK:   -4.39 KCAL/MOL
REMARK 922        TOTAL FREE ENERGY PREDICTED BY IDOCK:   -6.09 KCAL/MOL
REMARK 923 INTER-LIGAND FREE ENERGY PREDICTED BY IDOCK:   -5.81 KCAL/MOL
REMARK 924 INTRA-LIGAND FREE ENERGY PREDICTED BY IDOCK:   -0.28 KCAL/MOL
REMARK 927      BINDING AFFINITY PREDICTED BY RF-SCORE:    0.00 PKD
ROOT
HETATM    1  N   UNL     1     -10.052  18.328  66.598  1.00  0.00    -0.354 N  
HETATM    2  C   UNL     1      -9.458  17.344  65.849  1.00  0.00     0.007 C  
HETATM    3  H2  UNL     1      -9.479  19.067  67.005  1.00  0.00     0.000 HD 
HETATM    4  H1  UNL     1     -11.060  18.330  66.753  1.00  0.00     0.000 HD 
HETATM    5  O   UNL     1      -8.243  17.342  65.662  1.00  0.00    -0.491 OA 
ENDROOT
BRANCH   2   6
HETATM    6  C   UNL     1     -10.402  16.347  65.311  1.00  0.00    -0.181 A  
HETATM    7  N   UNL     1     -10.352  15.037  65.596  1.00  0.00    -0.325 NA 
HETATM    8  N   UNL     1     -11.331  14.539  64.821  1.00  0.00    -0.390 NA 
HETATM    9  C   UNL     1     -11.994  15.530  64.171  1.00  0.00    -0.072 A  
HETATM   10  N   UNL     1     -11.429  16.681  64.439  1.00  0.00    -0.973 NA 
BRANCH   8  11
HETATM   11  C1* UNL     1     -11.622  13.120  64.755  1.00  0.00    -0.333 C  
HETATM   12  O4* UNL     1     -12.390  12.758  65.926  1.00  0.00    -0.551 OA 
HETATM   13  C4* UNL     1     -11.490  12.169  66.889  1.00  0.00    -0.351 C  
HETATM   14  C3* UNL     1     -10.332  11.560  66.095  1.00  0.00    -0.245 C  
HETATM   15  H2* UNL     1      -9.895  10.610  63.650  1.00  0.00     0.000 HD 
HETATM   16  C2* UNL     1     -10.412  12.185  64.700  1.00  0.00    -0.299 C  
HETATM   17  H3* UNL     1      -9.748   9.754  65.474  1.00  0.00     0.000 HD 
HETATM   18  O3* UNL     1     -10.466  10.131  65.967  1.00  0.00    -0.194 OA 
HETATM   19  O2* UNL     1     -10.647  11.190  63.684  1.00  0.00    -0.371 OA 
BRANCH  13  20
HETATM   20  C5* UNL     1     -11.054  13.237  67.898  1.00  0.00    -0.262 C  
HETATM   21  O5* UNL     1     -12.003  14.305  67.902  1.00  0.00    -0.421 OA 
HETATM   22  H5* UNL     1     -11.733  14.967  68.527  1.00  0.00     0.000 HD 
ENDBRANCH  13  20
ENDBRANCH   8  11
ENDBRANCH   2   6
TORSDOF 3
ENDMDL
MODEL       57
REMARK 921   NORMALIZED FREE ENERGY PREDICTED BY IDOCK:   -4.37 KCAL/MOL
REMARK 922        TOTAL FREE ENERGY PREDICTED BY IDOCK:   -6.07 KCAL/MOL
REMARK 923 INTER-LIGAND FREE ENERGY PREDICTED BY IDOCK:   -5.22 KCAL/MOL
REMARK 924 INTRA-LIGAND FREE ENERGY PREDICTED BY IDOCK:   -0.84 KCAL/MOL
REMARK 927      BINDING AFFINITY PREDICTED BY RF-SCORE:    0.00 PKD
ROOT
HETATM    1  N   UNL     1     -12.120  11.652  62.974  1.00  0.00    -0.927 N  
HETATM    2  C   UNL     1     -10.905  11.948  63.540  1.00  0.00    -0.434 C  
HETATM    3  H2  UNL     1     -12.170  11.418  61.983  1.00  0.00     0.000 HD 
HETATM    4  H1  UNL     1     -12.973  11.662  63.533  1.00  0.00     0.000 HD 
HETATM    5  O   UNL     1      -9.877  11.935  62.866  1.00  0.00    -0.306 OA 
ENDROOT
BRANCH   2   6
HETATM    6  C   UNL     1     -10.974  12.256  64.980  1.00  0.00    -0.302 A  
HETATM    7  N   UNL     1      -9.899  12.438  65.761  1.00  0.00    -0.255 NA 
HETATM    8  N   UNL     1     -10.450  12.598  66.976  1.00  0.00    -0.232 NA 
HETATM    9  C   UNL     1     -11.806  12.599  66.902  1.00  0.00    -0.355 A  
HETATM   10  N   UNL     1     -12.176  12.370  65.666  1.00  0.00    -0.626 NA 
BRANCH   8  11
HETATM   11  C1* UNL     1      -9.653  12.778  68.173  1.00  0.00    -0.223 C  
HETATM   12  O4* UNL     1      -9.995  14.055  68.760  1.00  0.00    -0.224 OA 
HETATM   13  C4* UNL     1      -8.988  15.014  68.371  1.00  0.00    -0.179 C  
HETATM   14  C3* UNL     1      -7.703  14.223  68.117  1.00  0.00    -0.141 C  
HETATM   15  H2* UNL     1      -6.608  11.926  68.889  1.00  0.00     0.000 HD 
HETATM   16  C2* UNL     1      -8.135  12.761  67.981  1.00  0.00    -0.162 C  
HETATM   17  H3* UNL     1      -5.986  13.840  69.064  1.00  0.00     0.000 HD 
HETATM   18  O3* UNL     1      -6.784  14.331  69.222  1.00  0.00    -0.111 OA 
HETATM   19  O2* UNL     1      -7.551  11.937  69.009  1.00  0.00    -0.077 OA 
BRANCH  13  20
HETATM   20  C5* UNL     1      -9.480  15.802  67.151  1.00  0.00    -0.213 C  
HETATM   21  O5* UNL     1      -8.893  15.263  65.966  1.00  0.00    -0.454 OA 
HETATM   22  H5* UNL     1      -9.198  15.751  65.211  1.00  0.00     0.000 HD 
ENDBRANCH  13  20
ENDBRANCH   8  11
ENDBRANCH   2   6
TORSDOF 3
ENDMDL
MODEL       58
REMARK 921   NORMALIZED FREE ENERGY PREDICTED BY IDOCK:   -4.33 KCAL/MOL
REMARK 922        TOTAL FREE ENERGY PREDICTED BY IDOCK:   -6.02 KCAL/MOL
REMARK 923 INTER-LIGAND FREE ENERGY PREDICTED BY IDOCK:   -5.09 KCAL/MOL
REMARK 924 INTRA-LIGAND FREE ENERGY PREDICTED BY IDOCK:   -0.93 KCAL/MOL
REMARK 927      BINDING AFFINITY PREDICTED BY RF-SCORE:    0.00 PKD
ROOT
HETATM    1  N   UNL     1     -10.257  19.701  69.088  1.00  0.00    -0.627 N  
HETATM    2  C   UNL     1     -10.444  19.029  67.907  1.00  0.00    -0.393 C  
HETATM    3  H2  UNL     1     -10.413  20.709  69.125  1.00  0.00     0.000 HD 
HETATM    4  H1  UNL     1      -9.965  19.206  69.931  1.00  0.00     0.000 HD 
HETATM    5  O   UNL     1     -10.796  19.626  66.892  1.00  0.00    -0.483 OA 
ENDROOT
BRANCH   2   6
HETATM    6  C   UNL     1     -10.195  17.579  67.997  1.00  0.00    -0.354 A  
HETATM    7  N   UNL     1     -11.029  16.643  67.518  1.00  0.00    -0.214 NA 
HETATM    8  N   UNL     1     -10.435  15.502  67.909  1.00  0.00    -0.260 NA 
HETATM    9  C   UNL     1      -9.247  15.753  68.518  1.00  0.00    -0.198 A  
HETATM   10  N   UNL     1      -9.067  17.047  68.609  1.00  0.00    -0.268 NA 
BRANCH   8  11
HETATM   11  C1* UNL     1     -11.014  14.198  67.654  1.00  0.00    -0.267 C  
HETATM   12  O4* UNL     1     -12.402  14.230  68.061  1.00  0.00    -0.215 OA 
HETATM   13  C4* UNL     1     -12.501  13.627  69.369  1.00  0.00     0.008 C  
HETATM   14  C3* UNL     1     -11.336  12.642  69.489  1.00  0.00    -0.158 C  
HETATM   15  H2* UNL     1      -9.784  11.208  67.875  1.00  0.00     0.000 HD 
HETATM   16  C2* UNL     1     -10.358  13.017  68.372  1.00  0.00    -0.252 C  
HETATM   17  H3* UNL     1     -11.042  10.670  69.361  1.00  0.00     0.000 HD 
HETATM   18  O3* UNL     1     -11.765  11.281  69.287  1.00  0.00    -0.275 OA 
HETATM   19  O2* UNL     1     -10.192  11.941  67.428  1.00  0.00    -0.194 OA 
BRANCH  13  20
HETATM   20  C5* UNL     1     -12.494  14.726  70.438  1.00  0.00    -0.349 C  
HETATM   21  O5* UNL     1     -12.866  15.970  69.843  1.00  0.00    -0.587 OA 
HETATM   22  H5* UNL     1     -12.862  16.652  70.505  1.00  0.00     0.000 HD 
ENDBRANCH  13  20
ENDBRANCH   8  11
ENDBRANCH   2   6
TORSDOF 3
ENDMDL
MODEL       59
REMARK 921   NORMALIZED FREE ENERGY PREDICTED BY IDOCK:   -4.32 KCAL/MOL
REMARK 922        TOTAL FREE ENERGY PREDICTED BY IDOCK:   -6.01 KCAL/MOL
REMARK 923 INTER-LIGAND FREE ENERGY PREDICTED BY IDOCK:   -5.51 KCAL/MOL
REMARK 924 INTRA-LIGAND FREE ENERGY PREDICTED BY IDOCK:   -0.50 KCAL/MOL
REMARK 927      BINDING AFFINITY PREDICTED BY RF-SCORE:    0.00 PKD
ROOT
HETATM    1  N   UNL     1      -8.329  16.909  68.315  1.00  0.00    -0.216 N  
HETATM    2  C   UNL     1      -9.651  17.244  68.463  1.00  0.00    -0.291 C  
HETATM    3  H2  UNL     1      -7.617  17.638  68.354  1.00  0.00     0.000 HD 
HETATM    4  H1  UNL     1      -8.049  15.939  68.166  1.00  0.00     0.000 HD 
HETATM    5  O   UNL     1      -9.989  18.412  68.642  1.00  0.00    -0.361 OA 
ENDROOT
BRANCH   2   6
HETATM    6  C   UNL     1     -10.571  16.094  68.398  1.00  0.00    -0.286 A  
HETATM    7  N   UNL     1     -10.700  15.295  67.327  1.00  0.00    -0.305 NA 
HETATM    8  N   UNL     1     -11.695  14.472  67.701  1.00  0.00    -0.373 NA 
HETATM    9  C   UNL     1     -12.079  14.718  68.981  1.00  0.00    -0.221 A  
HETATM   10  N   UNL     1     -11.409  15.742  69.449  1.00  0.00    -0.321 NA 
BRANCH   8  11
HETATM   11  C1* UNL     1     -12.227  13.448  66.824  1.00  0.00    -0.312 C  
HETATM   12  O4* UNL     1     -12.111  12.171  67.493  1.00  0.00    -0.534 OA 
HETATM   13  C4* UNL     1     -10.938  11.501  66.983  1.00  0.00    -0.294 C  
HETATM   14  C3* UNL     1     -10.709  12.031  65.566  1.00  0.00    -0.276 C  
HETATM   15  H2* UNL     1     -12.143  13.107  63.601  1.00  0.00     0.000 HD 
HETATM   16  C2* UNL     1     -11.546  13.308  65.460  1.00  0.00    -0.326 C  
HETATM   17  H3* UNL     1     -11.024  11.427  63.688  1.00  0.00     0.000 HD 
HETATM   18  O3* UNL     1     -11.166  11.098  64.568  1.00  0.00    -0.197 OA 
HETATM   19  O2* UNL     1     -12.566  13.193  64.448  1.00  0.00    -0.606 OA 
BRANCH  13  20
HETATM   20  C5* UNL     1      -9.759  11.746  67.933  1.00  0.00    -0.185 C  
HETATM   21  O5* UNL     1     -10.085  11.252  69.233  1.00  0.00    -0.403 OA 
HETATM   22  H5* UNL     1      -9.355  11.404  69.822  1.00  0.00     0.000 HD 
ENDBRANCH  13  20
ENDBRANCH   8  11
ENDBRANCH   2   6
TORSDOF 3
ENDMDL
MODEL       60
REMARK 921   NORMALIZED FREE ENERGY PREDICTED BY IDOCK:   -4.27 KCAL/MOL
REMARK 922        TOTAL FREE ENERGY PREDICTED BY IDOCK:   -5.95 KCAL/MOL
REMARK 923 INTER-LIGAND FREE ENERGY PREDICTED BY IDOCK:   -5.40 KCAL/MOL
REMARK 924 INTRA-LIGAND FREE ENERGY PREDICTED BY IDOCK:   -0.55 KCAL/MOL
REMARK 927      BINDING AFFINITY PREDICTED BY RF-SCORE:    0.00 PKD
ROOT
HETATM    1  N   UNL     1      -9.930  16.697  65.519  1.00  0.00    -0.152 N  
HETATM    2  C   UNL     1     -10.881  15.934  64.892  1.00  0.00    -0.400 C  
HETATM    3  H2  UNL     1      -9.777  17.659  65.217  1.00  0.00     0.000 HD 
HETATM    4  H1  UNL     1      -9.372  16.315  66.283  1.00  0.00     0.000 HD 
HETATM    5  O   UNL     1     -11.552  16.394  63.971  1.00  0.00    -1.071 OA 
ENDROOT
BRANCH   2   6
HETATM    6  C   UNL     1     -11.006  14.568  65.435  1.00  0.00    -0.342 A  
HETATM    7  N   UNL     1     -10.032  13.935  66.105  1.00  0.00    -0.302 NA 
HETATM    8  N   UNL     1     -10.568  12.719  66.309  1.00  0.00    -0.254 NA 
HETATM    9  C   UNL     1     -11.847  12.665  65.855  1.00  0.00    -0.444 A  
HETATM   10  N   UNL     1     -12.155  13.802  65.282  1.00  0.00    -0.384 NA 
BRANCH   8  11
HETATM   11  C1* UNL     1      -9.843  11.651  66.967  1.00  0.00    -0.193 C  
HETATM   12  O4* UNL     1      -8.628  11.400  66.223  1.00  0.00    -0.177 OA 
HETATM   13  C4* UNL     1      -8.848  10.251  65.377  1.00  0.00    -0.172 C  
HETATM   14  C3* UNL     1      -9.922   9.401  66.059  1.00  0.00    -0.281 C  
HETATM   15  H2* UNL     1     -10.852   8.988  68.516  1.00  0.00     0.000 HD 
HETATM   16  C2* UNL     1     -10.579  10.315  67.096  1.00  0.00    -0.260 C  
HETATM   17  H3* UNL     1     -10.016   7.740  67.165  1.00  0.00     0.000 HD 
HETATM   18  O3* UNL     1      -9.350   8.267  66.741  1.00  0.00    -0.158 OA 
HETATM   19  O2* UNL     1     -10.395   9.817  68.436  1.00  0.00    -0.184 OA 
BRANCH  13  20
HETATM   20  C5* UNL     1      -9.234  10.722  63.970  1.00  0.00    -0.227 C  
HETATM   21  O5* UNL     1     -10.528  10.218  63.637  1.00  0.00    -0.401 OA 
HETATM   22  H5* UNL     1     -10.768  10.510  62.765  1.00  0.00     0.000 HD 
ENDBRANCH  13  20
ENDBRANCH   8  11
ENDBRANCH   2   6
TORSDOF 3
ENDMDL
MODEL       61
REMARK 921   NORMALIZED FREE ENERGY PREDICTED BY IDOCK:   -4.27 KCAL/MOL
REMARK 922        TOTAL FREE ENERGY PREDICTED BY IDOCK:   -5.95 KCAL/MOL
REMARK 923 INTER-LIGAND FREE ENERGY PREDICTED BY IDOCK:   -5.15 KCAL/MOL
REMARK 924 INTRA-LIGAND FREE ENERGY PREDICTED BY IDOCK:   -0.80 KCAL/MOL
REMARK 927      BINDING AFFINITY PREDICTED BY RF-SCORE:    0.00 PKD
ROOT
HETATM    1  N   UNL     1     -10.905   8.922  67.479  1.00  0.00    -0.470 N  
HETATM    2  C   UNL     1     -10.341   9.890  68.270  1.00  0.00    -0.201 C  
HETATM    3  H2  UNL     1     -10.536   7.971  67.505  1.00  0.00     0.000 HD 
HETATM    4  H1  UNL     1     -11.690   9.140  66.865  1.00  0.00     0.000 HD 
HETATM    5  O   UNL     1      -9.395   9.627  69.010  1.00  0.00    -0.148 OA 
ENDROOT
BRANCH   2   6
HETATM    6  C   UNL     1     -10.977  11.214  68.143  1.00  0.00    -0.238 A  
HETATM    7  N   UNL     1     -11.319  11.986  69.185  1.00  0.00    -0.264 NA 
HETATM    8  N   UNL     1     -11.932  13.022  68.587  1.00  0.00    -0.308 NA 
HETATM    9  C   UNL     1     -11.874  12.910  67.234  1.00  0.00    -0.356 A  
HETATM   10  N   UNL     1     -11.297  11.778  66.914  1.00  0.00    -0.382 NA 
BRANCH   8  11
HETATM   11  C1* UNL     1     -12.528  14.110  69.336  1.00  0.00    -0.075 C  
HETATM   12  O4* UNL     1     -12.130  15.357  68.722  1.00  0.00    -0.281 OA 
HETATM   13  C4* UNL     1     -11.031  15.903  69.483  1.00  0.00    -0.311 C  
HETATM   14  C3* UNL     1     -11.178  15.372  70.910  1.00  0.00    -0.358 C  
HETATM   15  H2* UNL     1     -13.116  14.485  72.502  1.00  0.00     0.000 HD 
HETATM   16  C2* UNL     1     -12.152  14.194  70.817  1.00  0.00    -0.349 C  
HETATM   17  H3* UNL     1     -11.829  16.033  72.679  1.00  0.00     0.000 HD 
HETATM   18  O3* UNL     1     -11.738  16.363  71.794  1.00  0.00    -0.478 OA 
HETATM   19  O2* UNL     1     -13.350  14.434  71.582  1.00  0.00    -0.327 OA 
BRANCH  13  20
HETATM   20  C5* UNL     1      -9.707  15.519  68.813  1.00  0.00    -0.213 C  
HETATM   21  O5* UNL     1      -9.272  14.252  69.309  1.00  0.00    -0.394 OA 
HETATM   22  H5* UNL     1      -8.452  14.014  68.893  1.00  0.00     0.000 HD 
ENDBRANCH  13  20
ENDBRANCH   8  11
ENDBRANCH   2   6
TORSDOF 3
ENDMDL
MODEL       62
REMARK 921   NORMALIZED FREE ENERGY PREDICTED BY IDOCK:   -4.26 KCAL/MOL
REMARK 922        TOTAL FREE ENERGY PREDICTED BY IDOCK:   -5.94 KCAL/MOL
REMARK 923 INTER-LIGAND FREE ENERGY PREDICTED BY IDOCK:   -5.50 KCAL/MOL
REMARK 924 INTRA-LIGAND FREE ENERGY PREDICTED BY IDOCK:   -0.44 KCAL/MOL
REMARK 927      BINDING AFFINITY PREDICTED BY RF-SCORE:    0.00 PKD
ROOT
HETATM    1  N   UNL     1     -10.852   8.009  67.340  1.00  0.00    -0.516 N  
HETATM    2  C   UNL     1     -10.373   9.184  66.818  1.00  0.00    -0.238 C  
HETATM    3  H2  UNL     1     -10.675   7.132  66.851  1.00  0.00     0.000 HD 
HETATM    4  H1  UNL     1     -11.384   8.002  68.210  1.00  0.00     0.000 HD 
HETATM    5  O   UNL     1      -9.733   9.192  65.769  1.00  0.00    -0.274 OA 
ENDROOT
BRANCH   2   6
HETATM    6  C   UNL     1     -10.690  10.373  67.630  1.00  0.00    -0.286 A  
HETATM    7  N   UNL     1     -11.448  11.394  67.202  1.00  0.00    -0.499 NA 
HETATM    8  N   UNL     1     -11.376  12.256  68.231  1.00  0.00    -0.264 NA 
HETATM    9  C   UNL     1     -10.675  11.725  69.266  1.00  0.00    -0.069 A  
HETATM   10  N   UNL     1     -10.212  10.549  68.922  1.00  0.00    -0.197 NA 
BRANCH   8  11
HETATM   11  C1* UNL     1     -12.014  13.557  68.200  1.00  0.00    -0.341 C  
HETATM   12  O4* UNL     1     -12.015  14.031  66.833  1.00  0.00    -0.407 OA 
HETATM   13  C4* UNL     1     -10.918  14.958  66.678  1.00  0.00    -0.325 C  
HETATM   14  C3* UNL     1     -10.655  15.564  68.058  1.00  0.00    -0.270 C  
HETATM   15  H2* UNL     1     -12.000  16.020  70.307  1.00  0.00     0.000 HD 
HETATM   16  C2* UNL     1     -11.366  14.646  69.057  1.00  0.00    -0.277 C  
HETATM   17  H3* UNL     1     -11.049  17.264  69.030  1.00  0.00     0.000 HD 
HETATM   18  O3* UNL     1     -11.212  16.888  68.174  1.00  0.00    -0.297 OA 
HETATM   19  O2* UNL     1     -12.403  15.344  69.774  1.00  0.00    -0.324 OA 
BRANCH  13  20
HETATM   20  C5* UNL     1      -9.710  14.222  66.086  1.00  0.00    -0.303 C  
HETATM   21  O5* UNL     1     -10.022  13.783  64.763  1.00  0.00    -0.617 OA 
HETATM   22  H5* UNL     1      -9.274  13.327  64.395  1.00  0.00     0.000 HD 
ENDBRANCH  13  20
ENDBRANCH   8  11
ENDBRANCH   2   6
TORSDOF 3
ENDMDL
MODEL       63
REMARK 921   NORMALIZED FREE ENERGY PREDICTED BY IDOCK:   -4.24 KCAL/MOL
REMARK 922        TOTAL FREE ENERGY PREDICTED BY IDOCK:   -5.92 KCAL/MOL
REMARK 923 INTER-LIGAND FREE ENERGY PREDICTED BY IDOCK:   -5.38 KCAL/MOL
REMARK 924 INTRA-LIGAND FREE ENERGY PREDICTED BY IDOCK:   -0.53 KCAL/MOL
REMARK 927      BINDING AFFINITY PREDICTED BY RF-SCORE:    0.00 PKD
ROOT
HETATM    1  N   UNL     1     -12.413  14.302  63.522  1.00  0.00    -1.102 N  
HETATM    2  C   UNL     1     -12.654  13.737  64.749  1.00  0.00    -0.290 C  
HETATM    3  H2  UNL     1     -12.945  15.122  63.232  1.00  0.00     0.000 HD 
HETATM    4  H1  UNL     1     -11.708  13.912  62.896  1.00  0.00     0.000 HD 
HETATM    5  O   UNL     1     -13.504  14.207  65.502  1.00  0.00    -0.643 OA 
ENDROOT
BRANCH   2   6
HETATM    6  C   UNL     1     -11.809  12.566  65.046  1.00  0.00    -0.396 A  
HETATM    7  N   UNL     1     -11.711  11.999  66.257  1.00  0.00    -0.547 NA 
HETATM    8  N   UNL     1     -10.778  11.052  66.057  1.00  0.00    -0.218 NA 
HETATM    9  C   UNL     1     -10.404  11.002  64.751  1.00  0.00    -0.324 A  
HETATM   10  N   UNL     1     -11.016  11.950  64.085  1.00  0.00    -0.340 NA 
BRANCH   8  11
HETATM   11  C1* UNL     1     -10.296  10.198  67.124  1.00  0.00    -0.238 C  
HETATM   12  O4* UNL     1     -10.089  11.013  68.301  1.00  0.00    -0.166 OA 
HETATM   13  C4* UNL     1      -8.681  11.322  68.391  1.00  0.00    -0.159 C  
HETATM   14  C3* UNL     1      -7.935  10.187  67.687  1.00  0.00    -0.102 C  
HETATM   15  H2* UNL     1      -8.329   7.622  67.107  1.00  0.00     0.000 HD 
HETATM   16  C2* UNL     1      -8.987   9.453  66.852  1.00  0.00    -0.131 C  
HETATM   17  H3* UNL     1      -6.903   8.553  68.193  1.00  0.00     0.000 HD 
HETATM   18  O3* UNL     1      -7.366   9.258  68.630  1.00  0.00    -0.074 OA 
HETATM   19  O2* UNL     1      -9.142   8.084  67.276  1.00  0.00    -0.131 OA 
BRANCH  13  20
HETATM   20  C5* UNL     1      -8.424  12.705  67.779  1.00  0.00    -0.172 C  
HETATM   21  O5* UNL     1      -7.218  12.670  67.014  1.00  0.00    -0.348 OA 
HETATM   22  H5* UNL     1      -7.058  13.526  66.635  1.00  0.00     0.000 HD 
ENDBRANCH  13  20
ENDBRANCH   8  11
ENDBRANCH   2   6
TORSDOF 3
ENDMDL
MODEL       64
REMARK 921   NORMALIZED FREE ENERGY PREDICTED BY IDOCK:   -4.20 KCAL/MOL
REMARK 922        TOTAL FREE ENERGY PREDICTED BY IDOCK:   -5.87 KCAL/MOL
REMARK 923 INTER-LIGAND FREE ENERGY PREDICTED BY IDOCK:   -5.37 KCAL/MOL
REMARK 924 INTRA-LIGAND FREE ENERGY PREDICTED BY IDOCK:   -0.50 KCAL/MOL
REMARK 927      BINDING AFFINITY PREDICTED BY RF-SCORE:    0.00 PKD
ROOT
HETATM    1  N   UNL     1     -13.229  13.560  71.313  1.00  0.00    -0.264 N  
HETATM    2  C   UNL     1     -12.760  14.692  70.696  1.00  0.00    -0.357 C  
HETATM    3  H2  UNL     1     -13.719  13.638  72.203  1.00  0.00     0.000 HD 
HETATM    4  H1  UNL     1     -13.092  12.641  70.892  1.00  0.00     0.000 HD 
HETATM    5  O   UNL     1     -12.924  15.800  71.204  1.00  0.00    -0.491 OA 
ENDROOT
BRANCH   2   6
HETATM    6  C   UNL     1     -12.081  14.438  69.412  1.00  0.00    -0.297 A  
HETATM    7  N   UNL     1     -11.569  15.400  68.631  1.00  0.00    -0.347 NA 
HETATM    8  N   UNL     1     -11.149  14.706  67.559  1.00  0.00    -0.302 NA 
HETATM    9  C   UNL     1     -11.326  13.372  67.740  1.00  0.00    -0.294 A  
HETATM   10  N   UNL     1     -11.925  13.162  68.886  1.00  0.00    -0.306 NA 
BRANCH   8  11
HETATM   11  C1* UNL     1     -10.558  15.348  66.401  1.00  0.00    -0.307 C  
HETATM   12  O4* UNL     1      -9.337  14.647  66.066  1.00  0.00    -0.266 OA 
HETATM   13  C4* UNL     1      -8.227  15.395  66.607  1.00  0.00    -0.164 C  
HETATM   14  C3* UNL     1      -8.677  16.855  66.687  1.00  0.00    -0.247 C  
HETATM   15  H2* UNL     1     -10.429  18.454  65.483  1.00  0.00     0.000 HD 
HETATM   16  C2* UNL     1     -10.202  16.827  66.558  1.00  0.00    -0.316 C  
HETATM   17  H3* UNL     1      -8.418  18.545  65.653  1.00  0.00     0.000 HD 
HETATM   18  O3* UNL     1      -8.138  17.639  65.604  1.00  0.00    -0.518 OA 
HETATM   19  O2* UNL     1     -10.650  17.535  65.385  1.00  0.00    -0.648 OA 
BRANCH  13  20
HETATM   20  C5* UNL     1      -7.822  14.798  67.960  1.00  0.00    -0.130 C  
HETATM   21  O5* UNL     1      -6.978  15.718  68.654  1.00  0.00    -0.116 OA 
HETATM   22  H5* UNL     1      -6.727  15.348  69.492  1.00  0.00     0.000 HD 
ENDBRANCH  13  20
ENDBRANCH   8  11
ENDBRANCH   2   6
TORSDOF 3
ENDMDL
MODEL       65
REMARK 921   NORMALIZED FREE ENERGY PREDICTED BY IDOCK:   -4.18 KCAL/MOL
REMARK 922        TOTAL FREE ENERGY PREDICTED BY IDOCK:   -5.84 KCAL/MOL
REMARK 923 INTER-LIGAND FREE ENERGY PREDICTED BY IDOCK:   -5.27 KCAL/MOL
REMARK 924 INTRA-LIGAND FREE ENERGY PREDICTED BY IDOCK:   -0.57 KCAL/MOL
REMARK 927      BINDING AFFINITY PREDICTED BY RF-SCORE:    0.00 PKD
ROOT
HETATM    1  N   UNL     1     -11.929  11.432  69.143  1.00  0.00    -0.336 N  
HETATM    2  C   UNL     1     -12.234  11.549  70.475  1.00  0.00    -0.377 C  
HETATM    3  H2  UNL     1     -11.931  12.262  68.551  1.00  0.00     0.000 HD 
HETATM    4  H1  UNL     1     -11.699  10.524  68.737  1.00  0.00     0.000 HD 
HETATM    5  O   UNL     1     -12.511  12.642  70.964  1.00  0.00    -0.368 OA 
ENDROOT
BRANCH   2   6
HETATM    6  C   UNL     1     -12.183  10.275  71.216  1.00  0.00    -0.395 A  
HETATM    7  N   UNL     1     -11.055   9.588  71.450  1.00  0.00    -0.371 NA 
HETATM    8  N   UNL     1     -11.514   8.483  72.062  1.00  0.00    -0.336 NA 
HETATM    9  C   UNL     1     -12.855   8.556  72.264  1.00  0.00    -0.355 A  
HETATM   10  N   UNL     1     -13.317   9.660  71.731  1.00  0.00    -0.405 NA 
BRANCH   8  11
HETATM   11  C1* UNL     1     -10.640   7.399  72.466  1.00  0.00    -0.261 C  
HETATM   12  O4* UNL     1      -9.540   7.327  71.529  1.00  0.00    -0.157 OA 
HETATM   13  C4* UNL     1      -9.824   6.275  70.582  1.00  0.00    -0.184 C  
HETATM   14  C3* UNL     1     -10.734   5.274  71.296  1.00  0.00    -0.128 C  
HETATM   15  H2* UNL     1     -11.258   4.505  73.788  1.00  0.00     0.000 HD 
HETATM   16  C2* UNL     1     -11.275   6.008  72.526  1.00  0.00    -0.290 C  
HETATM   17  H3* UNL     1     -10.570   3.490  72.182  1.00  0.00     0.000 HD 
HETATM   18  O3* UNL     1     -10.006   4.111  71.738  1.00  0.00    -0.177 OA 
HETATM   19  O2* UNL     1     -10.863   5.368  73.751  1.00  0.00    -0.284 OA 
BRANCH  13  20
HETATM   20  C5* UNL     1     -10.444   6.881  69.318  1.00  0.00    -0.214 C  
HETATM   21  O5* UNL     1     -11.845   6.603  69.293  1.00  0.00    -0.629 OA 
HETATM   22  H5* UNL     1     -12.229   6.979  68.510  1.00  0.00     0.000 HD 
ENDBRANCH  13  20
ENDBRANCH   8  11
ENDBRANCH   2   6
TORSDOF 3
ENDMDL
MODEL       66
REMARK 921   NORMALIZED FREE ENERGY PREDICTED BY IDOCK:   -4.16 KCAL/MOL
REMARK 922        TOTAL FREE ENERGY PREDICTED BY IDOCK:   -5.83 KCAL/MOL
REMARK 923 INTER-LIGAND FREE ENERGY PREDICTED BY IDOCK:   -5.34 KCAL/MOL
REMARK 924 INTRA-LIGAND FREE ENERGY PREDICTED BY IDOCK:   -0.49 KCAL/MOL
REMARK 927      BINDING AFFINITY PREDICTED BY RF-SCORE:    0.00 PKD
ROOT
HETATM    1  N   UNL     1     -13.414  14.860  73.374  1.00  0.00    -0.293 N  
HETATM    2  C   UNL     1     -12.559  15.832  72.921  1.00  0.00    -0.466 C  
HETATM    3  H2  UNL     1     -13.700  14.857  74.353  1.00  0.00     0.000 HD 
HETATM    4  H1  UNL     1     -13.767  14.139  72.744  1.00  0.00     0.000 HD 
HETATM    5  O   UNL     1     -12.133  16.700  73.680  1.00  0.00    -0.452 OA 
ENDROOT
BRANCH   2   6
HETATM    6  C   UNL     1     -12.237  15.726  71.486  1.00  0.00    -0.453 A  
HETATM    7  N   UNL     1     -10.995  15.562  71.005  1.00  0.00    -0.330 NA 
HETATM    8  N   UNL     1     -11.193  15.611  69.677  1.00  0.00    -0.283 NA 
HETATM    9  C   UNL     1     -12.515  15.710  69.382  1.00  0.00     0.059 A  
HETATM   10  N   UNL     1     -13.204  15.802  70.492  1.00  0.00    -0.332 NA 
BRANCH   8  11
HETATM   11  C1* UNL     1     -10.102  15.528  68.725  1.00  0.00    -0.211 C  
HETATM   12  O4* UNL     1      -9.115  16.526  69.077  1.00  0.00    -0.256 OA 
HETATM   13  C4* UNL     1      -9.308  17.671  68.220  1.00  0.00    -0.290 C  
HETATM   14  C3* UNL     1      -9.943  17.153  66.928  1.00  0.00    -0.288 C  
HETATM   15  H2* UNL     1     -10.050  14.881  65.550  1.00  0.00     0.000 HD 
HETATM   16  C2* UNL     1     -10.470  15.753  67.257  1.00  0.00    -0.308 C  
HETATM   17  H3* UNL     1      -9.371  16.720  65.064  1.00  0.00     0.000 HD 
HETATM   18  O3* UNL     1      -8.977  17.042  65.865  1.00  0.00    -0.517 OA 
HETATM   19  O2* UNL     1      -9.821  14.741  66.462  1.00  0.00    -0.250 OA 
BRANCH  13  20
HETATM   20  C5* UNL     1     -10.158  18.717  68.951  1.00  0.00    -0.311 C  
HETATM   21  O5* UNL     1     -10.789  19.571  67.996  1.00  0.00    -0.357 OA 
HETATM   22  H5* UNL     1     -11.316  20.219  68.449  1.00  0.00     0.000 HD 
ENDBRANCH  13  20
ENDBRANCH   8  11
ENDBRANCH   2   6
TORSDOF 3
ENDMDL
MODEL       67
REMARK 921   NORMALIZED FREE ENERGY PREDICTED BY IDOCK:   -4.16 KCAL/MOL
REMARK 922        TOTAL FREE ENERGY PREDICTED BY IDOCK:   -5.82 KCAL/MOL
REMARK 923 INTER-LIGAND FREE ENERGY PREDICTED BY IDOCK:   -5.57 KCAL/MOL
REMARK 924 INTRA-LIGAND FREE ENERGY PREDICTED BY IDOCK:   -0.24 KCAL/MOL
REMARK 927      BINDING AFFINITY PREDICTED BY RF-SCORE:    0.00 PKD
ROOT
HETATM    1  N   UNL     1     -10.202  11.570  65.269  1.00  0.00    -0.255 N  
HETATM    2  C   UNL     1     -11.243  11.673  66.157  1.00  0.00    -0.254 C  
HETATM    3  H2  UNL     1     -10.311  11.929  64.321  1.00  0.00     0.000 HD 
HETATM    4  H1  UNL     1      -9.320  11.139  65.546  1.00  0.00     0.000 HD 
HETATM    5  O   UNL     1     -12.306  12.192  65.823  1.00  0.00    -0.564 OA 
ENDROOT
BRANCH   2   6
HETATM    6  C   UNL     1     -10.947  11.124  67.493  1.00  0.00    -0.275 A  
HETATM    7  N   UNL     1     -11.787  11.197  68.537  1.00  0.00    -0.525 NA 
HETATM    8  N   UNL     1     -11.058  10.657  69.529  1.00  0.00    -0.254 NA 
HETATM    9  C   UNL     1      -9.866  10.199  69.067  1.00  0.00    -0.205 A  
HETATM   10  N   UNL     1      -9.749  10.489  67.795  1.00  0.00    -0.159 NA 
BRANCH   8  11
HETATM   11  C1* UNL     1     -11.547  10.567  70.891  1.00  0.00    -0.292 C  
HETATM   12  O4* UNL     1     -10.800   9.534  71.575  1.00  0.00    -0.355 OA 
HETATM   13  C4* UNL     1     -11.600   8.331  71.582  1.00  0.00    -0.284 C  
HETATM   14  C3* UNL     1     -13.062   8.775  71.512  1.00  0.00    -0.318 C  
HETATM   15  H2* UNL     1     -14.515  10.910  72.148  1.00  0.00     0.000 HD 
HETATM   16  C2* UNL     1     -13.032  10.235  71.054  1.00  0.00    -0.397 C  
HETATM   17  H3* UNL     1     -14.609   8.987  72.758  1.00  0.00     0.000 HD 
HETATM   18  O3* UNL     1     -13.702   8.711  72.802  1.00  0.00    -0.294 OA 
HETATM   19  O2* UNL     1     -13.593  11.116  72.048  1.00  0.00    -0.277 OA 
BRANCH  13  20
HETATM   20  C5* UNL     1     -11.171   7.427  70.421  1.00  0.00    -0.262 C  
HETATM   21  O5* UNL     1     -12.272   6.611  70.021  1.00  0.00    -0.605 OA 
HETATM   22  H5* UNL     1     -12.007   6.050  69.301  1.00  0.00     0.000 HD 
ENDBRANCH  13  20
ENDBRANCH   8  11
ENDBRANCH   2   6
TORSDOF 3
ENDMDL
MODEL       68
REMARK 921   NORMALIZED FREE ENERGY PREDICTED BY IDOCK:   -4.15 KCAL/MOL
REMARK 922        TOTAL FREE ENERGY PREDICTED BY IDOCK:   -5.81 KCAL/MOL
REMARK 923 INTER-LIGAND FREE ENERGY PREDICTED BY IDOCK:   -5.01 KCAL/MOL
REMARK 924 INTRA-LIGAND FREE ENERGY PREDICTED BY IDOCK:   -0.80 KCAL/MOL
REMARK 927      BINDING AFFINITY PREDICTED BY RF-SCORE:    0.00 PKD
ROOT
HETATM    1  N   UNL     1     -11.528   6.509  68.036  1.00  0.00    -0.611 N  
HETATM    2  C   UNL     1     -10.550   6.636  67.082  1.00  0.00    -0.331 C  
HETATM    3  H2  UNL     1     -12.018   5.621  68.140  1.00  0.00     0.000 HD 
HETATM    4  H1  UNL     1     -11.771   7.293  68.643  1.00  0.00     0.000 HD 
HETATM    5  O   UNL     1     -10.258   5.692  66.351  1.00  0.00    -0.190 OA 
ENDROOT
BRANCH   2   6
HETATM    6  C   UNL     1      -9.916   7.966  67.046  1.00  0.00    -0.252 A  
HETATM    7  N   UNL     1     -10.544   9.087  66.663  1.00  0.00    -0.162 NA 
HETATM    8  N   UNL     1      -9.558   9.999  66.709  1.00  0.00    -0.174 NA 
HETATM    9  C   UNL     1      -8.410   9.455  67.190  1.00  0.00    -0.124 A  
HETATM   10  N   UNL     1      -8.588   8.174  67.397  1.00  0.00    -0.125 NA 
BRANCH   8  11
HETATM   11  C1* UNL     1      -9.759  11.381  66.320  1.00  0.00    -0.212 C  
HETATM   12  O4* UNL     1      -9.593  12.213  67.493  1.00  0.00    -0.174 OA 
HETATM   13  C4* UNL     1     -10.905  12.535  68.004  1.00  0.00    -0.225 C  
HETATM   14  C3* UNL     1     -11.867  12.479  66.816  1.00  0.00    -0.346 C  
HETATM   15  H2* UNL     1     -11.763  12.751  64.172  1.00  0.00     0.000 HD 
HETATM   16  C2* UNL     1     -11.123  11.719  65.714  1.00  0.00    -0.297 C  
HETATM   17  H3* UNL     1     -12.786  13.762  65.590  1.00  0.00     0.000 HD 
HETATM   18  O3* UNL     1     -12.189  13.796  66.328  1.00  0.00    -0.425 OA 
HETATM   19  O2* UNL     1     -10.916  12.542  64.548  1.00  0.00    -0.292 OA 
BRANCH  13  20
HETATM   20  C5* UNL     1     -11.263  11.564  69.136  1.00  0.00    -0.274 C  
HETATM   21  O5* UNL     1     -12.178  10.582  68.649  1.00  0.00    -0.794 OA 
HETATM   22  H5* UNL     1     -12.400   9.980  69.350  1.00  0.00     0.000 HD 
ENDBRANCH  13  20
ENDBRANCH   8  11
ENDBRANCH   2   6
TORSDOF 3
ENDMDL
MODEL       69
REMARK 921   NORMALIZED FREE ENERGY PREDICTED BY IDOCK:   -4.15 KCAL/MOL
REMARK 922        TOTAL FREE ENERGY PREDICTED BY IDOCK:   -5.80 KCAL/MOL
REMARK 923 INTER-LIGAND FREE ENERGY PREDICTED BY IDOCK:   -5.26 KCAL/MOL
REMARK 924 INTRA-LIGAND FREE ENERGY PREDICTED BY IDOCK:   -0.55 KCAL/MOL
REMARK 927      BINDING AFFINITY PREDICTED BY RF-SCORE:    0.00 PKD
ROOT
HETATM    1  N   UNL     1     -12.907  14.828  63.686  1.00  0.00    -0.537 N  
HETATM    2  C   UNL     1     -12.258  13.653  63.965  1.00  0.00    -0.390 C  
HETATM    3  H2  UNL     1     -13.591  14.859  62.930  1.00  0.00     0.000 HD 
HETATM    4  H1  UNL     1     -12.713  15.673  64.224  1.00  0.00     0.000 HD 
HETATM    5  O   UNL     1     -12.491  12.635  63.316  1.00  0.00    -0.648 OA 
ENDROOT
BRANCH   2   6
HETATM    6  C   UNL     1     -11.304  13.746  65.086  1.00  0.00    -0.311 A  
HETATM    7  N   UNL     1     -11.366  14.678  66.048  1.00  0.00    -0.343 NA 
HETATM    8  N   UNL     1     -10.263  14.418  66.771  1.00  0.00    -0.267 NA 
HETATM    9  C   UNL     1      -9.622  13.315  66.305  1.00  0.00    -0.235 A  
HETATM   10  N   UNL     1     -10.234  12.873  65.235  1.00  0.00    -0.290 NA 
BRANCH   8  11
HETATM   11  C1* UNL     1      -9.876  15.222  67.914  1.00  0.00    -0.216 C  
HETATM   12  O4* UNL     1      -9.575  14.333  69.014  1.00  0.00    -0.134 OA 
HETATM   13  C4* UNL     1     -10.727  14.286  69.883  1.00  0.00     0.156 C  
HETATM   14  C3* UNL     1     -11.466  15.615  69.706  1.00  0.00    -0.342 C  
HETATM   15  H2* UNL     1     -10.903  18.108  68.972  1.00  0.00     0.000 HD 
HETATM   16  C2* UNL     1     -10.916  16.226  68.415  1.00  0.00    -0.351 C  
HETATM   17  H3* UNL     1     -11.659  17.346  70.684  1.00  0.00     0.000 HD 
HETATM   18  O3* UNL     1     -11.201  16.522  70.794  1.00  0.00    -0.304 OA 
HETATM   19  O2* UNL     1     -10.257  17.485  68.661  1.00  0.00    -0.335 OA 
BRANCH  13  20
HETATM   20  C5* UNL     1     -11.575  13.056  69.539  1.00  0.00    -0.276 C  
HETATM   21  O5* UNL     1     -10.728  11.913  69.418  1.00  0.00    -0.434 OA 
HETATM   22  H5* UNL     1     -11.253  11.150  69.205  1.00  0.00     0.000 HD 
ENDBRANCH  13  20
ENDBRANCH   8  11
ENDBRANCH   2   6
TORSDOF 3
ENDMDL
MODEL       70
REMARK 921   NORMALIZED FREE ENERGY PREDICTED BY IDOCK:   -4.13 KCAL/MOL
REMARK 922        TOTAL FREE ENERGY PREDICTED BY IDOCK:   -5.78 KCAL/MOL
REMARK 923 INTER-LIGAND FREE ENERGY PREDICTED BY IDOCK:   -4.95 KCAL/MOL
REMARK 924 INTRA-LIGAND FREE ENERGY PREDICTED BY IDOCK:   -0.83 KCAL/MOL
REMARK 927      BINDING AFFINITY PREDICTED BY RF-SCORE:    0.00 PKD
ROOT
HETATM    1  N   UNL     1     -12.082   6.008  72.597  1.00  0.00    -0.537 N  
HETATM    2  C   UNL     1     -12.504   7.016  71.768  1.00  0.00    -0.356 C  
HETATM    3  H2  UNL     1     -12.761   5.345  72.970  1.00  0.00     0.000 HD 
HETATM    4  H1  UNL     1     -11.097   5.914  72.846  1.00  0.00     0.000 HD 
HETATM    5  O   UNL     1     -13.691   7.130  71.469  1.00  0.00    -0.377 OA 
ENDROOT
BRANCH   2   6
HETATM    6  C   UNL     1     -11.420   7.895  71.293  1.00  0.00    -0.265 A  
HETATM    7  N   UNL     1     -11.171   8.150  70.000  1.00  0.00    -0.153 NA 
HETATM    8  N   UNL     1     -10.063   8.907  70.063  1.00  0.00    -0.186 NA 
HETATM    9  C   UNL     1      -9.721   9.166  71.352  1.00  0.00    -0.268 A  
HETATM   10  N   UNL     1     -10.538   8.533  72.157  1.00  0.00    -0.331 NA 
BRANCH   8  11
HETATM   11  C1* UNL     1      -9.382   9.389  68.878  1.00  0.00    -0.154 C  
HETATM   12  O4* UNL     1      -9.264  10.828  68.974  1.00  0.00    -0.180 OA 
HETATM   13  C4* UNL     1     -10.316  11.419  68.181  1.00  0.00    -0.188 C  
HETATM   14  C3* UNL     1     -10.660  10.410  67.084  1.00  0.00    -0.261 C  
HETATM   15  H2* UNL     1      -9.472   8.414  65.788  1.00  0.00     0.000 HD 
HETATM   16  C2* UNL     1     -10.056   9.079  67.540  1.00  0.00    -0.228 C  
HETATM   17  H3* UNL     1     -10.285  10.146  65.140  1.00  0.00     0.000 HD 
HETATM   18  O3* UNL     1     -10.071  10.773  65.820  1.00  0.00    -0.240 OA 
HETATM   19  O2* UNL     1      -9.053   8.607  66.619  1.00  0.00    -0.148 OA 
BRANCH  13  20
HETATM   20  C5* UNL     1     -11.499  11.775  69.088  1.00  0.00    -0.297 C  
HETATM   21  O5* UNL     1     -12.522  10.788  68.947  1.00  0.00    -0.782 OA 
HETATM   22  H5* UNL     1     -13.255  11.008  69.509  1.00  0.00     0.000 HD 
ENDBRANCH  13  20
ENDBRANCH   8  11
ENDBRANCH   2   6
TORSDOF 3
ENDMDL
MODEL       71
REMARK 921   NORMALIZED FREE ENERGY PREDICTED BY IDOCK:   -4.12 KCAL/MOL
REMARK 922        TOTAL FREE ENERGY PREDICTED BY IDOCK:   -5.77 KCAL/MOL
REMARK 923 INTER-LIGAND FREE ENERGY PREDICTED BY IDOCK:   -5.09 KCAL/MOL
REMARK 924 INTRA-LIGAND FREE ENERGY PREDICTED BY IDOCK:   -0.69 KCAL/MOL
REMARK 927      BINDING AFFINITY PREDICTED BY RF-SCORE:    0.00 PKD
ROOT
HETATM    1  N   UNL     1     -12.845   9.060  70.831  1.00  0.00    -0.508 N  
HETATM    2  C   UNL     1     -11.699   9.813  70.790  1.00  0.00    -0.328 C  
HETATM    3  H2  UNL     1     -12.904   8.267  71.469  1.00  0.00     0.000 HD 
HETATM    4  H1  UNL     1     -13.639   9.284  70.231  1.00  0.00     0.000 HD 
HETATM    5  O   UNL     1     -10.742   9.544  71.513  1.00  0.00    -0.340 OA 
ENDROOT
BRANCH   2   6
HETATM    6  C   UNL     1     -11.752  10.934  69.833  1.00  0.00    -0.339 A  
HETATM    7  N   UNL     1     -11.865  12.222  70.190  1.00  0.00    -0.312 NA 
HETATM    8  N   UNL     1     -11.963  12.842  69.002  1.00  0.00    -0.283 NA 
HETATM    9  C   UNL     1     -11.822  11.962  67.977  1.00  0.00    -0.253 A  
HETATM   10  N   UNL     1     -11.705  10.748  68.457  1.00  0.00    -0.432 NA 
BRANCH   8  11
HETATM   11  C1* UNL     1     -12.157  14.274  68.887  1.00  0.00    -0.279 C  
HETATM   12  O4* UNL     1     -11.424  14.741  67.731  1.00  0.00    -0.319 OA 
HETATM   13  C4* UNL     1     -10.174  15.303  68.188  1.00  0.00    -0.230 C  
HETATM   14  C3* UNL     1     -10.408  15.790  69.619  1.00  0.00    -0.290 C  
HETATM   15  H2* UNL     1     -12.445  16.601  71.124  1.00  0.00     0.000 HD 
HETATM   16  C2* UNL     1     -11.701  15.114  70.082  1.00  0.00    -0.307 C  
HETATM   17  H3* UNL     1     -10.737  17.521  70.561  1.00  0.00     0.000 HD 
HETATM   18  O3* UNL     1     -10.591  17.219  69.673  1.00  0.00    -0.208 OA 
HETATM   19  O2* UNL     1     -12.728  16.080  70.382  1.00  0.00    -0.324 OA 
BRANCH  13  20
HETATM   20  C5* UNL     1      -9.068  14.249  68.066  1.00  0.00    -0.191 C  
HETATM   21  O5* UNL     1      -8.908  13.580  69.318  1.00  0.00    -0.145 OA 
HETATM   22  H5* UNL     1      -8.222  12.926  69.243  1.00  0.00     0.000 HD 
ENDBRANCH  13  20
ENDBRANCH   8  11
ENDBRANCH   2   6
TORSDOF 3
ENDMDL
MODEL       72
REMARK 921   NORMALIZED FREE ENERGY PREDICTED BY IDOCK:   -4.12 KCAL/MOL
REMARK 922        TOTAL FREE ENERGY PREDICTED BY IDOCK:   -5.77 KCAL/MOL
REMARK 923 INTER-LIGAND FREE ENERGY PREDICTED BY IDOCK:   -5.17 KCAL/MOL
REMARK 924 INTRA-LIGAND FREE ENERGY PREDICTED BY IDOCK:   -0.60 KCAL/MOL
REMARK 927      BINDING AFFINITY PREDICTED BY RF-SCORE:    0.00 PKD
ROOT
HETATM    1  N   UNL     1     -10.588   7.341  73.106  1.00  0.00    -0.319 N  
HETATM    2  C   UNL     1      -9.998   8.394  72.455  1.00  0.00    -0.310 C  
HETATM    3  H2  UNL     1     -10.026   6.747  73.717  1.00  0.00     0.000 HD 
HETATM    4  H1  UNL     1     -11.582   7.143  72.988  1.00  0.00     0.000 HD 
HETATM    5  O   UNL     1      -8.801   8.631  72.597  1.00  0.00    -0.371 OA 
ENDROOT
BRANCH   2   6
HETATM    6  C   UNL     1     -10.926   9.174  71.615  1.00  0.00    -0.374 A  
HETATM    7  N   UNL     1     -10.534  10.012  70.644  1.00  0.00    -0.228 NA 
HETATM    8  N   UNL     1     -11.700  10.544  70.237  1.00  0.00    -0.305 NA 
HETATM    9  C   UNL     1     -12.750   9.974  70.883  1.00  0.00    -0.325 A  
HETATM   10  N   UNL     1     -12.305   9.120  71.770  1.00  0.00    -0.347 NA 
BRANCH   8  11
HETATM   11  C1* UNL     1     -11.771  11.565  69.210  1.00  0.00    -0.330 C  
HETATM   12  O4* UNL     1     -11.988  10.915  67.936  1.00  0.00    -0.585 OA 
HETATM   13  C4* UNL     1     -10.716  10.821  67.258  1.00  0.00    -0.274 C  
HETATM   14  C3* UNL     1      -9.853  11.972  67.779  1.00  0.00    -0.190 C  
HETATM   15  H2* UNL     1     -10.204  14.380  68.852  1.00  0.00     0.000 HD 
HETATM   16  C2* UNL     1     -10.537  12.457  69.060  1.00  0.00    -0.049 C  
HETATM   17  H3* UNL     1      -9.266  13.781  67.166  1.00  0.00     0.000 HD 
HETATM   18  O3* UNL     1      -9.801  13.066  66.843  1.00  0.00    -0.229 OA 
HETATM   19  O2* UNL     1     -10.971  13.827  68.945  1.00  0.00    -0.244 OA 
BRANCH  13  20
HETATM   20  C5* UNL     1     -10.111   9.434  67.501  1.00  0.00    -0.215 C  
HETATM   21  O5* UNL     1     -11.143   8.525  67.886  1.00  0.00    -0.475 OA 
HETATM   22  H5* UNL     1     -10.768   7.665  68.037  1.00  0.00     0.000 HD 
ENDBRANCH  13  20
ENDBRANCH   8  11
ENDBRANCH   2   6
TORSDOF 3
ENDMDL
MODEL       73
REMARK 921   NORMALIZED FREE ENERGY PREDICTED BY IDOCK:   -4.11 KCAL/MOL
REMARK 922        TOTAL FREE ENERGY PREDICTED BY IDOCK:   -5.76 KCAL/MOL
REMARK 923 INTER-LIGAND FREE ENERGY PREDICTED BY IDOCK:   -5.08 KCAL/MOL
REMARK 924 INTRA-LIGAND FREE ENERGY PREDICTED BY IDOCK:   -0.68 KCAL/MOL
REMARK 927      BINDING AFFINITY PREDICTED BY RF-SCORE:    0.00 PKD
ROOT
HETATM    1  N   UNL     1     -10.421  19.156  68.533  1.00  0.00    -0.446 N  
HETATM    2  C   UNL     1     -10.589  18.434  67.379  1.00  0.00    -0.413 C  
HETATM    3  H2  UNL     1     -10.559  20.167  68.519  1.00  0.00     0.000 HD 
HETATM    4  H1  UNL     1     -10.159  18.696  69.405  1.00  0.00     0.000 HD 
HETATM    5  O   UNL     1     -10.904  18.989  66.329  1.00  0.00    -0.343 OA 
ENDROOT
BRANCH   2   6
HETATM    6  C   UNL     1     -10.370  16.985  67.542  1.00  0.00    -0.329 A  
HETATM    7  N   UNL     1      -9.838  16.195  66.597  1.00  0.00    -0.238 NA 
HETATM    8  N   UNL     1      -9.924  14.977  67.160  1.00  0.00    -0.236 NA 
HETATM    9  C   UNL     1     -10.406  15.056  68.427  1.00  0.00    -0.231 A  
HETATM   10  N   UNL     1     -10.715  16.299  68.700  1.00  0.00    -0.290 NA 
BRANCH   8  11
HETATM   11  C1* UNL     1      -9.507  13.772  66.470  1.00  0.00    -0.269 C  
HETATM   12  O4* UNL     1     -10.000  13.831  65.111  1.00  0.00    -0.297 OA 
HETATM   13  C4* UNL     1     -11.203  13.036  65.035  1.00  0.00    -0.297 C  
HETATM   14  C3* UNL     1     -11.095  11.969  66.126  1.00  0.00    -0.322 C  
HETATM   15  H2* UNL     1      -9.183  10.709  67.478  1.00  0.00     0.000 HD 
HETATM   16  C2* UNL     1      -9.991  12.450  67.070  1.00  0.00    -0.212 C  
HETATM   17  H3* UNL     1     -10.645  10.027  66.261  1.00  0.00     0.000 HD 
HETATM   18  O3* UNL     1     -10.712  10.689  65.584  1.00  0.00    -0.160 OA 
HETATM   19  O2* UNL     1      -8.883  11.529  67.105  1.00  0.00    -0.158 OA 
BRANCH  13  20
HETATM   20  C5* UNL     1     -12.427  13.948  65.180  1.00  0.00    -0.453 C  
HETATM   21  O5* UNL     1     -12.194  15.172  64.482  1.00  0.00    -0.391 OA 
HETATM   22  H5* UNL     1     -12.952  15.738  64.572  1.00  0.00     0.000 HD 
ENDBRANCH  13  20
ENDBRANCH   8  11
ENDBRANCH   2   6
TORSDOF 3
ENDMDL
MODEL       74
REMARK 921   NORMALIZED FREE ENERGY PREDICTED BY IDOCK:   -4.10 KCAL/MOL
REMARK 922        TOTAL FREE ENERGY PREDICTED BY IDOCK:   -5.75 KCAL/MOL
REMARK 923 INTER-LIGAND FREE ENERGY PREDICTED BY IDOCK:   -5.04 KCAL/MOL
REMARK 924 INTRA-LIGAND FREE ENERGY PREDICTED BY IDOCK:   -0.71 KCAL/MOL
REMARK 927      BINDING AFFINITY PREDICTED BY RF-SCORE:    0.00 PKD
ROOT
HETATM    1  N   UNL     1      -7.387  18.104  65.911  1.00  0.00    -0.243 N  
HETATM    2  C   UNL     1      -8.297  18.739  66.718  1.00  0.00    -0.281 C  
HETATM    3  H2  UNL     1      -6.682  18.652  65.419  1.00  0.00     0.000 HD 
HETATM    4  H1  UNL     1      -7.407  17.090  65.798  1.00  0.00     0.000 HD 
HETATM    5  O   UNL     1      -8.273  19.960  66.854  1.00  0.00    -0.293 OA 
ENDROOT
BRANCH   2   6
HETATM    6  C   UNL     1      -9.251  17.828  67.377  1.00  0.00    -0.248 A  
HETATM    7  N   UNL     1      -9.674  16.671  66.846  1.00  0.00    -0.245 NA 
HETATM    8  N   UNL     1     -10.578  16.255  67.750  1.00  0.00    -0.306 NA 
HETATM    9  C   UNL     1     -10.622  17.090  68.820  1.00  0.00    -0.346 A  
HETATM   10  N   UNL     1      -9.815  18.102  68.617  1.00  0.00    -0.365 NA 
BRANCH   8  11
HETATM   11  C1* UNL     1     -11.353  15.042  67.571  1.00  0.00    -0.333 C  
HETATM   12  O4* UNL     1     -10.892  14.063  68.531  1.00  0.00    -0.239 OA 
HETATM   13  C4* UNL     1      -9.987  13.163  67.857  1.00  0.00    -0.233 C  
HETATM   14  C3* UNL     1     -10.388  13.160  66.380  1.00  0.00    -0.287 C  
HETATM   15  H2* UNL     1     -12.562  13.623  64.920  1.00  0.00     0.000 HD 
HETATM   16  C2* UNL     1     -11.277  14.391  66.189  1.00  0.00    -0.336 C  
HETATM   17  H3* UNL     1     -11.399  11.983  65.122  1.00  0.00     0.000 HD 
HETATM   18  O3* UNL     1     -11.149  11.985  66.038  1.00  0.00    -0.296 OA 
HETATM   19  O2* UNL     1     -12.610  14.026  65.779  1.00  0.00    -0.491 OA 
BRANCH  13  20
HETATM   20  C5* UNL     1      -8.543  13.615  68.104  1.00  0.00    -0.176 C  
HETATM   21  O5* UNL     1      -8.091  14.396  66.997  1.00  0.00    -0.323 OA 
HETATM   22  H5* UNL     1      -7.196  14.676  67.150  1.00  0.00     0.000 HD 
ENDBRANCH  13  20
ENDBRANCH   8  11
ENDBRANCH   2   6
TORSDOF 3
ENDMDL
MODEL       75
REMARK 921   NORMALIZED FREE ENERGY PREDICTED BY IDOCK:   -4.08 KCAL/MOL
REMARK 922        TOTAL FREE ENERGY PREDICTED BY IDOCK:   -5.73 KCAL/MOL
REMARK 923 INTER-LIGAND FREE ENERGY PREDICTED BY IDOCK:   -5.09 KCAL/MOL
REMARK 924 INTRA-LIGAND FREE ENERGY PREDICTED BY IDOCK:   -0.64 KCAL/MOL
REMARK 927      BINDING AFFINITY PREDICTED BY RF-SCORE:    0.00 PKD
ROOT
HETATM    1  N   UNL     1     -12.395  13.698  63.306  1.00  0.00    -1.080 N  
HETATM    2  C   UNL     1     -12.428  13.778  64.675  1.00  0.00    -0.315 C  
HETATM    3  H2  UNL     1     -13.164  14.085  62.760  1.00  0.00     0.000 HD 
HETATM    4  H1  UNL     1     -11.609  13.257  62.827  1.00  0.00     0.000 HD 
HETATM    5  O   UNL     1     -13.375  14.309  65.252  1.00  0.00    -0.660 OA 
ENDROOT
BRANCH   2   6
HETATM    6  C   UNL     1     -11.249  13.191  65.338  1.00  0.00    -0.291 A  
HETATM    7  N   UNL     1     -11.183  11.921  65.764  1.00  0.00    -0.325 NA 
HETATM    8  N   UNL     1      -9.982  11.883  66.367  1.00  0.00    -0.209 NA 
HETATM    9  C   UNL     1      -9.325  13.063  66.223  1.00  0.00    -0.140 A  
HETATM   10  N   UNL     1     -10.095  13.918  65.597  1.00  0.00    -0.319 NA 
BRANCH   8  11
HETATM   11  C1* UNL     1      -9.486  10.697  67.038  1.00  0.00    -0.164 C  
HETATM   12  O4* UNL     1      -8.347  10.199  66.298  1.00  0.00    -0.125 OA 
HETATM   13  C4* UNL     1      -8.796   9.109  65.463  1.00  0.00    -0.191 C  
HETATM   14  C3* UNL     1     -10.018   8.500  66.152  1.00  0.00    -0.090 C  
HETATM   15  H2* UNL     1     -11.011   8.310  68.612  1.00  0.00     0.000 HD 
HETATM   16  C2* UNL     1     -10.476   9.539  67.179  1.00  0.00    -0.253 C  
HETATM   17  H3* UNL     1     -10.445   6.904  67.276  1.00  0.00     0.000 HD 
HETATM   18  O3* UNL     1      -9.687   7.282  66.847  1.00  0.00    -0.171 OA 
HETATM   19  O2* UNL     1     -10.396   9.028  68.525  1.00  0.00    -0.196 OA 
BRANCH  13  20
HETATM   20  C5* UNL     1      -9.080   9.634  64.050  1.00  0.00    -0.200 C  
HETATM   21  O5* UNL     1      -8.450  10.904  63.879  1.00  0.00    -0.358 OA 
HETATM   22  H5* UNL     1      -8.625  11.230  63.004  1.00  0.00     0.000 HD 
ENDBRANCH  13  20
ENDBRANCH   8  11
ENDBRANCH   2   6
TORSDOF 3
ENDMDL
MODEL       76
REMARK 921   NORMALIZED FREE ENERGY PREDICTED BY IDOCK:   -4.08 KCAL/MOL
REMARK 922        TOTAL FREE ENERGY PREDICTED BY IDOCK:   -5.73 KCAL/MOL
REMARK 923 INTER-LIGAND FREE ENERGY PREDICTED BY IDOCK:   -4.80 KCAL/MOL
REMARK 924 INTRA-LIGAND FREE ENERGY PREDICTED BY IDOCK:   -0.93 KCAL/MOL
REMARK 927      BINDING AFFINITY PREDICTED BY RF-SCORE:    0.00 PKD
ROOT
HETATM    1  N   UNL     1     -14.149   8.975  72.799  1.00  0.00    -0.837 N  
HETATM    2  C   UNL     1     -13.179   9.710  72.167  1.00  0.00    -0.444 C  
HETATM    3  H2  UNL     1     -14.957   9.448  73.204  1.00  0.00     0.000 HD 
HETATM    4  H1  UNL     1     -14.073   7.959  72.869  1.00  0.00     0.000 HD 
HETATM    5  O   UNL     1     -13.270  10.933  72.083  1.00  0.00    -0.474 OA 
ENDROOT
BRANCH   2   6
HETATM    6  C   UNL     1     -12.075   8.901  71.619  1.00  0.00    -0.346 A  
HETATM    7  N   UNL     1     -10.879   9.399  71.272  1.00  0.00    -0.341 NA 
HETATM    8  N   UNL     1     -10.259   8.324  70.754  1.00  0.00    -0.190 NA 
HETATM    9  C   UNL     1     -11.028   7.211  70.875  1.00  0.00    -0.251 A  
HETATM   10  N   UNL     1     -12.185   7.534  71.398  1.00  0.00    -0.322 NA 
BRANCH   8  11
HETATM   11  C1* UNL     1      -8.927   8.394  70.188  1.00  0.00    -0.142 C  
HETATM   12  O4* UNL     1      -8.916   9.430  69.178  1.00  0.00    -0.138 OA 
HETATM   13  C4* UNL     1      -9.050   8.800  67.886  1.00  0.00    -0.139 C  
HETATM   14  C3* UNL     1      -8.483   7.386  68.024  1.00  0.00    -0.123 C  
HETATM   15  H2* UNL     1      -6.727   6.100  69.553  1.00  0.00     0.000 HD 
HETATM   16  C2* UNL     1      -8.407   7.115  69.529  1.00  0.00    -0.133 C  
HETATM   17  H3* UNL     1      -6.804   6.410  67.558  1.00  0.00     0.000 HD 
HETATM   18  O3* UNL     1      -7.156   7.287  67.472  1.00  0.00    -0.079 OA 
HETATM   19  O2* UNL     1      -7.050   6.895  69.962  1.00  0.00    -0.070 OA 
BRANCH  13  20
HETATM   20  C5* UNL     1     -10.520   8.838  67.452  1.00  0.00    -0.279 C  
HETATM   21  O5* UNL     1     -11.219   9.816  68.222  1.00  0.00    -0.494 OA 
HETATM   22  H5* UNL     1     -12.130   9.840  67.954  1.00  0.00     0.000 HD 
ENDBRANCH  13  20
ENDBRANCH   8  11
ENDBRANCH   2   6
TORSDOF 3
ENDMDL
MODEL       77
REMARK 921   NORMALIZED FREE ENERGY PREDICTED BY IDOCK:   -4.08 KCAL/MOL
REMARK 922        TOTAL FREE ENERGY PREDICTED BY IDOCK:   -5.72 KCAL/MOL
REMARK 923 INTER-LIGAND FREE ENERGY PREDICTED BY IDOCK:   -4.93 KCAL/MOL
REMARK 924 INTRA-LIGAND FREE ENERGY PREDICTED BY IDOCK:   -0.79 KCAL/MOL
REMARK 927      BINDING AFFINITY PREDICTED BY RF-SCORE:    0.00 PKD
ROOT
HETATM    1  N   UNL     1     -11.343   6.013  66.478  1.00  0.00    -0.694 N  
HETATM    2  C   UNL     1     -10.475   5.472  67.393  1.00  0.00    -0.219 C  
HETATM    3  H2  UNL     1     -11.560   5.500  65.624  1.00  0.00     0.000 HD 
HETATM    4  H1  UNL     1     -11.773   6.924  66.642  1.00  0.00     0.000 HD 
HETATM    5  O   UNL     1      -9.956   4.375  67.195  1.00  0.00    -0.196 OA 
ENDROOT
BRANCH   2   6
HETATM    6  C   UNL     1     -10.259   6.312  68.585  1.00  0.00    -0.178 A  
HETATM    7  N   UNL     1     -10.709   7.569  68.709  1.00  0.00    -0.147 NA 
HETATM    8  N   UNL     1     -10.199   7.941  69.895  1.00  0.00    -0.205 NA 
HETATM    9  C   UNL     1      -9.548   6.910  70.493  1.00  0.00    -0.169 A  
HETATM   10  N   UNL     1      -9.547   5.872  69.694  1.00  0.00    -0.145 NA 
BRANCH   8  11
HETATM   11  C1* UNL     1     -10.383   9.273  70.437  1.00  0.00    -0.240 C  
HETATM   12  O4* UNL     1     -10.703   9.152  71.843  1.00  0.00    -0.357 OA 
HETATM   13  C4* UNL     1     -12.134   9.277  71.990  1.00  0.00    -0.336 C  
HETATM   14  C3* UNL     1     -12.627  10.122  70.814  1.00  0.00    -0.317 C  
HETATM   15  H2* UNL     1     -11.657  11.967  69.161  1.00  0.00     0.000 HD 
HETATM   16  C2* UNL     1     -11.486  10.116  69.793  1.00  0.00    -0.228 C  
HETATM   17  H3* UNL     1     -13.190  12.009  70.476  1.00  0.00     0.000 HD 
HETATM   18  O3* UNL     1     -12.885  11.484  71.206  1.00  0.00    -0.404 OA 
HETATM   19  O2* UNL     1     -10.973  11.444  69.561  1.00  0.00    -0.232 OA 
BRANCH  13  20
HETATM   20  C5* UNL     1     -12.763   7.880  72.055  1.00  0.00    -0.279 C  
HETATM   21  O5* UNL     1     -13.242   7.513  70.760  1.00  0.00    -0.580 OA 
HETATM   22  H5* UNL     1     -13.631   6.648  70.799  1.00  0.00     0.000 HD 
ENDBRANCH  13  20
ENDBRANCH   8  11
ENDBRANCH   2   6
TORSDOF 3
ENDMDL
MODEL       78
REMARK 921   NORMALIZED FREE ENERGY PREDICTED BY IDOCK:   -4.07 KCAL/MOL
REMARK 922        TOTAL FREE ENERGY PREDICTED BY IDOCK:   -5.72 KCAL/MOL
REMARK 923 INTER-LIGAND FREE ENERGY PREDICTED BY IDOCK:   -5.11 KCAL/MOL
REMARK 924 INTRA-LIGAND FREE ENERGY PREDICTED BY IDOCK:   -0.61 KCAL/MOL
REMARK 927      BINDING AFFINITY PREDICTED BY RF-SCORE:    0.00 PKD
ROOT
HETATM    1  N   UNL     1     -12.418  14.569  69.120  1.00  0.00    -0.575 N  
HETATM    2  C   UNL     1     -11.442  13.980  68.357  1.00  0.00    -0.306 C  
HETATM    3  H2  UNL     1     -12.989  13.994  69.739  1.00  0.00     0.000 HD 
HETATM    4  H1  UNL     1     -12.580  15.575  69.077  1.00  0.00     0.000 HD 
HETATM    5  O   UNL     1     -11.248  12.767  68.409  1.00  0.00    -0.243 OA 
ENDROOT
BRANCH   2   6
HETATM    6  C   UNL     1     -10.685  14.927  67.518  1.00  0.00    -0.276 A  
HETATM    7  N   UNL     1      -9.563  15.547  67.911  1.00  0.00    -0.206 NA 
HETATM    8  N   UNL     1      -9.301  16.355  66.869  1.00  0.00    -0.220 NA 
HETATM    9  C   UNL     1     -10.187  16.153  65.858  1.00  0.00    -0.360 A  
HETATM   10  N   UNL     1     -11.084  15.275  66.233  1.00  0.00    -0.311 NA 
BRANCH   8  11
HETATM   11  C1* UNL     1      -8.183  17.277  66.862  1.00  0.00    -0.227 C  
HETATM   12  O4* UNL     1      -7.981  17.756  68.212  1.00  0.00    -0.261 OA 
HETATM   13  C4* UNL     1      -8.597  19.057  68.324  1.00  0.00    -0.331 C  
HETATM   14  C3* UNL     1      -8.592  19.669  66.921  1.00  0.00    -0.315 C  
HETATM   15  H2* UNL     1      -7.188  19.450  64.673  1.00  0.00     0.000 HD 
HETATM   16  C2* UNL     1      -8.327  18.505  65.962  1.00  0.00    -0.029 C  
HETATM   17  H3* UNL     1      -7.535  21.020  65.896  1.00  0.00     0.000 HD 
HETATM   18  O3* UNL     1      -7.539  20.641  66.767  1.00  0.00    -0.267 OA 
HETATM   19  O2* UNL     1      -7.097  18.687  65.232  1.00  0.00    -0.513 OA 
BRANCH  13  20
HETATM   20  C5* UNL     1      -9.998  18.907  68.928  1.00  0.00    -0.378 C  
HETATM   21  O5* UNL     1     -10.969  18.893  67.881  1.00  0.00    -0.289 OA 
HETATM   22  H5* UNL     1     -11.838  18.799  68.254  1.00  0.00     0.000 HD 
ENDBRANCH  13  20
ENDBRANCH   8  11
ENDBRANCH   2   6
TORSDOF 3
ENDMDL
MODEL       79
REMARK 921   NORMALIZED FREE ENERGY PREDICTED BY IDOCK:   -4.06 KCAL/MOL
REMARK 922        TOTAL FREE ENERGY PREDICTED BY IDOCK:   -5.71 KCAL/MOL
REMARK 923 INTER-LIGAND FREE ENERGY PREDICTED BY IDOCK:   -4.79 KCAL/MOL
REMARK 924 INTRA-LIGAND FREE ENERGY PREDICTED BY IDOCK:   -0.92 KCAL/MOL
REMARK 927      BINDING AFFINITY PREDICTED BY RF-SCORE:    0.00 PKD
ROOT
HETATM    1  N   UNL     1     -14.037   9.213  72.967  1.00  0.00    -0.801 N  
HETATM    2  C   UNL     1     -13.243   9.809  72.020  1.00  0.00    -0.460 C  
HETATM    3  H2  UNL     1     -14.736   9.768  73.461  1.00  0.00     0.000 HD 
HETATM    4  H1  UNL     1     -13.937   8.221  73.184  1.00  0.00     0.000 HD 
HETATM    5  O   UNL     1     -13.364  11.004  71.759  1.00  0.00    -0.390 OA 
ENDROOT
BRANCH   2   6
HETATM    6  C   UNL     1     -12.286   8.891  71.377  1.00  0.00    -0.318 A  
HETATM    7  N   UNL     1     -12.374   7.553  71.434  1.00  0.00    -0.332 NA 
HETATM    8  N   UNL     1     -11.256   7.165  70.795  1.00  0.00    -0.268 NA 
HETATM    9  C   UNL     1     -10.579   8.233  70.300  1.00  0.00    -0.227 A  
HETATM   10  N   UNL     1     -11.184   9.338  70.659  1.00  0.00    -0.261 NA 
BRANCH   8  11
HETATM   11  C1* UNL     1     -10.890   5.770  70.651  1.00  0.00    -0.267 C  
HETATM   12  O4* UNL     1     -11.036   5.125  71.938  1.00  0.00    -0.161 OA 
HETATM   13  C4* UNL     1      -9.730   5.040  72.549  1.00  0.00    -0.155 C  
HETATM   14  C3* UNL     1      -8.711   5.011  71.408  1.00  0.00    -0.131 C  
HETATM   15  H2* UNL     1      -8.631   4.307  68.844  1.00  0.00     0.000 HD 
HETATM   16  C2* UNL     1      -9.465   5.495  70.166  1.00  0.00    -0.163 C  
HETATM   17  H3* UNL     1      -7.592   3.660  70.452  1.00  0.00     0.000 HD 
HETATM   18  O3* UNL     1      -8.224   3.678  71.161  1.00  0.00    -0.065 OA 
HETATM   19  O2* UNL     1      -9.515   4.477  69.146  1.00  0.00    -0.136 OA 
BRANCH  13  20
HETATM   20  C5* UNL     1      -9.543   6.215  73.516  1.00  0.00    -0.147 C  
HETATM   21  O5* UNL     1     -10.815   6.794  73.813  1.00  0.00    -0.503 OA 
HETATM   22  H5* UNL     1     -10.699   7.522  74.413  1.00  0.00     0.000 HD 
ENDBRANCH  13  20
ENDBRANCH   8  11
ENDBRANCH   2   6
TORSDOF 3
ENDMDL
MODEL       80
REMARK 921   NORMALIZED FREE ENERGY PREDICTED BY IDOCK:   -4.06 KCAL/MOL
REMARK 922        TOTAL FREE ENERGY PREDICTED BY IDOCK:   -5.70 KCAL/MOL
REMARK 923 INTER-LIGAND FREE ENERGY PREDICTED BY IDOCK:   -4.93 KCAL/MOL
REMARK 924 INTRA-LIGAND FREE ENERGY PREDICTED BY IDOCK:   -0.77 KCAL/MOL
REMARK 927      BINDING AFFINITY PREDICTED BY RF-SCORE:    0.00 PKD
ROOT
HETATM    1  N   UNL     1      -7.034  13.901  70.265  1.00  0.00    -0.275 N  
HETATM    2  C   UNL     1      -6.996  15.118  69.634  1.00  0.00    -0.192 C  
HETATM    3  H2  UNL     1      -6.419  13.726  71.059  1.00  0.00     0.000 HD 
HETATM    4  H1  UNL     1      -7.670  13.167  69.949  1.00  0.00     0.000 HD 
HETATM    5  O   UNL     1      -6.230  16.001  70.014  1.00  0.00    -0.182 OA 
ENDROOT
BRANCH   2   6
HETATM    6  C   UNL     1      -7.943  15.240  68.510  1.00  0.00    -0.141 A  
HETATM    7  N   UNL     1      -9.250  14.951  68.595  1.00  0.00    -0.188 NA 
HETATM    8  N   UNL     1      -9.665  15.124  67.328  1.00  0.00    -0.209 NA 
HETATM    9  C   UNL     1      -8.658  15.587  66.542  1.00  0.00    -0.285 A  
HETATM   10  N   UNL     1      -7.554  15.656  67.243  1.00  0.00    -0.194 NA 
BRANCH   8  11
HETATM   11  C1* UNL     1     -11.032  14.871  66.917  1.00  0.00    -0.327 C  
HETATM   12  O4* UNL     1     -11.600  13.883  67.809  1.00  0.00    -0.307 OA 
HETATM   13  C4* UNL     1     -11.537  12.598  67.154  1.00  0.00    -0.368 C  
HETATM   14  C3* UNL     1     -11.559  12.869  65.648  1.00  0.00    -0.361 C  
HETATM   15  H2* UNL     1     -12.423  14.762  63.991  1.00  0.00     0.000 HD 
HETATM   16  C2* UNL     1     -11.222  14.354  65.489  1.00  0.00    -0.330 C  
HETATM   17  H3* UNL     1     -12.874  12.799  64.147  1.00  0.00     0.000 HD 
HETATM   18  O3* UNL     1     -12.861  12.630  65.081  1.00  0.00    -0.721 OA 
HETATM   19  O2* UNL     1     -12.306  15.082  64.878  1.00  0.00    -0.234 OA 
BRANCH  13  20
HETATM   20  C5* UNL     1     -10.290  11.844  67.629  1.00  0.00    -0.200 C  
HETATM   21  O5* UNL     1      -9.961  12.257  68.957  1.00  0.00    -0.421 OA 
HETATM   22  H5* UNL     1      -9.188  11.790  69.252  1.00  0.00     0.000 HD 
ENDBRANCH  13  20
ENDBRANCH   8  11
ENDBRANCH   2   6
TORSDOF 3
ENDMDL
MODEL       81
REMARK 921   NORMALIZED FREE ENERGY PREDICTED BY IDOCK:   -4.02 KCAL/MOL
REMARK 922        TOTAL FREE ENERGY PREDICTED BY IDOCK:   -5.66 KCAL/MOL
REMARK 923 INTER-LIGAND FREE ENERGY PREDICTED BY IDOCK:   -4.81 KCAL/MOL
REMARK 924 INTRA-LIGAND FREE ENERGY PREDICTED BY IDOCK:   -0.85 KCAL/MOL
REMARK 927      BINDING AFFINITY PREDICTED BY RF-SCORE:    0.00 PKD
ROOT
HETATM    1  N   UNL     1      -5.828  11.798  68.971  1.00  0.00    -0.052 N  
HETATM    2  C   UNL     1      -6.369  12.043  67.734  1.00  0.00    -0.081 C  
HETATM    3  H2  UNL     1      -4.822  11.893  69.109  1.00  0.00     0.000 HD 
HETATM    4  H1  UNL     1      -6.420  11.523  69.755  1.00  0.00     0.000 HD 
HETATM    5  O   UNL     1      -5.655  12.375  66.790  1.00  0.00    -0.319 OA 
ENDROOT
BRANCH   2   6
HETATM    6  C   UNL     1      -7.833  11.880  67.677  1.00  0.00    -0.142 A  
HETATM    7  N   UNL     1      -8.669  12.787  67.150  1.00  0.00    -0.197 NA 
HETATM    8  N   UNL     1      -9.874  12.249  67.405  1.00  0.00    -0.196 NA 
HETATM    9  C   UNL     1      -9.751  11.025  67.983  1.00  0.00    -0.172 A  
HETATM   10  N   UNL     1      -8.484  10.764  68.187  1.00  0.00    -0.121 NA 
BRANCH   8  11
HETATM   11  C1* UNL     1     -11.113  12.916  67.055  1.00  0.00    -0.275 C  
HETATM   12  O4* UNL     1     -11.929  11.991  66.300  1.00  0.00    -0.596 OA 
HETATM   13  C4* UNL     1     -11.778  12.299  64.897  1.00  0.00    -0.352 C  
HETATM   14  C3* UNL     1     -11.421  13.785  64.809  1.00  0.00    -0.356 C  
HETATM   15  H2* UNL     1     -11.760  15.990  66.257  1.00  0.00     0.000 HD 
HETATM   16  C2* UNL     1     -10.979  14.189  66.218  1.00  0.00    -0.303 C  
HETATM   17  H3* UNL     1     -12.337  15.507  64.382  1.00  0.00     0.000 HD 
HETATM   18  O3* UNL     1     -12.559  14.586  64.436  1.00  0.00    -0.665 OA 
HETATM   19  O2* UNL     1     -11.844  15.199  66.776  1.00  0.00    -0.167 OA 
BRANCH  13  20
HETATM   20  C5* UNL     1     -10.723  11.372  64.283  1.00  0.00    -0.356 C  
HETATM   21  O5* UNL     1      -9.467  12.050  64.228  1.00  0.00    -0.464 OA 
HETATM   22  H5* UNL     1      -8.813  11.475  63.847  1.00  0.00     0.000 HD 
ENDBRANCH  13  20
ENDBRANCH   8  11
ENDBRANCH   2   6
TORSDOF 3
ENDMDL
MODEL       82
REMARK 921   NORMALIZED FREE ENERGY PREDICTED BY IDOCK:   -4.00 KCAL/MOL
REMARK 922        TOTAL FREE ENERGY PREDICTED BY IDOCK:   -5.64 KCAL/MOL
REMARK 923 INTER-LIGAND FREE ENERGY PREDICTED BY IDOCK:   -5.05 KCAL/MOL
REMARK 924 INTRA-LIGAND FREE ENERGY PREDICTED BY IDOCK:   -0.59 KCAL/MOL
REMARK 927      BINDING AFFINITY PREDICTED BY RF-SCORE:    0.00 PKD
ROOT
HETATM    1  N   UNL     1     -12.018  12.994  67.628  1.00  0.00    -0.337 N  
HETATM    2  C   UNL     1     -11.845  13.569  68.861  1.00  0.00    -0.345 C  
HETATM    3  H2  UNL     1     -12.692  12.237  67.515  1.00  0.00     0.000 HD 
HETATM    4  H1  UNL     1     -11.480  13.314  66.822  1.00  0.00     0.000 HD 
HETATM    5  O   UNL     1     -12.493  13.183  69.832  1.00  0.00    -0.173 OA 
ENDROOT
BRANCH   2   6
HETATM    6  C   UNL     1     -10.850  14.656  68.881  1.00  0.00    -0.250 A  
HETATM    7  N   UNL     1     -11.162  15.961  68.872  1.00  0.00    -0.320 NA 
HETATM    8  N   UNL     1      -9.953  16.545  68.806  1.00  0.00    -0.243 NA 
HETATM    9  C   UNL     1      -8.959  15.621  68.866  1.00  0.00    -0.221 A  
HETATM   10  N   UNL     1      -9.481  14.420  68.896  1.00  0.00    -0.156 NA 
BRANCH   8  11
HETATM   11  C1* UNL     1      -9.789  17.983  68.721  1.00  0.00    -0.354 C  
HETATM   12  O4* UNL     1     -10.846  18.513  67.887  1.00  0.00    -0.350 OA 
HETATM   13  C4* UNL     1     -10.309  18.728  66.564  1.00  0.00    -0.424 C  
HETATM   14  C3* UNL     1      -8.807  18.969  66.732  1.00  0.00    -0.310 C  
HETATM   15  H2* UNL     1      -7.144  19.852  68.609  1.00  0.00     0.000 HD 
HETATM   16  C2* UNL     1      -8.463  18.477  68.140  1.00  0.00    -0.296 C  
HETATM   17  H3* UNL     1      -7.547  20.518  66.745  1.00  0.00     0.000 HD 
HETATM   18  O3* UNL     1      -8.478  20.369  66.641  1.00  0.00    -0.252 OA 
HETATM   19  O2* UNL     1      -7.968  19.546  68.970  1.00  0.00    -0.356 OA 
BRANCH  13  20
HETATM   20  C5* UNL     1     -10.647  17.524  65.676  1.00  0.00    -0.140 C  
HETATM   21  O5* UNL     1      -9.558  16.600  65.692  1.00  0.00    -0.519 OA 
HETATM   22  H5* UNL     1      -9.767  15.854  65.142  1.00  0.00     0.000 HD 
ENDBRANCH  13  20
ENDBRANCH   8  11
ENDBRANCH   2   6
TORSDOF 3
ENDMDL
MODEL       83
REMARK 921   NORMALIZED FREE ENERGY PREDICTED BY IDOCK:   -3.98 KCAL/MOL
REMARK 922        TOTAL FREE ENERGY PREDICTED BY IDOCK:   -5.61 KCAL/MOL
REMARK 923 INTER-LIGAND FREE ENERGY PREDICTED BY IDOCK:   -5.18 KCAL/MOL
REMARK 924 INTRA-LIGAND FREE ENERGY PREDICTED BY IDOCK:   -0.43 KCAL/MOL
REMARK 927      BINDING AFFINITY PREDICTED BY RF-SCORE:    0.00 PKD
ROOT
HETATM    1  N   UNL     1     -10.615  15.065  70.462  1.00  0.00    -0.524 N  
HETATM    2  C   UNL     1     -10.835  15.917  69.410  1.00  0.00    -0.288 C  
HETATM    3  H2  UNL     1     -10.462  15.447  71.395  1.00  0.00     0.000 HD 
HETATM    4  H1  UNL     1     -10.603  14.055  70.323  1.00  0.00     0.000 HD 
HETATM    5  O   UNL     1     -10.849  17.135  69.578  1.00  0.00    -0.202 OA 
ENDROOT
BRANCH   2   6
HETATM    6  C   UNL     1     -11.053  15.235  68.121  1.00  0.00    -0.308 A  
HETATM    7  N   UNL     1     -11.405  13.946  68.005  1.00  0.00    -0.273 NA 
HETATM    8  N   UNL     1     -11.393  13.764  66.673  1.00  0.00    -0.318 NA 
HETATM    9  C   UNL     1     -11.132  14.928  66.023  1.00  0.00    -0.334 A  
HETATM   10  N   UNL     1     -10.895  15.873  66.898  1.00  0.00    -0.286 NA 
BRANCH   8  11
HETATM   11  C1* UNL     1     -11.668  12.479  66.061  1.00  0.00    -0.417 C  
HETATM   12  O4* UNL     1     -11.664  11.471  67.100  1.00  0.00    -0.567 OA 
HETATM   13  C4* UNL     1     -10.381  10.810  67.080  1.00  0.00    -0.228 C  
HETATM   14  C3* UNL     1      -9.848  10.925  65.651  1.00  0.00    -0.241 C  
HETATM   15  H2* UNL     1     -10.822  11.226  63.194  1.00  0.00     0.000 HD 
HETATM   16  C2* UNL     1     -10.683  12.021  64.983  1.00  0.00    -0.296 C  
HETATM   17  H3* UNL     1      -9.694   9.772  64.027  1.00  0.00     0.000 HD 
HETATM   18  O3* UNL     1     -10.025   9.700  64.914  1.00  0.00    -0.173 OA 
HETATM   19  O2* UNL     1     -11.434  11.509  63.864  1.00  0.00    -0.379 OA 
BRANCH  13  20
HETATM   20  C5* UNL     1      -9.466  11.443  68.135  1.00  0.00    -0.181 C  
HETATM   21  O5* UNL     1      -8.797  12.572  67.570  1.00  0.00    -0.166 OA 
HETATM   22  H5* UNL     1      -8.230  12.965  68.223  1.00  0.00     0.000 HD 
ENDBRANCH  13  20
ENDBRANCH   8  11
ENDBRANCH   2   6
TORSDOF 3
ENDMDL
MODEL       84
REMARK 921   NORMALIZED FREE ENERGY PREDICTED BY IDOCK:   -3.97 KCAL/MOL
REMARK 922        TOTAL FREE ENERGY PREDICTED BY IDOCK:   -5.60 KCAL/MOL
REMARK 923 INTER-LIGAND FREE ENERGY PREDICTED BY IDOCK:   -4.72 KCAL/MOL
REMARK 924 INTRA-LIGAND FREE ENERGY PREDICTED BY IDOCK:   -0.88 KCAL/MOL
REMARK 927      BINDING AFFINITY PREDICTED BY RF-SCORE:    0.00 PKD
ROOT
HETATM    1  N   UNL     1     -12.005  13.164  63.143  1.00  0.00    -0.842 N  
HETATM    2  C   UNL     1     -12.134  13.994  64.227  1.00  0.00    -0.445 C  
HETATM    3  H2  UNL     1     -12.534  13.358  62.293  1.00  0.00     0.000 HD 
HETATM    4  H1  UNL     1     -11.386  12.353  63.177  1.00  0.00     0.000 HD 
HETATM    5  O   UNL     1     -12.881  14.970  64.187  1.00  0.00    -0.644 OA 
ENDROOT
BRANCH   2   6
HETATM    6  C   UNL     1     -11.306  13.605  65.383  1.00  0.00    -0.301 A  
HETATM    7  N   UNL     1     -10.006  13.287  65.302  1.00  0.00    -0.222 NA 
HETATM    8  N   UNL     1      -9.720  12.923  66.564  1.00  0.00    -0.253 NA 
HETATM    9  C   UNL     1     -10.790  13.106  67.381  1.00  0.00    -0.255 A  
HETATM   10  N   UNL     1     -11.813  13.517  66.674  1.00  0.00    -0.385 NA 
BRANCH   8  11
HETATM   11  C1* UNL     1      -8.410  12.440  66.956  1.00  0.00    -0.157 C  
HETATM   12  O4* UNL     1      -8.116  11.249  66.188  1.00  0.00    -0.149 OA 
HETATM   13  C4* UNL     1      -8.399  10.100  67.015  1.00  0.00    -0.125 C  
HETATM   14  C3* UNL     1      -8.225  10.549  68.467  1.00  0.00    -0.123 C  
HETATM   15  H2* UNL     1      -6.886  12.409  69.816  1.00  0.00     0.000 HD 
HETATM   16  C2* UNL     1      -8.239  12.079  68.433  1.00  0.00    -0.151 C  
HETATM   17  H3* UNL     1      -6.857  10.391  69.914  1.00  0.00     0.000 HD 
HETATM   18  O3* UNL     1      -6.965  10.112  69.013  1.00  0.00    -0.053 OA 
HETATM   19  O2* UNL     1      -6.991  12.632  68.898  1.00  0.00    -0.096 OA 
BRANCH  13  20
HETATM   20  C5* UNL     1      -9.803   9.574  66.693  1.00  0.00    -0.231 C  
HETATM   21  O5* UNL     1     -10.203  10.042  65.404  1.00  0.00    -0.289 OA 
HETATM   22  H5* UNL     1     -11.073   9.716  65.205  1.00  0.00     0.000 HD 
ENDBRANCH  13  20
ENDBRANCH   8  11
ENDBRANCH   2   6
TORSDOF 3
ENDMDL
MODEL       85
REMARK 921   NORMALIZED FREE ENERGY PREDICTED BY IDOCK:   -3.95 KCAL/MOL
REMARK 922        TOTAL FREE ENERGY PREDICTED BY IDOCK:   -5.58 KCAL/MOL
REMARK 923 INTER-LIGAND FREE ENERGY PREDICTED BY IDOCK:   -4.75 KCAL/MOL
REMARK 924 INTRA-LIGAND FREE ENERGY PREDICTED BY IDOCK:   -0.82 KCAL/MOL
REMARK 927      BINDING AFFINITY PREDICTED BY RF-SCORE:    0.00 PKD
ROOT
HETATM    1  N   UNL     1     -11.482  14.817  66.986  1.00  0.00    -0.359 N  
HETATM    2  C   UNL     1     -12.150  13.914  66.198  1.00  0.00    -0.448 C  
HETATM    3  H2  UNL     1     -11.808  15.782  67.033  1.00  0.00     0.000 HD 
HETATM    4  H1  UNL     1     -10.664  14.534  67.526  1.00  0.00     0.000 HD 
HETATM    5  O   UNL     1     -13.135  14.255  65.547  1.00  0.00    -0.639 OA 
ENDROOT
BRANCH   2   6
HETATM    6  C   UNL     1     -11.581  12.554  66.231  1.00  0.00    -0.394 A  
HETATM    7  N   UNL     1     -11.950  11.607  67.106  1.00  0.00    -0.574 NA 
HETATM    8  N   UNL     1     -11.112  10.599  66.810  1.00  0.00    -0.147 NA 
HETATM    9  C   UNL     1     -10.337  10.907  65.737  1.00  0.00    -0.241 A  
HETATM   10  N   UNL     1     -10.589  12.134  65.354  1.00  0.00    -0.263 NA 
BRANCH   8  11
HETATM   11  C1* UNL     1     -11.104   9.352  67.549  1.00  0.00     0.150 C  
HETATM   12  O4* UNL     1     -10.702   9.632  68.910  1.00  0.00    -0.218 OA 
HETATM   13  C4* UNL     1      -9.301   9.310  69.040  1.00  0.00    -0.151 C  
HETATM   14  C3* UNL     1      -8.999   8.230  67.999  1.00  0.00    -0.138 C  
HETATM   15  H2* UNL     1     -10.313   6.332  66.679  1.00  0.00     0.000 HD 
HETATM   16  C2* UNL     1     -10.173   8.260  67.017  1.00  0.00    -0.310 C  
HETATM   17  H3* UNL     1      -8.742   6.250  67.947  1.00  0.00     0.000 HD 
HETATM   18  O3* UNL     1      -8.929   6.920  68.593  1.00  0.00    -0.131 OA 
HETATM   19  O2* UNL     1     -10.891   7.010  67.009  1.00  0.00    -0.348 OA 
BRANCH  13  20
HETATM   20  C5* UNL     1      -8.467  10.585  68.870  1.00  0.00    -0.152 C  
HETATM   21  O5* UNL     1      -9.324  11.726  68.929  1.00  0.00    -0.393 OA 
HETATM   22  H5* UNL     1      -8.808  12.516  68.823  1.00  0.00     0.000 HD 
ENDBRANCH  13  20
ENDBRANCH   8  11
ENDBRANCH   2   6
TORSDOF 3
ENDMDL
MODEL       86
REMARK 921   NORMALIZED FREE ENERGY PREDICTED BY IDOCK:   -3.93 KCAL/MOL
REMARK 922        TOTAL FREE ENERGY PREDICTED BY IDOCK:   -5.56 KCAL/MOL
REMARK 923 INTER-LIGAND FREE ENERGY PREDICTED BY IDOCK:   -4.71 KCAL/MOL
REMARK 924 INTRA-LIGAND FREE ENERGY PREDICTED BY IDOCK:   -0.84 KCAL/MOL
REMARK 927      BINDING AFFINITY PREDICTED BY RF-SCORE:    0.00 PKD
ROOT
HETATM    1  N   UNL     1     -14.156   8.776  72.794  1.00  0.00    -0.804 N  
HETATM    2  C   UNL     1     -13.144   9.537  72.265  1.00  0.00    -0.408 C  
HETATM    3  H2  UNL     1     -15.011   9.228  73.117  1.00  0.00     0.000 HD 
HETATM    4  H1  UNL     1     -14.063   7.763  72.869  1.00  0.00     0.000 HD 
HETATM    5  O   UNL     1     -13.256  10.758  72.176  1.00  0.00    -0.473 OA 
ENDROOT
BRANCH   2   6
HETATM    6  C   UNL     1     -11.972   8.757  71.828  1.00  0.00    -0.349 A  
HETATM    7  N   UNL     1     -11.609   8.602  70.546  1.00  0.00    -0.200 NA 
HETATM    8  N   UNL     1     -10.566   7.759  70.643  1.00  0.00    -0.218 NA 
HETATM    9  C   UNL     1     -10.268   7.497  71.942  1.00  0.00    -0.188 A  
HETATM   10  N   UNL     1     -11.139   8.091  72.719  1.00  0.00    -0.392 NA 
BRANCH   8  11
HETATM   11  C1* UNL     1      -9.864   7.255  69.479  1.00  0.00    -0.163 C  
HETATM   12  O4* UNL     1      -8.463   7.586  69.615  1.00  0.00    -0.133 OA 
HETATM   13  C4* UNL     1      -8.201   8.765  68.824  1.00  0.00    -0.116 C  
HETATM   14  C3* UNL     1      -9.235   8.779  67.697  1.00  0.00    -0.134 C  
HETATM   15  H2* UNL     1     -10.731   7.029  66.364  1.00  0.00     0.000 HD 
HETATM   16  C2* UNL     1     -10.328   7.796  68.126  1.00  0.00    -0.200 C  
HETATM   17  H3* UNL     1      -9.314   8.333  65.752  1.00  0.00     0.000 HD 
HETATM   18  O3* UNL     1      -8.672   8.325  66.451  1.00  0.00    -0.128 OA 
HETATM   19  O2* UNL     1     -10.442   6.693  67.205  1.00  0.00    -0.215 OA 
BRANCH  13  20
HETATM   20  C5* UNL     1      -8.252  10.004  69.726  1.00  0.00    -0.178 C  
HETATM   21  O5* UNL     1      -9.523  10.641  69.588  1.00  0.00    -0.414 OA 
HETATM   22  H5* UNL     1      -9.555  11.409  70.147  1.00  0.00     0.000 HD 
ENDBRANCH  13  20
ENDBRANCH   8  11
ENDBRANCH   2   6
TORSDOF 3
ENDMDL
MODEL       87
REMARK 921   NORMALIZED FREE ENERGY PREDICTED BY IDOCK:   -3.90 KCAL/MOL
REMARK 922        TOTAL FREE ENERGY PREDICTED BY IDOCK:   -5.52 KCAL/MOL
REMARK 923 INTER-LIGAND FREE ENERGY PREDICTED BY IDOCK:   -4.64 KCAL/MOL
REMARK 924 INTRA-LIGAND FREE ENERGY PREDICTED BY IDOCK:   -0.88 KCAL/MOL
REMARK 927      BINDING AFFINITY PREDICTED BY RF-SCORE:    0.00 PKD
ROOT
HETATM    1  N   UNL     1      -9.714  12.518  66.827  1.00  0.00    -0.227 N  
HETATM    2  C   UNL     1     -10.674  11.688  67.346  1.00  0.00    -0.234 C  
HETATM    3  H2  UNL     1      -9.976  13.222  66.138  1.00  0.00     0.000 HD 
HETATM    4  H1  UNL     1      -8.740  12.441  67.123  1.00  0.00     0.000 HD 
HETATM    5  O   UNL     1     -11.847  11.781  66.990  1.00  0.00    -0.599 OA 
ENDROOT
BRANCH   2   6
HETATM    6  C   UNL     1     -10.162  10.726  68.340  1.00  0.00    -0.175 A  
HETATM    7  N   UNL     1     -10.777   9.578  68.660  1.00  0.00    -0.210 NA 
HETATM    8  N   UNL     1     -10.000   9.102  69.648  1.00  0.00    -0.183 NA 
HETATM    9  C   UNL     1      -8.915   9.896  69.843  1.00  0.00    -0.202 A  
HETATM   10  N   UNL     1      -8.988  10.937  69.053  1.00  0.00    -0.135 NA 
BRANCH   8  11
HETATM   11  C1* UNL     1     -10.308   7.875  70.356  1.00  0.00    -0.212 C  
HETATM   12  O4* UNL     1     -11.744   7.786  70.508  1.00  0.00    -0.223 OA 
HETATM   13  C4* UNL     1     -12.083   8.225  71.842  1.00  0.00    -0.332 C  
HETATM   14  C3* UNL     1     -10.860   7.952  72.719  1.00  0.00    -0.386 C  
HETATM   15  H2* UNL     1      -8.767   6.311  72.740  1.00  0.00     0.000 HD 
HETATM   16  C2* UNL     1      -9.696   7.729  71.750  1.00  0.00    -0.164 C  
HETATM   17  H3* UNL     1     -10.270   6.594  74.060  1.00  0.00     0.000 HD 
HETATM   18  O3* UNL     1     -11.029   6.763  73.516  1.00  0.00    -0.252 OA 
HETATM   19  O2* UNL     1      -9.148   6.401  71.875  1.00  0.00    -0.146 OA 
BRANCH  13  20
HETATM   20  C5* UNL     1     -12.500   9.700  71.801  1.00  0.00    -0.402 C  
HETATM   21  O5* UNL     1     -12.923  10.039  70.480  1.00  0.00    -0.557 OA 
HETATM   22  H5* UNL     1     -13.181  10.953  70.455  1.00  0.00     0.000 HD 
ENDBRANCH  13  20
ENDBRANCH   8  11
ENDBRANCH   2   6
TORSDOF 3
ENDMDL
MODEL       88
REMARK 921   NORMALIZED FREE ENERGY PREDICTED BY IDOCK:   -3.89 KCAL/MOL
REMARK 922        TOTAL FREE ENERGY PREDICTED BY IDOCK:   -5.51 KCAL/MOL
REMARK 923 INTER-LIGAND FREE ENERGY PREDICTED BY IDOCK:   -4.61 KCAL/MOL
REMARK 924 INTRA-LIGAND FREE ENERGY PREDICTED BY IDOCK:   -0.90 KCAL/MOL
REMARK 927      BINDING AFFINITY PREDICTED BY RF-SCORE:    0.00 PKD
ROOT
HETATM    1  N   UNL     1     -12.855   6.982  71.484  1.00  0.00    -0.385 N  
HETATM    2  C   UNL     1     -11.599   7.301  71.932  1.00  0.00    -0.277 C  
HETATM    3  H2  UNL     1     -13.378   6.235  71.941  1.00  0.00     0.000 HD 
HETATM    4  H1  UNL     1     -13.274   7.483  70.700  1.00  0.00     0.000 HD 
HETATM    5  O   UNL     1     -11.094   6.698  72.877  1.00  0.00    -0.255 OA 
ENDROOT
BRANCH   2   6
HETATM    6  C   UNL     1     -10.961   8.406  71.192  1.00  0.00    -0.244 A  
HETATM    7  N   UNL     1     -11.635   9.307  70.461  1.00  0.00    -0.250 NA 
HETATM    8  N   UNL     1     -10.643  10.035  69.919  1.00  0.00    -0.263 NA 
HETATM    9  C   UNL     1      -9.431   9.636  70.385  1.00  0.00    -0.222 A  
HETATM   10  N   UNL     1      -9.586   8.602  71.174  1.00  0.00    -0.199 NA 
BRANCH   8  11
HETATM   11  C1* UNL     1     -10.895  11.121  68.992  1.00  0.00    -0.231 C  
HETATM   12  O4* UNL     1     -11.608  10.588  67.851  1.00  0.00    -0.461 OA 
HETATM   13  C4* UNL     1     -10.656  10.369  66.788  1.00  0.00    -0.205 C  
HETATM   14  C3* UNL     1      -9.511  11.359  67.011  1.00  0.00    -0.173 C  
HETATM   15  H2* UNL     1      -9.135  13.719  68.179  1.00  0.00     0.000 HD 
HETATM   16  C2* UNL     1      -9.660  11.848  68.454  1.00  0.00    -0.196 C  
HETATM   17  H3* UNL     1      -8.897  13.109  66.268  1.00  0.00     0.000 HD 
HETATM   18  O3* UNL     1      -9.607  12.494  66.129  1.00  0.00    -0.249 OA 
HETATM   19  O2* UNL     1      -9.902  13.268  68.512  1.00  0.00    -0.227 OA 
BRANCH  13  20
HETATM   20  C5* UNL     1     -10.215   8.901  66.794  1.00  0.00    -0.278 C  
HETATM   21  O5* UNL     1     -11.118   8.136  67.594  1.00  0.00    -0.492 OA 
HETATM   22  H5* UNL     1     -10.845   7.226  67.598  1.00  0.00     0.000 HD 
ENDBRANCH  13  20
ENDBRANCH   8  11
ENDBRANCH   2   6
TORSDOF 3
ENDMDL
MODEL       89
REMARK 921   NORMALIZED FREE ENERGY PREDICTED BY IDOCK:   -3.88 KCAL/MOL
REMARK 922        TOTAL FREE ENERGY PREDICTED BY IDOCK:   -5.49 KCAL/MOL
REMARK 923 INTER-LIGAND FREE ENERGY PREDICTED BY IDOCK:   -5.20 KCAL/MOL
REMARK 924 INTRA-LIGAND FREE ENERGY PREDICTED BY IDOCK:   -0.29 KCAL/MOL
REMARK 927      BINDING AFFINITY PREDICTED BY RF-SCORE:    0.00 PKD
ROOT
HETATM    1  N   UNL     1     -11.738  15.428  64.145  1.00  0.00    -0.851 N  
HETATM    2  C   UNL     1     -10.807  15.000  65.058  1.00  0.00    -0.422 C  
HETATM    3  H2  UNL     1     -12.207  14.748  63.548  1.00  0.00     0.000 HD 
HETATM    4  H1  UNL     1     -11.966  16.418  64.057  1.00  0.00     0.000 HD 
HETATM    5  O   UNL     1     -10.531  13.807  65.163  1.00  0.00    -0.340 OA 
ENDROOT
BRANCH   2   6
HETATM    6  C   UNL     1     -10.215  16.084  65.863  1.00  0.00    -0.365 A  
HETATM    7  N   UNL     1      -9.165  16.822  65.473  1.00  0.00    -0.313 NA 
HETATM    8  N   UNL     1      -8.941  17.595  66.550  1.00  0.00    -0.276 NA 
HETATM    9  C   UNL     1      -9.881  17.384  67.507  1.00  0.00    -0.277 A  
HETATM   10  N   UNL     1     -10.691  16.429  67.122  1.00  0.00    -0.279 NA 
BRANCH   8  11
HETATM   11  C1* UNL     1      -7.845  18.541  66.612  1.00  0.00    -0.252 C  
HETATM   12  O4* UNL     1      -6.618  17.803  66.817  1.00  0.00    -0.160 OA 
HETATM   13  C4* UNL     1      -6.286  17.864  68.221  1.00  0.00    -0.178 C  
HETATM   14  C3* UNL     1      -6.903  19.155  68.764  1.00  0.00    -0.307 C  
HETATM   15  H2* UNL     1      -7.643  21.535  67.837  1.00  0.00     0.000 HD 
HETATM   16  C2* UNL     1      -7.928  19.597  67.717  1.00  0.00    -0.302 C  
HETATM   17  H3* UNL     1      -6.301  20.997  69.248  1.00  0.00     0.000 HD 
HETATM   18  O3* UNL     1      -5.918  20.196  68.912  1.00  0.00    -0.261 OA 
HETATM   19  O2* UNL     1      -7.591  20.880  67.152  1.00  0.00    -0.327 OA 
BRANCH  13  20
HETATM   20  C5* UNL     1      -6.791  16.595  68.919  1.00  0.00    -0.191 C  
HETATM   21  O5* UNL     1      -5.776  15.591  68.875  1.00  0.00    -0.100 OA 
HETATM   22  H5* UNL     1      -6.089  14.805  69.307  1.00  0.00     0.000 HD 
ENDBRANCH  13  20
ENDBRANCH   8  11
ENDBRANCH   2   6
TORSDOF 3
ENDMDL
MODEL       90
REMARK 921   NORMALIZED FREE ENERGY PREDICTED BY IDOCK:   -3.88 KCAL/MOL
REMARK 922        TOTAL FREE ENERGY PREDICTED BY IDOCK:   -5.49 KCAL/MOL
REMARK 923 INTER-LIGAND FREE ENERGY PREDICTED BY IDOCK:   -4.93 KCAL/MOL
REMARK 924 INTRA-LIGAND FREE ENERGY PREDICTED BY IDOCK:   -0.56 KCAL/MOL
REMARK 927      BINDING AFFINITY PREDICTED BY RF-SCORE:    0.00 PKD
ROOT
HETATM    1  N   UNL     1     -11.375   7.994  69.410  1.00  0.00    -0.356 N  
HETATM    2  C   UNL     1     -10.149   8.603  69.507  1.00  0.00    -0.203 C  
HETATM    3  H2  UNL     1     -11.495   7.045  69.763  1.00  0.00     0.000 HD 
HETATM    4  H1  UNL     1     -12.167   8.480  68.989  1.00  0.00     0.000 HD 
HETATM    5  O   UNL     1      -9.194   8.017  70.013  1.00  0.00    -0.154 OA 
ENDROOT
BRANCH   2   6
HETATM    6  C   UNL     1     -10.117   9.975  68.969  1.00  0.00    -0.200 A  
HETATM    7  N   UNL     1     -11.156  10.568  68.363  1.00  0.00    -0.266 NA 
HETATM    8  N   UNL     1     -10.630  11.743  67.975  1.00  0.00    -0.199 NA 
HETATM    9  C   UNL     1      -9.352  11.876  68.416  1.00  0.00    -0.184 A  
HETATM   10  N   UNL     1      -8.985  10.779  69.030  1.00  0.00    -0.160 NA 
BRANCH   8  11
HETATM   11  C1* UNL     1     -11.386  12.721  67.218  1.00  0.00    -0.314 C  
HETATM   12  O4* UNL     1     -11.969  12.058  66.073  1.00  0.00    -0.559 OA 
HETATM   13  C4* UNL     1     -11.139  12.332  64.924  1.00  0.00    -0.311 C  
HETATM   14  C3* UNL     1     -10.444  13.668  65.191  1.00  0.00    -0.374 C  
HETATM   15  H2* UNL     1     -10.869  15.866  66.628  1.00  0.00     0.000 HD 
HETATM   16  C2* UNL     1     -10.598  13.923  66.693  1.00  0.00    -0.274 C  
HETATM   17  H3* UNL     1     -10.641  15.579  64.641  1.00  0.00     0.000 HD 
HETATM   18  O3* UNL     1     -11.072  14.749  64.475  1.00  0.00    -0.336 OA 
HETATM   19  O2* UNL     1     -11.359  15.120  66.954  1.00  0.00    -0.333 OA 
BRANCH  13  20
HETATM   20  C5* UNL     1     -10.170  11.164  64.706  1.00  0.00    -0.306 C  
HETATM   21  O5* UNL     1      -8.856  11.554  65.106  1.00  0.00    -0.397 OA 
HETATM   22  H5* UNL     1      -8.255  10.830  64.971  1.00  0.00     0.000 HD 
ENDBRANCH  13  20
ENDBRANCH   8  11
ENDBRANCH   2   6
TORSDOF 3
ENDMDL
MODEL       91
REMARK 921   NORMALIZED FREE ENERGY PREDICTED BY IDOCK:   -3.85 KCAL/MOL
REMARK 922        TOTAL FREE ENERGY PREDICTED BY IDOCK:   -5.46 KCAL/MOL
REMARK 923 INTER-LIGAND FREE ENERGY PREDICTED BY IDOCK:   -4.61 KCAL/MOL
REMARK 924 INTRA-LIGAND FREE ENERGY PREDICTED BY IDOCK:   -0.85 KCAL/MOL
REMARK 927      BINDING AFFINITY PREDICTED BY RF-SCORE:    0.00 PKD
ROOT
HETATM    1  N   UNL     1     -11.420  15.312  68.396  1.00  0.00    -0.332 N  
HETATM    2  C   UNL     1     -10.816  15.197  67.170  1.00  0.00    -0.320 C  
HETATM    3  H2  UNL     1     -11.938  14.521  68.779  1.00  0.00     0.000 HD 
HETATM    4  H1  UNL     1     -11.358  16.180  68.930  1.00  0.00     0.000 HD 
HETATM    5  O   UNL     1     -10.891  14.153  66.527  1.00  0.00    -0.293 OA 
ENDROOT
BRANCH   2   6
HETATM    6  C   UNL     1     -10.094  16.409  66.741  1.00  0.00    -0.285 A  
HETATM    7  N   UNL     1      -8.814  16.418  66.342  1.00  0.00    -0.282 NA 
HETATM    8  N   UNL     1      -8.583  17.728  66.147  1.00  0.00    -0.488 NA 
HETATM    9  C   UNL     1      -9.712  18.458  66.338  1.00  0.00    -0.339 A  
HETATM   10  N   UNL     1     -10.681  17.668  66.730  1.00  0.00    -0.203 NA 
BRANCH   8  11
HETATM   11  C1* UNL     1      -7.285  18.237  65.749  1.00  0.00    -0.183 C  
HETATM   12  O4* UNL     1      -6.339  17.945  66.803  1.00  0.00    -0.156 OA 
HETATM   13  C4* UNL     1      -6.170  19.138  67.599  1.00  0.00    -0.200 C  
HETATM   14  C3* UNL     1      -6.471  20.325  66.682  1.00  0.00    -0.214 C  
HETATM   15  H2* UNL     1      -6.421  20.879  64.081  1.00  0.00     0.000 HD 
HETATM   16  C2* UNL     1      -7.207  19.740  65.473  1.00  0.00    -0.252 C  
HETATM   17  H3* UNL     1      -5.451  21.700  65.652  1.00  0.00     0.000 HD 
HETATM   18  O3* UNL     1      -5.264  20.963  66.221  1.00  0.00    -0.173 OA 
HETATM   19  O2* UNL     1      -6.469  19.945  64.252  1.00  0.00    -0.316 OA 
BRANCH  13  20
HETATM   20  C5* UNL     1      -7.080  19.061  68.831  1.00  0.00    -0.328 C  
HETATM   21  O5* UNL     1      -7.558  17.725  68.986  1.00  0.00    -0.247 OA 
HETATM   22  H5* UNL     1      -8.122  17.676  69.749  1.00  0.00     0.000 HD 
ENDBRANCH  13  20
ENDBRANCH   8  11
ENDBRANCH   2   6
TORSDOF 3
ENDMDL
MODEL       92
REMARK 921   NORMALIZED FREE ENERGY PREDICTED BY IDOCK:   -3.83 KCAL/MOL
REMARK 922        TOTAL FREE ENERGY PREDICTED BY IDOCK:   -5.43 KCAL/MOL
REMARK 923 INTER-LIGAND FREE ENERGY PREDICTED BY IDOCK:   -4.51 KCAL/MOL
REMARK 924 INTRA-LIGAND FREE ENERGY PREDICTED BY IDOCK:   -0.93 KCAL/MOL
REMARK 927      BINDING AFFINITY PREDICTED BY RF-SCORE:    0.00 PKD
ROOT
HETATM    1  N   UNL     1     -10.750  18.182  67.360  1.00  0.00    -0.384 N  
HETATM    2  C   UNL     1      -9.945  17.388  68.136  1.00  0.00    -0.308 C  
HETATM    3  H2  UNL     1     -10.442  19.122  67.112  1.00  0.00     0.000 HD 
HETATM    4  H1  UNL     1     -11.653  17.844  67.027  1.00  0.00     0.000 HD 
HETATM    5  O   UNL     1      -8.857  17.796  68.537  1.00  0.00    -0.282 OA 
ENDROOT
BRANCH   2   6
HETATM    6  C   UNL     1     -10.505  16.051  68.409  1.00  0.00    -0.263 A  
HETATM    7  N   UNL     1      -9.761  14.958  68.636  1.00  0.00    -0.219 NA 
HETATM    8  N   UNL     1     -10.692  13.994  68.737  1.00  0.00    -0.256 NA 
HETATM    9  C   UNL     1     -11.945  14.514  68.663  1.00  0.00    -0.285 A  
HETATM   10  N   UNL     1     -11.871  15.802  68.439  1.00  0.00    -0.272 NA 
BRANCH   8  11
HETATM   11  C1* UNL     1     -10.349  12.600  68.937  1.00  0.00    -0.031 C  
HETATM   12  O4* UNL     1      -9.304  12.250  68.000  1.00  0.00    -0.183 OA 
HETATM   13  C4* UNL     1      -9.913  11.574  66.879  1.00  0.00    -0.205 C  
HETATM   14  C3* UNL     1     -11.192  10.918  67.403  1.00  0.00    -0.273 C  
HETATM   15  H2* UNL     1     -12.151  10.021  69.716  1.00  0.00     0.000 HD 
HETATM   16  C2* UNL     1     -11.484  11.592  68.747  1.00  0.00    -0.287 C  
HETATM   17  H3* UNL     1     -11.809   9.099  67.951  1.00  0.00     0.000 HD 
HETATM   18  O3* UNL     1     -11.015   9.506  67.626  1.00  0.00    -0.248 OA 
HETATM   19  O2* UNL     1     -11.446  10.647  69.834  1.00  0.00    -0.266 OA 
BRANCH  13  20
HETATM   20  C5* UNL     1     -10.152  12.579  65.747  1.00  0.00    -0.262 C  
HETATM   21  O5* UNL     1      -9.346  13.739  65.961  1.00  0.00    -0.483 OA 
HETATM   22  H5* UNL     1      -9.494  14.362  65.260  1.00  0.00     0.000 HD 
ENDBRANCH  13  20
ENDBRANCH   8  11
ENDBRANCH   2   6
TORSDOF 3
ENDMDL
MODEL       93
REMARK 921   NORMALIZED FREE ENERGY PREDICTED BY IDOCK:   -3.82 KCAL/MOL
REMARK 922        TOTAL FREE ENERGY PREDICTED BY IDOCK:   -5.42 KCAL/MOL
REMARK 923 INTER-LIGAND FREE ENERGY PREDICTED BY IDOCK:   -4.64 KCAL/MOL
REMARK 924 INTRA-LIGAND FREE ENERGY PREDICTED BY IDOCK:   -0.78 KCAL/MOL
REMARK 927      BINDING AFFINITY PREDICTED BY RF-SCORE:    0.00 PKD
ROOT
HETATM    1  N   UNL     1     -14.198   8.586  71.143  1.00  0.00    -0.637 N  
HETATM    2  C   UNL     1     -13.157   9.433  71.429  1.00  0.00    -0.347 C  
HETATM    3  H2  UNL     1     -15.148   8.849  71.406  1.00  0.00     0.000 HD 
HETATM    4  H1  UNL     1     -14.034   7.697  70.670  1.00  0.00     0.000 HD 
HETATM    5  O   UNL     1     -13.355  10.504  71.999  1.00  0.00    -0.434 OA 
ENDROOT
BRANCH   2   6
HETATM    6  C   UNL     1     -11.842   8.936  70.985  1.00  0.00    -0.276 A  
HETATM    7  N   UNL     1     -11.572   7.647  70.733  1.00  0.00    -0.284 NA 
HETATM    8  N   UNL     1     -10.257   7.677  70.457  1.00  0.00    -0.200 NA 
HETATM    9  C   UNL     1      -9.787   8.952  70.456  1.00  0.00    -0.200 A  
HETATM   10  N   UNL     1     -10.748   9.772  70.801  1.00  0.00    -0.321 NA 
BRANCH   8  11
HETATM   11  C1* UNL     1      -9.496   6.478  70.167  1.00  0.00    -0.157 C  
HETATM   12  O4* UNL     1      -8.586   6.768  69.080  1.00  0.00    -0.129 OA 
HETATM   13  C4* UNL     1      -9.171   6.268  67.858  1.00  0.00    -0.116 C  
HETATM   14  C3* UNL     1     -10.088   5.108  68.252  1.00  0.00    -0.134 C  
HETATM   15  H2* UNL     1     -10.305   3.340  70.227  1.00  0.00     0.000 HD 
HETATM   16  C2* UNL     1     -10.308   5.246  69.761  1.00  0.00    -0.299 C  
HETATM   17  H3* UNL     1     -10.043   3.111  68.237  1.00  0.00     0.000 HD 
HETATM   18  O3* UNL     1      -9.474   3.830  67.992  1.00  0.00    -0.174 OA 
HETATM   19  O2* UNL     1      -9.800   4.104  70.479  1.00  0.00    -0.204 OA 
BRANCH  13  20
HETATM   20  C5* UNL     1      -9.894   7.410  67.135  1.00  0.00    -0.193 C  
HETATM   21  O5* UNL     1     -11.271   7.418  67.513  1.00  0.00    -0.535 OA 
HETATM   22  H5* UNL     1     -11.719   8.125  67.065  1.00  0.00     0.000 HD 
ENDBRANCH  13  20
ENDBRANCH   8  11
ENDBRANCH   2   6
TORSDOF 3
ENDMDL
MODEL       94
REMARK 921   NORMALIZED FREE ENERGY PREDICTED BY IDOCK:   -3.82 KCAL/MOL
REMARK 922        TOTAL FREE ENERGY PREDICTED BY IDOCK:   -5.42 KCAL/MOL
REMARK 923 INTER-LIGAND FREE ENERGY PREDICTED BY IDOCK:   -4.52 KCAL/MOL
REMARK 924 INTRA-LIGAND FREE ENERGY PREDICTED BY IDOCK:   -0.90 KCAL/MOL
REMARK 927      BINDING AFFINITY PREDICTED BY RF-SCORE:    0.00 PKD
ROOT
HETATM    1  N   UNL     1     -10.708  15.695  66.240  1.00  0.00    -0.309 N  
HETATM    2  C   UNL     1     -10.777  14.482  65.604  1.00  0.00    -0.327 C  
HETATM    3  H2  UNL     1     -10.870  16.551  65.711  1.00  0.00     0.000 HD 
HETATM    4  H1  UNL     1     -10.495  15.751  67.237  1.00  0.00     0.000 HD 
HETATM    5  O   UNL     1     -11.032  14.414  64.404  1.00  0.00    -0.312 OA 
ENDROOT
BRANCH   2   6
HETATM    6  C   UNL     1     -10.532  13.327  66.488  1.00  0.00    -0.281 A  
HETATM    7  N   UNL     1     -11.473  12.437  66.838  1.00  0.00    -0.339 NA 
HETATM    8  N   UNL     1     -10.813  11.647  67.702  1.00  0.00    -0.213 NA 
HETATM    9  C   UNL     1      -9.505  12.002  67.789  1.00  0.00    -0.190 A  
HETATM   10  N   UNL     1      -9.291  13.065  67.054  1.00  0.00    -0.229 NA 
BRANCH   8  11
HETATM   11  C1* UNL     1     -11.455  10.547  68.395  1.00  0.00    -0.214 C  
HETATM   12  O4* UNL     1     -12.693  11.031  68.967  1.00  0.00    -0.260 OA 
HETATM   13  C4* UNL     1     -12.462  11.314  70.364  1.00  0.00    -0.271 C  
HETATM   14  C3* UNL     1     -11.318  10.403  70.815  1.00  0.00    -0.284 C  
HETATM   15  H2* UNL     1     -10.248   8.073  70.106  1.00  0.00     0.000 HD 
HETATM   16  C2* UNL     1     -10.653   9.905  69.529  1.00  0.00    -0.242 C  
HETATM   17  H3* UNL     1     -11.092   8.699  71.832  1.00  0.00     0.000 HD 
HETATM   18  O3* UNL     1     -11.801   9.264  71.553  1.00  0.00    -0.321 OA 
HETATM   19  O2* UNL     1     -10.746   8.472  69.403  1.00  0.00    -0.222 OA 
BRANCH  13  20
HETATM   20  C5* UNL     1     -12.169  12.808  70.539  1.00  0.00    -0.307 C  
HETATM   21  O5* UNL     1     -12.528  13.507  69.347  1.00  0.00    -0.199 OA 
HETATM   22  H5* UNL     1     -12.346  14.433  69.455  1.00  0.00     0.000 HD 
ENDBRANCH  13  20
ENDBRANCH   8  11
ENDBRANCH   2   6
TORSDOF 3
ENDMDL
MODEL       95
REMARK 921   NORMALIZED FREE ENERGY PREDICTED BY IDOCK:   -3.81 KCAL/MOL
REMARK 922        TOTAL FREE ENERGY PREDICTED BY IDOCK:   -5.41 KCAL/MOL
REMARK 923 INTER-LIGAND FREE ENERGY PREDICTED BY IDOCK:   -4.98 KCAL/MOL
REMARK 924 INTRA-LIGAND FREE ENERGY PREDICTED BY IDOCK:   -0.43 KCAL/MOL
REMARK 927      BINDING AFFINITY PREDICTED BY RF-SCORE:    0.00 PKD
ROOT
HETATM    1  N   UNL     1      -9.125   3.447  70.075  1.00  0.00    -0.113 N  
HETATM    2  C   UNL     1      -9.822   4.228  70.961  1.00  0.00    -0.181 C  
HETATM    3  H2  UNL     1      -8.839   2.506  70.347  1.00  0.00     0.000 HD 
HETATM    4  H1  UNL     1      -8.887   3.795  69.145  1.00  0.00     0.000 HD 
HETATM    5  O   UNL     1     -10.107   3.808  72.081  1.00  0.00    -0.170 OA 
ENDROOT
BRANCH   2   6
HETATM    6  C   UNL     1     -10.180   5.558  70.435  1.00  0.00    -0.251 A  
HETATM    7  N   UNL     1      -9.765   6.714  70.973  1.00  0.00    -0.175 NA 
HETATM    8  N   UNL     1     -10.409   7.626  70.223  1.00  0.00    -0.210 NA 
HETATM    9  C   UNL     1     -11.107   7.031  69.221  1.00  0.00    -0.127 A  
HETATM   10  N   UNL     1     -11.004   5.730  69.330  1.00  0.00    -0.318 NA 
BRANCH   8  11
HETATM   11  C1* UNL     1     -10.305   9.050  70.473  1.00  0.00    -0.218 C  
HETATM   12  O4* UNL     1     -10.726   9.305  71.834  1.00  0.00    -0.339 OA 
HETATM   13  C4* UNL     1     -12.094   9.769  71.801  1.00  0.00    -0.346 C  
HETATM   14  C3* UNL     1     -12.302  10.430  70.437  1.00  0.00    -0.286 C  
HETATM   15  H2* UNL     1     -10.829  11.622  68.571  1.00  0.00     0.000 HD 
HETATM   16  C2* UNL     1     -11.137   9.957  69.564  1.00  0.00    -0.217 C  
HETATM   17  H3* UNL     1     -12.383  12.277  69.682  1.00  0.00     0.000 HD 
HETATM   18  O3* UNL     1     -12.254  11.867  70.529  1.00  0.00    -0.362 OA 
HETATM   19  O2* UNL     1     -10.312  11.059  69.136  1.00  0.00    -0.214 OA 
BRANCH  13  20
HETATM   20  C5* UNL     1     -13.037   8.590  72.068  1.00  0.00    -0.371 C  
HETATM   21  O5* UNL     1     -13.872   8.891  73.187  1.00  0.00    -1.084 OA 
HETATM   22  H5* UNL     1     -14.457   8.161  73.352  1.00  0.00     0.000 HD 
ENDBRANCH  13  20
ENDBRANCH   8  11
ENDBRANCH   2   6
TORSDOF 3
ENDMDL
MODEL       96
REMARK 921   NORMALIZED FREE ENERGY PREDICTED BY IDOCK:   -3.79 KCAL/MOL
REMARK 922        TOTAL FREE ENERGY PREDICTED BY IDOCK:   -5.39 KCAL/MOL
REMARK 923 INTER-LIGAND FREE ENERGY PREDICTED BY IDOCK:   -5.14 KCAL/MOL
REMARK 924 INTRA-LIGAND FREE ENERGY PREDICTED BY IDOCK:   -0.25 KCAL/MOL
REMARK 927      BINDING AFFINITY PREDICTED BY RF-SCORE:    0.00 PKD
ROOT
HETATM    1  N   UNL     1     -14.289   8.168  71.033  1.00  0.00    -0.664 N  
HETATM    2  C   UNL     1     -13.541   9.070  71.747  1.00  0.00    -0.413 C  
HETATM    3  H2  UNL     1     -15.158   7.809  71.428  1.00  0.00     0.000 HD 
HETATM    4  H1  UNL     1     -13.987   7.852  70.111  1.00  0.00     0.000 HD 
HETATM    5  O   UNL     1     -13.905   9.450  72.857  1.00  0.00    -0.274 OA 
ENDROOT
BRANCH   2   6
HETATM    6  C   UNL     1     -12.317   9.514  71.055  1.00  0.00    -0.282 A  
HETATM    7  N   UNL     1     -12.313  10.287  69.959  1.00  0.00    -0.155 NA 
HETATM    8  N   UNL     1     -11.005  10.344  69.653  1.00  0.00    -0.258 NA 
HETATM    9  C   UNL     1     -10.256   9.702  70.587  1.00  0.00    -0.278 A  
HETATM   10  N   UNL     1     -11.044   9.151  71.476  1.00  0.00    -0.341 NA 
BRANCH   8  11
HETATM   11  C1* UNL     1     -10.511  11.046  68.485  1.00  0.00    -0.189 C  
HETATM   12  O4* UNL     1     -10.028  12.344  68.904  1.00  0.00    -0.083 OA 
HETATM   13  C4* UNL     1     -11.054  13.319  68.619  1.00  0.00    -0.268 C  
HETATM   14  C3* UNL     1     -11.871  12.769  67.447  1.00  0.00    -0.342 C  
HETATM   15  H2* UNL     1     -11.525  11.098  65.407  1.00  0.00     0.000 HD 
HETATM   16  C2* UNL     1     -11.522  11.280  67.361  1.00  0.00    -0.221 C  
HETATM   17  H3* UNL     1     -12.016  13.057  65.476  1.00  0.00     0.000 HD 
HETATM   18  O3* UNL     1     -11.509  13.399  66.203  1.00  0.00    -0.311 OA 
HETATM   19  O2* UNL     1     -10.896  10.953  66.104  1.00  0.00    -0.202 OA 
BRANCH  13  20
HETATM   20  C5* UNL     1     -11.882  13.572  69.885  1.00  0.00    -0.316 C  
HETATM   21  O5* UNL     1     -12.600  14.799  69.747  1.00  0.00    -0.541 OA 
HETATM   22  H5* UNL     1     -13.113  14.956  70.531  1.00  0.00     0.000 HD 
ENDBRANCH  13  20
ENDBRANCH   8  11
ENDBRANCH   2   6
TORSDOF 3
ENDMDL
MODEL       97
REMARK 921   NORMALIZED FREE ENERGY PREDICTED BY IDOCK:   -3.79 KCAL/MOL
REMARK 922        TOTAL FREE ENERGY PREDICTED BY IDOCK:   -5.39 KCAL/MOL
REMARK 923 INTER-LIGAND FREE ENERGY PREDICTED BY IDOCK:   -4.50 KCAL/MOL
REMARK 924 INTRA-LIGAND FREE ENERGY PREDICTED BY IDOCK:   -0.88 KCAL/MOL
REMARK 927      BINDING AFFINITY PREDICTED BY RF-SCORE:    0.00 PKD
ROOT
HETATM    1  N   UNL     1     -10.536   8.395  72.626  1.00  0.00    -0.304 N  
HETATM    2  C   UNL     1     -11.268   8.060  71.516  1.00  0.00    -0.255 C  
HETATM    3  H2  UNL     1     -10.351   7.690  73.340  1.00  0.00     0.000 HD 
HETATM    4  H1  UNL     1     -10.173   9.341  72.747  1.00  0.00     0.000 HD 
HETATM    5  O   UNL     1     -11.705   6.920  71.371  1.00  0.00    -0.280 OA 
ENDROOT
BRANCH   2   6
HETATM    6  C   UNL     1     -11.451   9.168  70.561  1.00  0.00    -0.229 A  
HETATM    7  N   UNL     1     -11.124   9.101  69.262  1.00  0.00    -0.059 NA 
HETATM    8  N   UNL     1     -11.381  10.350  68.836  1.00  0.00    -0.241 NA 
HETATM    9  C   UNL     1     -11.925  11.103  69.828  1.00  0.00    -0.357 A  
HETATM   10  N   UNL     1     -11.970  10.402  70.934  1.00  0.00    -0.348 NA 
BRANCH   8  11
HETATM   11  C1* UNL     1     -11.126  10.774  67.474  1.00  0.00    -0.308 C  
HETATM   12  O4* UNL     1      -9.710  10.633  67.211  1.00  0.00    -0.164 OA 
HETATM   13  C4* UNL     1      -9.094  11.931  67.357  1.00  0.00    -0.178 C  
HETATM   14  C3* UNL     1     -10.176  12.969  67.053  1.00  0.00    -0.245 C  
HETATM   15  H2* UNL     1     -12.437  13.119  65.660  1.00  0.00     0.000 HD 
HETATM   16  C2* UNL     1     -11.507  12.217  67.135  1.00  0.00    -0.346 C  
HETATM   17  H3* UNL     1     -10.707  14.156  65.536  1.00  0.00     0.000 HD 
HETATM   18  O3* UNL     1     -10.036  13.512  65.725  1.00  0.00    -0.284 OA 
HETATM   19  O2* UNL     1     -12.200  12.223  65.870  1.00  0.00    -0.634 OA 
BRANCH  13  20
HETATM   20  C5* UNL     1      -8.495  12.055  68.763  1.00  0.00     0.068 C  
HETATM   21  O5* UNL     1      -8.418  10.761  69.364  1.00  0.00    -0.340 OA 
HETATM   22  H5* UNL     1      -8.047  10.838  70.235  1.00  0.00     0.000 HD 
ENDBRANCH  13  20
ENDBRANCH   8  11
ENDBRANCH   2   6
TORSDOF 3
ENDMDL
MODEL       98
REMARK 921   NORMALIZED FREE ENERGY PREDICTED BY IDOCK:   -3.78 KCAL/MOL
REMARK 922        TOTAL FREE ENERGY PREDICTED BY IDOCK:   -5.37 KCAL/MOL
REMARK 923 INTER-LIGAND FREE ENERGY PREDICTED BY IDOCK:   -4.85 KCAL/MOL
REMARK 924 INTRA-LIGAND FREE ENERGY PREDICTED BY IDOCK:   -0.52 KCAL/MOL
REMARK 927      BINDING AFFINITY PREDICTED BY RF-SCORE:    0.00 PKD
ROOT
HETATM    1  N   UNL     1     -12.882  14.763  64.394  1.00  0.00    -0.482 N  
HETATM    2  C   UNL     1     -11.752  15.513  64.601  1.00  0.00    -0.226 C  
HETATM    3  H2  UNL     1     -13.658  15.158  63.864  1.00  0.00     0.000 HD 
HETATM    4  H1  UNL     1     -12.955  13.815  64.763  1.00  0.00     0.000 HD 
HETATM    5  O   UNL     1     -11.665  16.656  64.156  1.00  0.00    -1.034 OA 
ENDROOT
BRANCH   2   6
HETATM    6  C   UNL     1     -10.704  14.819  65.372  1.00  0.00    -0.371 A  
HETATM    7  N   UNL     1     -10.558  13.486  65.408  1.00  0.00    -0.297 NA 
HETATM    8  N   UNL     1      -9.556  13.331  66.290  1.00  0.00    -0.263 NA 
HETATM    9  C   UNL     1      -9.067  14.533  66.692  1.00  0.00    -0.251 A  
HETATM   10  N   UNL     1      -9.774  15.494  66.151  1.00  0.00    -0.293 NA 
BRANCH   8  11
HETATM   11  C1* UNL     1      -9.074  12.026  66.697  1.00  0.00    -0.205 C  
HETATM   12  O4* UNL     1     -10.135  11.064  66.491  1.00  0.00    -0.211 OA 
HETATM   13  C4* UNL     1     -10.783  10.830  67.760  1.00  0.00    -0.251 C  
HETATM   14  C3* UNL     1      -9.740  11.110  68.844  1.00  0.00    -0.150 C  
HETATM   15  H2* UNL     1      -7.092  11.105  69.090  1.00  0.00     0.000 HD 
HETATM   16  C2* UNL     1      -8.624  11.897  68.154  1.00  0.00    -0.165 C  
HETATM   17  H3* UNL     1      -8.535  10.065  70.048  1.00  0.00     0.000 HD 
HETATM   18  O3* UNL     1      -9.183   9.892  69.375  1.00  0.00    -0.186 OA 
HETATM   19  O2* UNL     1      -7.371  11.184  68.186  1.00  0.00    -0.081 OA 
BRANCH  13  20
HETATM   20  C5* UNL     1     -12.034  11.710  67.863  1.00  0.00    -0.089 C  
HETATM   21  O5* UNL     1     -11.655  13.034  68.242  1.00  0.00    -0.295 OA 
HETATM   22  H5* UNL     1     -12.430  13.580  68.306  1.00  0.00     0.000 HD 
ENDBRANCH  13  20
ENDBRANCH   8  11
ENDBRANCH   2   6
TORSDOF 3
ENDMDL
MODEL       99
REMARK 921   NORMALIZED FREE ENERGY PREDICTED BY IDOCK:   -3.76 KCAL/MOL
REMARK 922        TOTAL FREE ENERGY PREDICTED BY IDOCK:   -5.35 KCAL/MOL
REMARK 923 INTER-LIGAND FREE ENERGY PREDICTED BY IDOCK:   -4.55 KCAL/MOL
REMARK 924 INTRA-LIGAND FREE ENERGY PREDICTED BY IDOCK:   -0.80 KCAL/MOL
REMARK 927      BINDING AFFINITY PREDICTED BY RF-SCORE:    0.00 PKD
ROOT
HETATM    1  N   UNL     1      -5.249  17.490  69.740  1.00  0.00    -0.179 N  
HETATM    2  C   UNL     1      -5.803  16.778  68.707  1.00  0.00    -0.141 C  
HETATM    3  H2  UNL     1      -4.284  17.310  70.016  1.00  0.00     0.000 HD 
HETATM    4  H1  UNL     1      -5.791  18.198  70.236  1.00  0.00     0.000 HD 
HETATM    5  O   UNL     1      -5.150  15.925  68.109  1.00  0.00    -0.097 OA 
ENDROOT
BRANCH   2   6
HETATM    6  C   UNL     1      -7.199  17.146  68.405  1.00  0.00    -0.209 A  
HETATM    7  N   UNL     1      -8.021  16.410  67.643  1.00  0.00    -0.146 NA 
HETATM    8  N   UNL     1      -9.123  17.178  67.585  1.00  0.00    -0.225 NA 
HETATM    9  C   UNL     1      -8.988  18.286  68.360  1.00  0.00    -0.309 A  
HETATM   10  N   UNL     1      -7.786  18.312  68.879  1.00  0.00    -0.246 NA 
BRANCH   8  11
HETATM   11  C1* UNL     1     -10.290  16.806  66.810  1.00  0.00    -0.293 C  
HETATM   12  O4* UNL     1     -11.384  16.559  67.724  1.00  0.00    -0.172 OA 
HETATM   13  C4* UNL     1     -11.494  15.132  67.918  1.00  0.00    -0.332 C  
HETATM   14  C3* UNL     1     -10.940  14.472  66.654  1.00  0.00    -0.321 C  
HETATM   15  H2* UNL     1     -10.611  15.078  64.086  1.00  0.00     0.000 HD 
HETATM   16  C2* UNL     1     -10.145  15.562  65.930  1.00  0.00    -0.349 C  
HETATM   17  H3* UNL     1     -11.649  13.606  65.000  1.00  0.00     0.000 HD 
HETATM   18  O3* UNL     1     -11.994  14.016  65.784  1.00  0.00    -0.367 OA 
HETATM   19  O2* UNL     1     -10.702  15.851  64.632  1.00  0.00    -0.553 OA 
BRANCH  13  20
HETATM   20  C5* UNL     1     -10.754  14.735  69.200  1.00  0.00    -0.254 C  
HETATM   21  O5* UNL     1      -9.500  14.140  68.861  1.00  0.00    -0.352 OA 
HETATM   22  H5* UNL     1      -9.041  13.894  69.656  1.00  0.00     0.000 HD 
ENDBRANCH  13  20
ENDBRANCH   8  11
ENDBRANCH   2   6
TORSDOF 3
ENDMDL
MODEL      100
REMARK 921   NORMALIZED FREE ENERGY PREDICTED BY IDOCK:   -3.75 KCAL/MOL
REMARK 922        TOTAL FREE ENERGY PREDICTED BY IDOCK:   -5.35 KCAL/MOL
REMARK 923 INTER-LIGAND FREE ENERGY PREDICTED BY IDOCK:   -4.51 KCAL/MOL
REMARK 924 INTRA-LIGAND FREE ENERGY PREDICTED BY IDOCK:   -0.83 KCAL/MOL
REMARK 927      BINDING AFFINITY PREDICTED BY RF-SCORE:    0.00 PKD
ROOT
HETATM    1  N   UNL     1      -6.421  16.969  68.720  1.00  0.00    -0.172 N  
HETATM    2  C   UNL     1      -7.103  17.798  67.865  1.00  0.00    -0.205 C  
HETATM    3  H2  UNL     1      -5.429  17.129  68.892  1.00  0.00     0.000 HD 
HETATM    4  H1  UNL     1      -6.894  16.194  69.185  1.00  0.00     0.000 HD 
HETATM    5  O   UNL     1      -6.533  18.731  67.305  1.00  0.00    -0.190 OA 
ENDROOT
BRANCH   2   6
HETATM    6  C   UNL     1      -8.531  17.461  67.715  1.00  0.00    -0.223 A  
HETATM    7  N   UNL     1      -9.013  16.210  67.742  1.00  0.00    -0.191 NA 
HETATM    8  N   UNL     1     -10.318  16.400  67.478  1.00  0.00    -0.282 NA 
HETATM    9  C   UNL     1     -10.611  17.723  67.389  1.00  0.00    -0.335 A  
HETATM   10  N   UNL     1      -9.512  18.424  67.514  1.00  0.00    -0.268 NA 
BRANCH   8  11
HETATM   11  C1* UNL     1     -11.253  15.299  67.353  1.00  0.00    -0.311 C  
HETATM   12  O4* UNL     1     -12.273  15.452  68.368  1.00  0.00    -0.115 OA 
HETATM   13  C4* UNL     1     -11.942  14.581  69.472  1.00  0.00    -0.319 C  
HETATM   14  C3* UNL     1     -11.124  13.426  68.892  1.00  0.00    -0.266 C  
HETATM   15  H2* UNL     1     -10.832  12.186  66.557  1.00  0.00     0.000 HD 
HETATM   16  C2* UNL     1     -10.666  13.895  67.508  1.00  0.00    -0.267 C  
HETATM   17  H3* UNL     1     -11.412  11.518  68.373  1.00  0.00     0.000 HD 
HETATM   18  O3* UNL     1     -11.920  12.235  68.734  1.00  0.00    -0.302 OA 
HETATM   19  O2* UNL     1     -11.197  13.058  66.461  1.00  0.00    -0.285 OA 
BRANCH  13  20
HETATM   20  C5* UNL     1     -11.201  15.384  70.549  1.00  0.00    -0.333 C  
HETATM   21  O5* UNL     1      -9.793  15.202  70.394  1.00  0.00    -0.449 OA 
HETATM   22  H5* UNL     1      -9.334  15.699  71.061  1.00  0.00     0.000 HD 
ENDBRANCH  13  20
ENDBRANCH   8  11
ENDBRANCH   2   6
TORSDOF 3
ENDMDL
MODEL      101
REMARK 921   NORMALIZED FREE ENERGY PREDICTED BY IDOCK:   -3.75 KCAL/MOL
REMARK 922        TOTAL FREE ENERGY PREDICTED BY IDOCK:   -5.34 KCAL/MOL
REMARK 923 INTER-LIGAND FREE ENERGY PREDICTED BY IDOCK:   -4.41 KCAL/MOL
REMARK 924 INTRA-LIGAND FREE ENERGY PREDICTED BY IDOCK:   -0.92 KCAL/MOL
REMARK 927      BINDING AFFINITY PREDICTED BY RF-SCORE:    0.00 PKD
ROOT
HETATM    1  N   UNL     1     -13.785   9.544  72.698  1.00  0.00    -0.716 N  
HETATM    2  C   UNL     1     -13.046  10.453  71.984  1.00  0.00    -0.416 C  
HETATM    3  H2  UNL     1     -14.558   9.868  73.280  1.00  0.00     0.000 HD 
HETATM    4  H1  UNL     1     -13.571   8.547  72.655  1.00  0.00     0.000 HD 
HETATM    5  O   UNL     1     -13.304  11.654  72.037  1.00  0.00    -0.481 OA 
ENDROOT
BRANCH   2   6
HETATM    6  C   UNL     1     -11.969   9.849  71.179  1.00  0.00    -0.384 A  
HETATM    7  N   UNL     1     -10.941  10.539  70.663  1.00  0.00    -0.137 NA 
HETATM    8  N   UNL     1     -10.293   9.599  69.953  1.00  0.00    -0.230 NA 
HETATM    9  C   UNL     1     -10.866   8.379  70.117  1.00  0.00    -0.236 A  
HETATM   10  N   UNL     1     -11.934   8.496  70.866  1.00  0.00    -0.234 NA 
BRANCH   8  11
HETATM   11  C1* UNL     1      -9.116   9.899  69.161  1.00  0.00    -0.173 C  
HETATM   12  O4* UNL     1      -9.351  11.133  68.444  1.00  0.00    -0.171 OA 
HETATM   13  C4* UNL     1      -9.742  10.800  67.094  1.00  0.00    -0.170 C  
HETATM   14  C3* UNL     1      -9.118   9.440  66.777  1.00  0.00    -0.140 C  
HETATM   15  H2* UNL     1      -7.038   7.985  67.571  1.00  0.00     0.000 HD 
HETATM   16  C2* UNL     1      -8.713   8.844  68.128  1.00  0.00    -0.134 C  
HETATM   17  H3* UNL     1      -7.550   8.728  65.764  1.00  0.00     0.000 HD 
HETATM   18  O3* UNL     1      -7.938   9.572  65.960  1.00  0.00    -0.105 OA 
HETATM   19  O2* UNL     1      -7.288   8.640  68.213  1.00  0.00    -0.084 OA 
BRANCH  13  20
HETATM   20  C5* UNL     1     -11.271  10.819  66.987  1.00  0.00    -0.089 C  
HETATM   21  O5* UNL     1     -11.813  11.606  68.049  1.00  0.00    -0.514 OA 
HETATM   22  H5* UNL     1     -12.761  11.618  67.984  1.00  0.00     0.000 HD 
ENDBRANCH  13  20
ENDBRANCH   8  11
ENDBRANCH   2   6
TORSDOF 3
ENDMDL
MODEL      102
REMARK 921   NORMALIZED FREE ENERGY PREDICTED BY IDOCK:   -3.72 KCAL/MOL
REMARK 922        TOTAL FREE ENERGY PREDICTED BY IDOCK:   -5.31 KCAL/MOL
REMARK 923 INTER-LIGAND FREE ENERGY PREDICTED BY IDOCK:   -4.49 KCAL/MOL
REMARK 924 INTRA-LIGAND FREE ENERGY PREDICTED BY IDOCK:   -0.81 KCAL/MOL
REMARK 927      BINDING AFFINITY PREDICTED BY RF-SCORE:    0.00 PKD
ROOT
HETATM    1  N   UNL     1     -12.242  14.322  68.421  1.00  0.00    -0.595 N  
HETATM    2  C   UNL     1     -11.851  13.142  67.842  1.00  0.00    -0.348 C  
HETATM    3  H2  UNL     1     -12.562  15.090  67.831  1.00  0.00     0.000 HD 
HETATM    4  H1  UNL     1     -12.218  14.441  69.434  1.00  0.00     0.000 HD 
HETATM    5  O   UNL     1     -11.880  12.998  66.622  1.00  0.00    -0.367 OA 
ENDROOT
BRANCH   2   6
HETATM    6  C   UNL     1     -11.423  12.113  68.809  1.00  0.00    -0.307 A  
HETATM    7  N   UNL     1     -10.183  11.605  68.864  1.00  0.00    -0.170 NA 
HETATM    8  N   UNL     1     -10.301  10.664  69.817  1.00  0.00    -0.164 NA 
HETATM    9  C   UNL     1     -11.543  10.678  70.368  1.00  0.00    -0.351 A  
HETATM   10  N   UNL     1     -12.284  11.564  69.750  1.00  0.00    -0.272 NA 
BRANCH   8  11
HETATM   11  C1* UNL     1      -9.201   9.797  70.194  1.00  0.00    -0.208 C  
HETATM   12  O4* UNL     1      -8.811   9.027  69.033  1.00  0.00    -0.133 OA 
HETATM   13  C4* UNL     1      -9.414   7.719  69.139  1.00  0.00    -0.151 C  
HETATM   14  C3* UNL     1      -9.614   7.445  70.630  1.00  0.00    -0.171 C  
HETATM   15  H2* UNL     1      -8.546   8.211  72.943  1.00  0.00     0.000 HD 
HETATM   16  C2* UNL     1      -9.483   8.804  71.323  1.00  0.00    -0.250 C  
HETATM   17  H3* UNL     1      -8.726   6.394  72.078  1.00  0.00     0.000 HD 
HETATM   18  O3* UNL     1      -8.601   6.563  71.152  1.00  0.00    -0.129 OA 
HETATM   19  O2* UNL     1      -8.371   8.827  72.241  1.00  0.00    -0.367 OA 
BRANCH  13  20
HETATM   20  C5* UNL     1     -10.713   7.690  68.324  1.00  0.00    -0.051 C  
HETATM   21  O5* UNL     1     -10.816   8.886  67.551  1.00  0.00    -0.459 OA 
HETATM   22  H5* UNL     1     -11.621   8.869  67.046  1.00  0.00     0.000 HD 
ENDBRANCH  13  20
ENDBRANCH   8  11
ENDBRANCH   2   6
TORSDOF 3
ENDMDL
MODEL      103
REMARK 921   NORMALIZED FREE ENERGY PREDICTED BY IDOCK:   -3.72 KCAL/MOL
REMARK 922        TOTAL FREE ENERGY PREDICTED BY IDOCK:   -5.30 KCAL/MOL
REMARK 923 INTER-LIGAND FREE ENERGY PREDICTED BY IDOCK:   -4.83 KCAL/MOL
REMARK 924 INTRA-LIGAND FREE ENERGY PREDICTED BY IDOCK:   -0.47 KCAL/MOL
REMARK 927      BINDING AFFINITY PREDICTED BY RF-SCORE:    0.00 PKD
ROOT
HETATM    1  N   UNL     1      -9.500  20.726  67.057  1.00  0.00    -0.677 N  
HETATM    2  C   UNL     1      -8.292  20.083  66.959  1.00  0.00    -0.323 C  
HETATM    3  H2  UNL     1      -9.629  21.629  66.602  1.00  0.00     0.000 HD 
HETATM    4  H1  UNL     1     -10.272  20.311  67.579  1.00  0.00     0.000 HD 
HETATM    5  O   UNL     1      -7.362  20.584  66.330  1.00  0.00    -0.249 OA 
ENDROOT
BRANCH   2   6
HETATM    6  C   UNL     1      -8.247  18.783  67.653  1.00  0.00    -0.263 A  
HETATM    7  N   UNL     1      -9.327  18.156  68.143  1.00  0.00    -0.280 NA 
HETATM    8  N   UNL     1      -8.786  17.084  68.748  1.00  0.00    -0.263 NA 
HETATM    9  C   UNL     1      -7.444  17.033  68.544  1.00  0.00    -0.221 A  
HETATM   10  N   UNL     1      -7.063  18.092  67.875  1.00  0.00    -0.214 NA 
BRANCH   8  11
HETATM   11  C1* UNL     1      -9.584  16.120  69.479  1.00  0.00    -0.150 C  
HETATM   12  O4* UNL     1      -9.331  14.808  68.926  1.00  0.00    -0.199 OA 
HETATM   13  C4* UNL     1     -10.410  14.486  68.021  1.00  0.00    -0.229 C  
HETATM   14  C3* UNL     1     -11.635  15.265  68.502  1.00  0.00    -0.352 C  
HETATM   15  H2* UNL     1     -12.551  16.308  70.771  1.00  0.00     0.000 HD 
HETATM   16  C2* UNL     1     -11.098  16.339  69.452  1.00  0.00    -0.328 C  
HETATM   17  H3* UNL     1     -13.310  14.906  69.530  1.00  0.00     0.000 HD 
HETATM   18  O3* UNL     1     -12.550  14.423  69.231  1.00  0.00    -0.138 OA 
HETATM   19  O2* UNL     1     -11.610  16.171  70.789  1.00  0.00    -0.392 OA 
BRANCH  13  20
HETATM   20  C5* UNL     1      -9.987  14.822  66.586  1.00  0.00    -0.264 C  
HETATM   21  O5* UNL     1     -10.891  14.206  65.667  1.00  0.00    -0.291 OA 
HETATM   22  H5* UNL     1     -10.630  14.414  64.778  1.00  0.00     0.000 HD 
ENDBRANCH  13  20
ENDBRANCH   8  11
ENDBRANCH   2   6
TORSDOF 3
ENDMDL
MODEL      104
REMARK 921   NORMALIZED FREE ENERGY PREDICTED BY IDOCK:   -3.70 KCAL/MOL
REMARK 922        TOTAL FREE ENERGY PREDICTED BY IDOCK:   -5.28 KCAL/MOL
REMARK 923 INTER-LIGAND FREE ENERGY PREDICTED BY IDOCK:   -5.06 KCAL/MOL
REMARK 924 INTRA-LIGAND FREE ENERGY PREDICTED BY IDOCK:   -0.22 KCAL/MOL
REMARK 927      BINDING AFFINITY PREDICTED BY RF-SCORE:    0.00 PKD
ROOT
HETATM    1  N   UNL     1     -10.293  12.994  67.020  1.00  0.00    -0.246 N  
HETATM    2  C   UNL     1     -11.363  12.135  67.025  1.00  0.00    -0.337 C  
HETATM    3  H2  UNL     1     -10.149  13.615  66.224  1.00  0.00     0.000 HD 
HETATM    4  H1  UNL     1      -9.639  13.019  67.802  1.00  0.00     0.000 HD 
HETATM    5  O   UNL     1     -12.150  12.105  66.081  1.00  0.00    -0.621 OA 
ENDROOT
BRANCH   2   6
HETATM    6  C   UNL     1     -11.458  11.304  68.238  1.00  0.00    -0.308 A  
HETATM    7  N   UNL     1     -10.546  10.385  68.592  1.00  0.00    -0.196 NA 
HETATM    8  N   UNL     1     -11.100   9.839  69.689  1.00  0.00    -0.235 NA 
HETATM    9  C   UNL     1     -12.254  10.474  70.022  1.00  0.00    -0.250 A  
HETATM   10  N   UNL     1     -12.523  11.390  69.126  1.00  0.00    -0.277 NA 
BRANCH   8  11
HETATM   11  C1* UNL     1     -10.483   8.740  70.405  1.00  0.00    -0.209 C  
HETATM   12  O4* UNL     1      -9.487   8.139  69.545  1.00  0.00    -0.156 OA 
HETATM   13  C4* UNL     1     -10.064   6.959  68.944  1.00  0.00    -0.170 C  
HETATM   14  C3* UNL     1     -11.140   6.456  69.907  1.00  0.00    -0.381 C  
HETATM   15  H2* UNL     1     -11.686   6.586  72.507  1.00  0.00     0.000 HD 
HETATM   16  C2* UNL     1     -11.422   7.621  70.860  1.00  0.00    -0.282 C  
HETATM   17  H3* UNL     1     -11.349   5.018  71.278  1.00  0.00     0.000 HD 
HETATM   18  O3* UNL     1     -10.681   5.330  70.680  1.00  0.00    -0.230 OA 
HETATM   19  O2* UNL     1     -11.103   7.280  72.224  1.00  0.00    -0.239 OA 
BRANCH  13  20
HETATM   20  C5* UNL     1     -10.595   7.308  67.549  1.00  0.00    -0.274 C  
HETATM   21  O5* UNL     1     -11.494   6.287  67.113  1.00  0.00    -0.652 OA 
HETATM   22  H5* UNL     1     -11.823   6.502  66.248  1.00  0.00     0.000 HD 
ENDBRANCH  13  20
ENDBRANCH   8  11
ENDBRANCH   2   6
TORSDOF 3
ENDMDL
MODEL      105
REMARK 921   NORMALIZED FREE ENERGY PREDICTED BY IDOCK:   -3.70 KCAL/MOL
REMARK 922        TOTAL FREE ENERGY PREDICTED BY IDOCK:   -5.28 KCAL/MOL
REMARK 923 INTER-LIGAND FREE ENERGY PREDICTED BY IDOCK:   -4.93 KCAL/MOL
REMARK 924 INTRA-LIGAND FREE ENERGY PREDICTED BY IDOCK:   -0.35 KCAL/MOL
REMARK 927      BINDING AFFINITY PREDICTED BY RF-SCORE:    0.00 PKD
ROOT
HETATM    1  N   UNL     1     -11.119  11.759  63.012  1.00  0.00    -0.684 N  
HETATM    2  C   UNL     1     -11.995  12.025  64.033  1.00  0.00    -0.403 C  
HETATM    3  H2  UNL     1     -11.427  11.858  62.045  1.00  0.00     0.000 HD 
HETATM    4  H1  UNL     1     -10.162  11.462  63.208  1.00  0.00     0.000 HD 
HETATM    5  O   UNL     1     -13.147  12.382  63.797  1.00  0.00    -0.756 OA 
ENDROOT
BRANCH   2   6
HETATM    6  C   UNL     1     -11.418  11.852  65.379  1.00  0.00    -0.251 A  
HETATM    7  N   UNL     1     -11.562  12.737  66.377  1.00  0.00    -0.357 NA 
HETATM    8  N   UNL     1     -10.803  12.201  67.348  1.00  0.00    -0.236 NA 
HETATM    9  C   UNL     1     -10.301  10.997  66.968  1.00  0.00    -0.228 A  
HETATM   10  N   UNL     1     -10.650  10.749  65.730  1.00  0.00    -0.182 NA 
BRANCH   8  11
HETATM   11  C1* UNL     1     -10.609  12.849  68.630  1.00  0.00    -0.234 C  
HETATM   12  O4* UNL     1     -10.453  11.825  69.639  1.00  0.00     0.153 OA 
HETATM   13  C4* UNL     1     -11.721  11.661  70.312  1.00  0.00    -0.266 C  
HETATM   14  C3* UNL     1     -12.456  12.998  70.198  1.00  0.00    -0.096 C  
HETATM   15  H2* UNL     1     -11.850  15.568  69.885  1.00  0.00     0.000 HD 
HETATM   16  C2* UNL     1     -11.735  13.775  69.094  1.00  0.00    -0.334 C  
HETATM   17  H3* UNL     1     -12.833  14.585  71.351  1.00  0.00     0.000 HD 
HETATM   18  O3* UNL     1     -12.377  13.756  71.421  1.00  0.00    -0.333 OA 
HETATM   19  O2* UNL     1     -11.150  14.993  69.597  1.00  0.00    -0.250 OA 
BRANCH  13  20
HETATM   20  C5* UNL     1     -12.479  10.483  69.689  1.00  0.00     0.007 C  
HETATM   21  O5* UNL     1     -12.349   9.335  70.528  1.00  0.00    -0.482 OA 
HETATM   22  H5* UNL     1     -12.818   8.605  70.143  1.00  0.00     0.000 HD 
ENDBRANCH  13  20
ENDBRANCH   8  11
ENDBRANCH   2   6
TORSDOF 3
ENDMDL
MODEL      106
REMARK 921   NORMALIZED FREE ENERGY PREDICTED BY IDOCK:   -3.69 KCAL/MOL
REMARK 922        TOTAL FREE ENERGY PREDICTED BY IDOCK:   -5.27 KCAL/MOL
REMARK 923 INTER-LIGAND FREE ENERGY PREDICTED BY IDOCK:   -4.55 KCAL/MOL
REMARK 924 INTRA-LIGAND FREE ENERGY PREDICTED BY IDOCK:   -0.72 KCAL/MOL
REMARK 927      BINDING AFFINITY PREDICTED BY RF-SCORE:    0.00 PKD
ROOT
HETATM    1  N   UNL     1      -9.901   7.415  66.119  1.00  0.00    -0.435 N  
HETATM    2  C   UNL     1      -9.912   8.779  66.263  1.00  0.00    -0.245 C  
HETATM    3  H2  UNL     1      -9.546   7.003  65.256  1.00  0.00     0.000 HD 
HETATM    4  H1  UNL     1     -10.243   6.808  66.864  1.00  0.00     0.000 HD 
HETATM    5  O   UNL     1      -9.500   9.511  65.366  1.00  0.00    -0.249 OA 
ENDROOT
BRANCH   2   6
HETATM    6  C   UNL     1     -10.438   9.240  67.561  1.00  0.00    -0.274 A  
HETATM    7  N   UNL     1     -10.568   8.454  68.641  1.00  0.00    -0.163 NA 
HETATM    8  N   UNL     1     -11.160   9.276  69.525  1.00  0.00    -0.144 NA 
HETATM    9  C   UNL     1     -11.293  10.529  69.015  1.00  0.00    -0.257 A  
HETATM   10  N   UNL     1     -10.867  10.544  67.776  1.00  0.00    -0.272 NA 
BRANCH   8  11
HETATM   11  C1* UNL     1     -11.551   8.839  70.850  1.00  0.00    -0.277 C  
HETATM   12  O4* UNL     1     -10.615   9.391  71.806  1.00  0.00    -0.309 OA 
HETATM   13  C4* UNL     1      -9.653   8.366  72.136  1.00  0.00    -0.297 C  
HETATM   14  C3* UNL     1     -10.352   7.021  71.923  1.00  0.00    -0.192 C  
HETATM   15  H2* UNL     1     -12.832   6.060  71.918  1.00  0.00     0.000 HD 
HETATM   16  C2* UNL     1     -11.591   7.327  71.077  1.00  0.00    -0.299 C  
HETATM   17  H3* UNL     1     -11.213   5.605  73.038  1.00  0.00     0.000 HD 
HETATM   18  O3* UNL     1     -10.779   6.439  73.170  1.00  0.00    -0.244 OA 
HETATM   19  O2* UNL     1     -12.807   7.000  71.778  1.00  0.00    -0.353 OA 
BRANCH  13  20
HETATM   20  C5* UNL     1      -8.396   8.552  71.278  1.00  0.00    -0.156 C  
HETATM   21  O5* UNL     1      -8.394   9.864  70.715  1.00  0.00    -0.383 OA 
HETATM   22  H5* UNL     1      -7.615   9.980  70.184  1.00  0.00     0.000 HD 
ENDBRANCH  13  20
ENDBRANCH   8  11
ENDBRANCH   2   6
TORSDOF 3
ENDMDL
MODEL      107
REMARK 921   NORMALIZED FREE ENERGY PREDICTED BY IDOCK:   -3.68 KCAL/MOL
REMARK 922        TOTAL FREE ENERGY PREDICTED BY IDOCK:   -5.26 KCAL/MOL
REMARK 923 INTER-LIGAND FREE ENERGY PREDICTED BY IDOCK:   -4.64 KCAL/MOL
REMARK 924 INTRA-LIGAND FREE ENERGY PREDICTED BY IDOCK:   -0.62 KCAL/MOL
REMARK 927      BINDING AFFINITY PREDICTED BY RF-SCORE:    0.00 PKD
ROOT
HETATM    1  N   UNL     1     -10.178  15.855  69.474  1.00  0.00    -0.262 N  
HETATM    2  C   UNL     1     -10.715  15.898  68.213  1.00  0.00    -0.291 C  
HETATM    3  H2  UNL     1     -10.010  16.724  69.980  1.00  0.00     0.000 HD 
HETATM    4  H1  UNL     1      -9.945  14.964  69.913  1.00  0.00     0.000 HD 
HETATM    5  O   UNL     1     -10.996  16.971  67.684  1.00  0.00    -0.290 OA 
ENDROOT
BRANCH   2   6
HETATM    6  C   UNL     1     -10.917  14.571  67.602  1.00  0.00    -0.288 A  
HETATM    7  N   UNL     1     -10.013  13.581  67.643  1.00  0.00    -0.225 NA 
HETATM    8  N   UNL     1     -10.595  12.630  66.892  1.00  0.00    -0.239 NA 
HETATM    9  C   UNL     1     -11.837  13.011  66.495  1.00  0.00    -0.403 A  
HETATM   10  N   UNL     1     -12.071  14.233  66.906  1.00  0.00    -0.440 NA 
BRANCH   8  11
HETATM   11  C1* UNL     1      -9.949  11.364  66.603  1.00  0.00    -0.208 C  
HETATM   12  O4* UNL     1     -10.828  10.298  67.031  1.00  0.00    -0.248 OA 
HETATM   13  C4* UNL     1     -10.376   9.832  68.321  1.00  0.00    -0.198 C  
HETATM   14  C3* UNL     1      -8.876  10.123  68.393  1.00  0.00    -0.123 C  
HETATM   15  H2* UNL     1      -6.841  10.451  66.711  1.00  0.00     0.000 HD 
HETATM   16  C2* UNL     1      -8.594  11.131  67.275  1.00  0.00    -0.140 C  
HETATM   17  H3* UNL     1      -7.159   9.121  68.198  1.00  0.00     0.000 HD 
HETATM   18  O3* UNL     1      -8.090   8.940  68.153  1.00  0.00    -0.105 OA 
HETATM   19  O2* UNL     1      -7.683  10.596  66.294  1.00  0.00    -0.132 OA 
BRANCH  13  20
HETATM   20  C5* UNL     1     -11.193  10.516  69.424  1.00  0.00    -0.269 C  
HETATM   21  O5* UNL     1     -12.517  10.766  68.950  1.00  0.00    -0.782 OA 
HETATM   22  H5* UNL     1     -13.023  11.189  69.633  1.00  0.00     0.000 HD 
ENDBRANCH  13  20
ENDBRANCH   8  11
ENDBRANCH   2   6
TORSDOF 3
ENDMDL
MODEL      108
REMARK 921   NORMALIZED FREE ENERGY PREDICTED BY IDOCK:   -3.68 KCAL/MOL
REMARK 922        TOTAL FREE ENERGY PREDICTED BY IDOCK:   -5.26 KCAL/MOL
REMARK 923 INTER-LIGAND FREE ENERGY PREDICTED BY IDOCK:   -4.43 KCAL/MOL
REMARK 924 INTRA-LIGAND FREE ENERGY PREDICTED BY IDOCK:   -0.83 KCAL/MOL
REMARK 927      BINDING AFFINITY PREDICTED BY RF-SCORE:    0.00 PKD
ROOT
HETATM    1  N   UNL     1     -11.321   4.712  65.231  1.00  0.00    -0.982 N  
HETATM    2  C   UNL     1     -10.262   4.776  66.101  1.00  0.00    -0.281 C  
HETATM    3  H2  UNL     1     -11.393   3.928  64.582  1.00  0.00     0.000 HD 
HETATM    4  H1  UNL     1     -12.037   5.438  65.225  1.00  0.00     0.000 HD 
HETATM    5  O   UNL     1      -9.399   3.901  66.108  1.00  0.00    -0.154 OA 
ENDROOT
BRANCH   2   6
HETATM    6  C   UNL     1     -10.287   5.952  66.989  1.00  0.00    -0.243 A  
HETATM    7  N   UNL     1     -10.765   5.937  68.242  1.00  0.00    -0.250 NA 
HETATM    8  N   UNL     1     -10.662   7.227  68.605  1.00  0.00    -0.178 NA 
HETATM    9  C   UNL     1     -10.061   7.962  67.633  1.00  0.00    -0.203 A  
HETATM   10  N   UNL     1      -9.826   7.201  66.593  1.00  0.00    -0.189 NA 
BRANCH   8  11
HETATM   11  C1* UNL     1     -11.116   7.710  69.894  1.00  0.00    -0.150 C  
HETATM   12  O4* UNL     1      -9.996   8.328  70.569  1.00  0.00    -0.182 OA 
HETATM   13  C4* UNL     1      -9.457   7.376  71.511  1.00  0.00    -0.151 C  
HETATM   14  C3* UNL     1     -10.607   6.446  71.903  1.00  0.00    -0.214 C  
HETATM   15  H2* UNL     1     -13.264   6.522  72.012  1.00  0.00     0.000 HD 
HETATM   16  C2* UNL     1     -11.692   6.657  70.844  1.00  0.00    -0.375 C  
HETATM   17  H3* UNL     1     -11.866   6.209  73.437  1.00  0.00     0.000 HD 
HETATM   18  O3* UNL     1     -11.152   6.786  73.193  1.00  0.00    -0.256 OA 
HETATM   19  O2* UNL     1     -12.906   7.176  71.423  1.00  0.00    -0.376 OA 
BRANCH  13  20
HETATM   20  C5* UNL     1      -8.264   6.651  70.876  1.00  0.00    -0.124 C  
HETATM   21  O5* UNL     1      -8.710   5.432  70.280  1.00  0.00    -0.123 OA 
HETATM   22  H5* UNL     1      -7.972   4.983  69.886  1.00  0.00     0.000 HD 
ENDBRANCH  13  20
ENDBRANCH   8  11
ENDBRANCH   2   6
TORSDOF 3
ENDMDL
MODEL      109
REMARK 921   NORMALIZED FREE ENERGY PREDICTED BY IDOCK:   -3.67 KCAL/MOL
REMARK 922        TOTAL FREE ENERGY PREDICTED BY IDOCK:   -5.24 KCAL/MOL
REMARK 923 INTER-LIGAND FREE ENERGY PREDICTED BY IDOCK:   -4.44 KCAL/MOL
REMARK 924 INTRA-LIGAND FREE ENERGY PREDICTED BY IDOCK:   -0.81 KCAL/MOL
REMARK 927      BINDING AFFINITY PREDICTED BY RF-SCORE:    0.00 PKD
ROOT
HETATM    1  N   UNL     1     -10.148  13.842  69.096  1.00  0.00    -0.428 N  
HETATM    2  C   UNL     1     -11.185  13.171  68.500  1.00  0.00    -0.272 C  
HETATM    3  H2  UNL     1     -10.042  14.844  68.941  1.00  0.00     0.000 HD 
HETATM    4  H1  UNL     1      -9.481  13.351  69.692  1.00  0.00     0.000 HD 
HETATM    5  O   UNL     1     -11.988  13.762  67.782  1.00  0.00    -0.361 OA 
ENDROOT
BRANCH   2   6
HETATM    6  C   UNL     1     -11.228  11.731  68.816  1.00  0.00    -0.251 A  
HETATM    7  N   UNL     1     -11.388  11.238  70.053  1.00  0.00    -0.248 NA 
HETATM    8  N   UNL     1     -11.271   9.914  69.852  1.00  0.00    -0.251 NA 
HETATM    9  C   UNL     1     -11.137   9.630  68.531  1.00  0.00    -0.041 A  
HETATM   10  N   UNL     1     -11.087  10.746  67.847  1.00  0.00    -0.287 NA 
BRANCH   8  11
HETATM   11  C1* UNL     1     -11.326   8.956  70.939  1.00  0.00    -0.283 C  
HETATM   12  O4* UNL     1     -10.171   9.161  71.785  1.00  0.00    -0.338 OA 
HETATM   13  C4* UNL     1      -9.177   8.175  71.435  1.00  0.00    -0.153 C  
HETATM   14  C3* UNL     1      -9.931   6.971  70.867  1.00  0.00    -0.193 C  
HETATM   15  H2* UNL     1     -12.350   5.883  71.058  1.00  0.00     0.000 HD 
HETATM   16  C2* UNL     1     -11.336   7.480  70.535  1.00  0.00    -0.260 C  
HETATM   17  H3* UNL     1     -10.512   5.161  71.481  1.00  0.00     0.000 HD 
HETATM   18  O3* UNL     1     -10.043   5.908  71.833  1.00  0.00    -0.179 OA 
HETATM   19  O2* UNL     1     -12.344   6.799  71.309  1.00  0.00    -0.363 OA 
BRANCH  13  20
HETATM   20  C5* UNL     1      -8.171   8.792  70.456  1.00  0.00    -0.131 C  
HETATM   21  O5* UNL     1      -8.271  10.216  70.505  1.00  0.00    -0.397 OA 
HETATM   22  H5* UNL     1      -7.648  10.599  69.899  1.00  0.00     0.000 HD 
ENDBRANCH  13  20
ENDBRANCH   8  11
ENDBRANCH   2   6
TORSDOF 3
ENDMDL
MODEL      110
REMARK 921   NORMALIZED FREE ENERGY PREDICTED BY IDOCK:   -3.67 KCAL/MOL
REMARK 922        TOTAL FREE ENERGY PREDICTED BY IDOCK:   -5.24 KCAL/MOL
REMARK 923 INTER-LIGAND FREE ENERGY PREDICTED BY IDOCK:   -4.44 KCAL/MOL
REMARK 924 INTRA-LIGAND FREE ENERGY PREDICTED BY IDOCK:   -0.80 KCAL/MOL
REMARK 927      BINDING AFFINITY PREDICTED BY RF-SCORE:    0.00 PKD
ROOT
HETATM    1  N   UNL     1      -7.396   9.788  67.650  1.00  0.00    -0.089 N  
HETATM    2  C   UNL     1      -7.479  10.355  66.403  1.00  0.00    -0.120 C  
HETATM    3  H2  UNL     1      -6.545   9.295  67.924  1.00  0.00     0.000 HD 
HETATM    4  H1  UNL     1      -8.174   9.852  68.306  1.00  0.00     0.000 HD 
HETATM    5  O   UNL     1      -6.541  10.277  65.612  1.00  0.00    -0.107 OA 
ENDROOT
BRANCH   2   6
HETATM    6  C   UNL     1      -8.756  11.043  66.142  1.00  0.00    -0.184 A  
HETATM    7  N   UNL     1      -9.368  11.849  67.023  1.00  0.00    -0.183 NA 
HETATM    8  N   UNL     1     -10.510  12.157  66.385  1.00  0.00    -0.226 NA 
HETATM    9  C   UNL     1     -10.531  11.625  65.135  1.00  0.00    -0.279 A  
HETATM   10  N   UNL     1      -9.454  10.902  64.950  1.00  0.00    -0.223 NA 
BRANCH   8  11
HETATM   11  C1* UNL     1     -11.537  12.985  66.986  1.00  0.00    -0.360 C  
HETATM   12  O4* UNL     1     -11.950  13.974  66.014  1.00  0.00    -0.376 OA 
HETATM   13  C4* UNL     1     -11.271  15.212  66.317  1.00  0.00    -0.273 C  
HETATM   14  C3* UNL     1     -10.971  15.195  67.817  1.00  0.00    -0.306 C  
HETATM   15  H2* UNL     1     -11.945  14.060  70.016  1.00  0.00     0.000 HD 
HETATM   16  C2* UNL     1     -11.137  13.738  68.257  1.00  0.00    -0.255 C  
HETATM   17  H3* UNL     1     -11.716  15.997  69.488  1.00  0.00     0.000 HD 
HETATM   18  O3* UNL     1     -11.902  16.008  68.557  1.00  0.00    -0.343 OA 
HETATM   19  O2* UNL     1     -12.194  13.593  69.227  1.00  0.00    -0.320 OA 
BRANCH  13  20
HETATM   20  C5* UNL     1     -10.022  15.336  65.437  1.00  0.00    -0.329 C  
HETATM   21  O5* UNL     1      -8.868  14.968  66.194  1.00  0.00    -0.466 OA 
HETATM   22  H5* UNL     1      -8.093  15.044  65.649  1.00  0.00     0.000 HD 
ENDBRANCH  13  20
ENDBRANCH   8  11
ENDBRANCH   2   6
TORSDOF 3
ENDMDL
MODEL      111
REMARK 921   NORMALIZED FREE ENERGY PREDICTED BY IDOCK:   -3.66 KCAL/MOL
REMARK 922        TOTAL FREE ENERGY PREDICTED BY IDOCK:   -5.23 KCAL/MOL
REMARK 923 INTER-LIGAND FREE ENERGY PREDICTED BY IDOCK:   -4.35 KCAL/MOL
REMARK 924 INTRA-LIGAND FREE ENERGY PREDICTED BY IDOCK:   -0.88 KCAL/MOL
REMARK 927      BINDING AFFINITY PREDICTED BY RF-SCORE:    0.00 PKD
ROOT
HETATM    1  N   UNL     1     -10.194   7.181  66.412  1.00  0.00    -0.470 N  
HETATM    2  C   UNL     1      -9.466   8.319  66.175  1.00  0.00    -0.171 C  
HETATM    3  H2  UNL     1      -9.826   6.277  66.116  1.00  0.00     0.000 HD 
HETATM    4  H1  UNL     1     -11.099   7.227  66.881  1.00  0.00     0.000 HD 
HETATM    5  O   UNL     1      -8.376   8.263  65.610  1.00  0.00    -0.131 OA 
ENDROOT
BRANCH   2   6
HETATM    6  C   UNL     1     -10.108   9.554  66.663  1.00  0.00    -0.252 A  
HETATM    7  N   UNL     1     -10.069  10.727  66.015  1.00  0.00    -0.240 NA 
HETATM    8  N   UNL     1     -10.698  11.550  66.872  1.00  0.00    -0.250 NA 
HETATM    9  C   UNL     1     -11.171  10.867  67.948  1.00  0.00    -0.321 A  
HETATM   10  N   UNL     1     -10.806   9.612  67.863  1.00  0.00    -0.247 NA 
BRANCH   8  11
HETATM   11  C1* UNL     1     -10.855  12.968  66.615  1.00  0.00    -0.275 C  
HETATM   12  O4* UNL     1      -9.663  13.444  65.947  1.00  0.00    -0.262 OA 
HETATM   13  C4* UNL     1      -8.818  14.076  66.933  1.00  0.00    -0.194 C  
HETATM   14  C3* UNL     1      -9.740  14.584  68.043  1.00  0.00    -0.218 C  
HETATM   15  H2* UNL     1     -12.279  15.328  68.320  1.00  0.00     0.000 HD 
HETATM   16  C2* UNL     1     -11.072  13.856  67.842  1.00  0.00    -0.258 C  
HETATM   17  H3* UNL     1     -10.544  16.317  68.626  1.00  0.00     0.000 HD 
HETATM   18  O3* UNL     1      -9.971  16.002  67.938  1.00  0.00    -0.229 OA 
HETATM   19  O2* UNL     1     -12.144  14.777  67.557  1.00  0.00    -0.301 OA 
BRANCH  13  20
HETATM   20  C5* UNL     1      -7.762  13.074  67.416  1.00  0.00    -0.155 C  
HETATM   21  O5* UNL     1      -7.561  12.075  66.415  1.00  0.00    -0.374 OA 
HETATM   22  H5* UNL     1      -6.907  11.454  66.714  1.00  0.00     0.000 HD 
ENDBRANCH  13  20
ENDBRANCH   8  11
ENDBRANCH   2   6
TORSDOF 3
ENDMDL
MODEL      112
REMARK 921   NORMALIZED FREE ENERGY PREDICTED BY IDOCK:   -3.65 KCAL/MOL
REMARK 922        TOTAL FREE ENERGY PREDICTED BY IDOCK:   -5.22 KCAL/MOL
REMARK 923 INTER-LIGAND FREE ENERGY PREDICTED BY IDOCK:   -4.51 KCAL/MOL
REMARK 924 INTRA-LIGAND FREE ENERGY PREDICTED BY IDOCK:   -0.72 KCAL/MOL
REMARK 927      BINDING AFFINITY PREDICTED BY RF-SCORE:    0.00 PKD
ROOT
HETATM    1  N   UNL     1     -11.887  15.822  71.962  1.00  0.00    -0.443 N  
HETATM    2  C   UNL     1     -12.423  15.084  70.937  1.00  0.00    -0.345 C  
HETATM    3  H2  UNL     1     -12.333  15.809  72.879  1.00  0.00     0.000 HD 
HETATM    4  H1  UNL     1     -11.047  16.383  71.818  1.00  0.00     0.000 HD 
HETATM    5  O   UNL     1     -13.435  14.408  71.110  1.00  0.00    -0.358 OA 
ENDROOT
BRANCH   2   6
HETATM    6  C   UNL     1     -11.674  15.184  69.671  1.00  0.00    -0.327 A  
HETATM    7  N   UNL     1     -10.706  14.331  69.302  1.00  0.00    -0.211 NA 
HETATM    8  N   UNL     1     -10.272  14.871  68.150  1.00  0.00    -0.223 NA 
HETATM    9  C   UNL     1     -11.018  15.953  67.805  1.00  0.00    -0.315 A  
HETATM   10  N   UNL     1     -11.899  16.194  68.744  1.00  0.00    -0.260 NA 
BRANCH   8  11
HETATM   11  C1* UNL     1      -9.170  14.308  67.396  1.00  0.00    -0.200 C  
HETATM   12  O4* UNL     1      -9.710  13.640  66.232  1.00  0.00    -0.289 OA 
HETATM   13  C4* UNL     1      -9.776  12.225  66.515  1.00  0.00    -0.234 C  
HETATM   14  C3* UNL     1      -8.690  11.933  67.552  1.00  0.00    -0.163 C  
HETATM   15  H2* UNL     1      -6.369  12.972  68.333  1.00  0.00     0.000 HD 
HETATM   16  C2* UNL     1      -8.296  13.293  68.135  1.00  0.00    -0.161 C  
HETATM   17  H3* UNL     1      -6.851  11.154  67.595  1.00  0.00     0.000 HD 
HETATM   18  O3* UNL     1      -7.525  11.335  66.951  1.00  0.00    -0.131 OA 
HETATM   19  O2* UNL     1      -6.912  13.602  67.874  1.00  0.00    -0.116 OA 
BRANCH  13  20
HETATM   20  C5* UNL     1     -11.191  11.866  66.983  1.00  0.00    -0.323 C  
HETATM   21  O5* UNL     1     -12.087  12.926  66.647  1.00  0.00    -0.408 OA 
HETATM   22  H5* UNL     1     -12.964  12.703  66.937  1.00  0.00     0.000 HD 
ENDBRANCH  13  20
ENDBRANCH   8  11
ENDBRANCH   2   6
TORSDOF 3
ENDMDL
MODEL      113
REMARK 921   NORMALIZED FREE ENERGY PREDICTED BY IDOCK:   -3.64 KCAL/MOL
REMARK 922        TOTAL FREE ENERGY PREDICTED BY IDOCK:   -5.21 KCAL/MOL
REMARK 923 INTER-LIGAND FREE ENERGY PREDICTED BY IDOCK:   -4.66 KCAL/MOL
REMARK 924 INTRA-LIGAND FREE ENERGY PREDICTED BY IDOCK:   -0.55 KCAL/MOL
REMARK 927      BINDING AFFINITY PREDICTED BY RF-SCORE:    0.00 PKD
ROOT
HETATM    1  N   UNL     1      -7.240   7.832  69.051  1.00  0.00    -0.078 N  
HETATM    2  C   UNL     1      -8.515   8.332  69.133  1.00  0.00    -0.127 C  
HETATM    3  H2  UNL     1      -6.839   7.343  69.851  1.00  0.00     0.000 HD 
HETATM    4  H1  UNL     1      -6.689   7.944  68.200  1.00  0.00     0.000 HD 
HETATM    5  O   UNL     1      -9.180   8.197  70.159  1.00  0.00    -0.153 OA 
ENDROOT
BRANCH   2   6
HETATM    6  C   UNL     1      -8.975   9.005  67.904  1.00  0.00    -0.132 A  
HETATM    7  N   UNL     1      -8.951  10.334  67.722  1.00  0.00    -0.134 NA 
HETATM    8  N   UNL     1      -9.539  10.469  66.521  1.00  0.00    -0.170 NA 
HETATM    9  C   UNL     1      -9.819   9.258  65.973  1.00  0.00    -0.293 A  
HETATM   10  N   UNL     1      -9.495   8.311  66.819  1.00  0.00    -0.182 NA 
BRANCH   8  11
HETATM   11  C1* UNL     1      -9.786  11.765  65.919  1.00  0.00    -0.237 C  
HETATM   12  O4* UNL     1      -9.882  12.747  66.977  1.00  0.00    -0.222 OA 
HETATM   13  C4* UNL     1     -11.282  12.994  67.234  1.00  0.00    -0.289 C  
HETATM   14  C3* UNL     1     -12.029  12.694  65.933  1.00  0.00    -0.438 C  
HETATM   15  H2* UNL     1     -11.516  12.646  63.324  1.00  0.00     0.000 HD 
HETATM   16  C2* UNL     1     -11.055  11.884  65.073  1.00  0.00    -0.305 C  
HETATM   17  H3* UNL     1     -12.836  13.715  64.418  1.00  0.00     0.000 HD 
HETATM   18  O3* UNL     1     -12.373  13.901  65.225  1.00  0.00    -0.413 OA 
HETATM   19  O2* UNL     1     -10.728  12.573  63.849  1.00  0.00    -0.377 OA 
BRANCH  13  20
HETATM   20  C5* UNL     1     -11.739  12.139  68.422  1.00  0.00    -0.332 C  
HETATM   21  O5* UNL     1     -12.036  10.817  67.970  1.00  0.00    -0.778 OA 
HETATM   22  H5* UNL     1     -12.320  10.287  68.706  1.00  0.00     0.000 HD 
ENDBRANCH  13  20
ENDBRANCH   8  11
ENDBRANCH   2   6
TORSDOF 3
ENDMDL
MODEL      114
REMARK 921   NORMALIZED FREE ENERGY PREDICTED BY IDOCK:   -3.57 KCAL/MOL
REMARK 922        TOTAL FREE ENERGY PREDICTED BY IDOCK:   -5.13 KCAL/MOL
REMARK 923 INTER-LIGAND FREE ENERGY PREDICTED BY IDOCK:   -4.48 KCAL/MOL
REMARK 924 INTRA-LIGAND FREE ENERGY PREDICTED BY IDOCK:   -0.65 KCAL/MOL
REMARK 927      BINDING AFFINITY PREDICTED BY RF-SCORE:    0.00 PKD
ROOT
HETATM    1  N   UNL     1      -6.633  14.049  70.522  1.00  0.00    -0.413 N  
HETATM    2  C   UNL     1      -6.287  15.291  70.054  1.00  0.00    -0.147 C  
HETATM    3  H2  UNL     1      -6.190  13.687  71.366  1.00  0.00     0.000 HD 
HETATM    4  H1  UNL     1      -7.328  13.482  70.036  1.00  0.00     0.000 HD 
HETATM    5  O   UNL     1      -5.449  15.973  70.640  1.00  0.00    -0.165 OA 
ENDROOT
BRANCH   2   6
HETATM    6  C   UNL     1      -7.011  15.695  68.834  1.00  0.00    -0.130 A  
HETATM    7  N   UNL     1      -7.705  16.836  68.717  1.00  0.00    -0.232 NA 
HETATM    8  N   UNL     1      -8.247  16.718  67.492  1.00  0.00    -0.171 NA 
HETATM    9  C   UNL     1      -7.814  15.590  66.873  1.00  0.00    -0.194 A  
HETATM   10  N   UNL     1      -7.049  14.909  67.690  1.00  0.00    -0.172 NA 
BRANCH   8  11
HETATM   11  C1* UNL     1      -9.141  17.716  66.939  1.00  0.00    -0.253 C  
HETATM   12  O4* UNL     1      -8.473  18.361  65.830  1.00  0.00    -0.497 OA 
HETATM   13  C4* UNL     1      -7.933  19.616  66.299  1.00  0.00    -0.328 C  
HETATM   14  C3* UNL     1      -8.809  20.061  67.472  1.00  0.00    -0.345 C  
HETATM   15  H2* UNL     1     -11.299  19.693  68.333  1.00  0.00     0.000 HD 
HETATM   16  C2* UNL     1      -9.596  18.819  67.897  1.00  0.00    -0.308 C  
HETATM   17  H3* UNL     1     -10.288  21.362  67.808  1.00  0.00     0.000 HD 
HETATM   18  O3* UNL     1      -9.744  21.086  67.081  1.00  0.00    -0.374 OA 
HETATM   19  O2* UNL     1     -11.016  19.009  67.737  1.00  0.00    -0.355 OA 
BRANCH  13  20
HETATM   20  C5* UNL     1      -6.456  19.430  66.666  1.00  0.00    -0.186 C  
HETATM   21  O5* UNL     1      -6.347  19.110  68.053  1.00  0.00    -0.212 OA 
HETATM   22  H5* UNL     1      -5.432  18.994  68.281  1.00  0.00     0.000 HD 
ENDBRANCH  13  20
ENDBRANCH   8  11
ENDBRANCH   2   6
TORSDOF 3
ENDMDL
MODEL      115
REMARK 921   NORMALIZED FREE ENERGY PREDICTED BY IDOCK:   -3.57 KCAL/MOL
REMARK 922        TOTAL FREE ENERGY PREDICTED BY IDOCK:   -5.13 KCAL/MOL
REMARK 923 INTER-LIGAND FREE ENERGY PREDICTED BY IDOCK:   -4.52 KCAL/MOL
REMARK 924 INTRA-LIGAND FREE ENERGY PREDICTED BY IDOCK:   -0.61 KCAL/MOL
REMARK 927      BINDING AFFINITY PREDICTED BY RF-SCORE:    0.00 PKD
ROOT
HETATM    1  N   UNL     1      -9.321   8.433  65.554  1.00  0.00    -0.427 N  
HETATM    2  C   UNL     1     -10.067   8.937  66.589  1.00  0.00    -0.287 C  
HETATM    3  H2  UNL     1      -9.104   9.028  64.754  1.00  0.00     0.000 HD 
HETATM    4  H1  UNL     1      -8.982   7.471  65.573  1.00  0.00     0.000 HD 
HETATM    5  O   UNL     1     -10.477  10.095  66.565  1.00  0.00    -0.222 OA 
ENDROOT
BRANCH   2   6
HETATM    6  C   UNL     1     -10.297   7.976  67.684  1.00  0.00    -0.246 A  
HETATM    7  N   UNL     1      -9.822   8.129  68.929  1.00  0.00    -0.171 NA 
HETATM    8  N   UNL     1     -10.204   6.986  69.525  1.00  0.00    -0.193 NA 
HETATM    9  C   UNL     1     -10.957   6.226  68.687  1.00  0.00    -0.346 A  
HETATM   10  N   UNL     1     -11.024   6.805  67.514  1.00  0.00    -0.308 NA 
BRANCH   8  11
HETATM   11  C1* UNL     1      -9.862   6.673  70.898  1.00  0.00    -0.183 C  
HETATM   12  O4* UNL     1     -10.950   7.103  71.748  1.00  0.00    -0.225 OA 
HETATM   13  C4* UNL     1     -10.596   8.380  72.321  1.00  0.00    -0.342 C  
HETATM   14  C3* UNL     1      -9.067   8.431  72.373  1.00  0.00    -0.256 C  
HETATM   15  H2* UNL     1      -7.034   6.719  72.482  1.00  0.00     0.000 HD 
HETATM   16  C2* UNL     1      -8.584   7.319  71.437  1.00  0.00    -0.115 C  
HETATM   17  H3* UNL     1      -7.621   8.196  73.730  1.00  0.00     0.000 HD 
HETATM   18  O3* UNL     1      -8.569   8.165  73.698  1.00  0.00    -0.244 OA 
HETATM   19  O2* UNL     1      -7.828   6.318  72.148  1.00  0.00    -0.102 OA 
BRANCH  13  20
HETATM   20  C5* UNL     1     -11.224   9.504  71.489  1.00  0.00    -0.367 C  
HETATM   21  O5* UNL     1     -12.216   8.956  70.620  1.00  0.00    -0.486 OA 
HETATM   22  H5* UNL     1     -12.605   9.652  70.104  1.00  0.00     0.000 HD 
ENDBRANCH  13  20
ENDBRANCH   8  11
ENDBRANCH   2   6
TORSDOF 3
ENDMDL
MODEL      116
REMARK 921   NORMALIZED FREE ENERGY PREDICTED BY IDOCK:   -3.55 KCAL/MOL
REMARK 922        TOTAL FREE ENERGY PREDICTED BY IDOCK:   -5.10 KCAL/MOL
REMARK 923 INTER-LIGAND FREE ENERGY PREDICTED BY IDOCK:   -4.66 KCAL/MOL
REMARK 924 INTRA-LIGAND FREE ENERGY PREDICTED BY IDOCK:   -0.44 KCAL/MOL
REMARK 927      BINDING AFFINITY PREDICTED BY RF-SCORE:    0.00 PKD
ROOT
HETATM    1  N   UNL     1     -10.813  13.210  67.093  1.00  0.00    -0.255 N  
HETATM    2  C   UNL     1     -10.875  13.772  68.343  1.00  0.00    -0.252 C  
HETATM    3  H2  UNL     1     -10.974  12.209  66.982  1.00  0.00     0.000 HD 
HETATM    4  H1  UNL     1     -10.608  13.781  66.273  1.00  0.00     0.000 HD 
HETATM    5  O   UNL     1     -11.121  13.083  69.331  1.00  0.00    -0.189 OA 
ENDROOT
BRANCH   2   6
HETATM    6  C   UNL     1     -10.634  15.226  68.360  1.00  0.00    -0.246 A  
HETATM    7  N   UNL     1     -10.187  15.925  67.306  1.00  0.00    -0.272 NA 
HETATM    8  N   UNL     1     -10.041  17.158  67.820  1.00  0.00    -0.294 NA 
HETATM    9  C   UNL     1     -10.473  17.206  69.107  1.00  0.00    -0.296 A  
HETATM   10  N   UNL     1     -10.837  16.007  69.490  1.00  0.00    -0.291 NA 
BRANCH   8  11
HETATM   11  C1* UNL     1      -9.521  18.267  67.044  1.00  0.00    -0.274 C  
HETATM   12  O4* UNL     1      -8.164  17.952  66.655  1.00  0.00    -0.237 OA 
HETATM   13  C4* UNL     1      -7.267  18.627  67.564  1.00  0.00    -0.211 C  
HETATM   14  C3* UNL     1      -8.011  19.861  68.081  1.00  0.00    -0.262 C  
HETATM   15  H2* UNL     1      -9.973  21.468  67.279  1.00  0.00     0.000 HD 
HETATM   16  C2* UNL     1      -9.487  19.625  67.748  1.00  0.00    -0.348 C  
HETATM   17  H3* UNL     1      -8.038  21.828  67.737  1.00  0.00     0.000 HD 
HETATM   18  O3* UNL     1      -7.576  21.063  67.417  1.00  0.00    -0.334 OA 
HETATM   19  O2* UNL     1      -9.993  20.625  66.841  1.00  0.00    -0.418 OA 
BRANCH  13  20
HETATM   20  C5* UNL     1      -6.837  17.656  68.669  1.00  0.00    -0.229 C  
HETATM   21  O5* UNL     1      -6.122  18.370  69.678  1.00  0.00    -0.253 OA 
HETATM   22  H5* UNL     1      -5.854  17.768  70.363  1.00  0.00     0.000 HD 
ENDBRANCH  13  20
ENDBRANCH   8  11
ENDBRANCH   2   6
TORSDOF 3
ENDMDL
MODEL      117
REMARK 921   NORMALIZED FREE ENERGY PREDICTED BY IDOCK:   -3.55 KCAL/MOL
REMARK 922        TOTAL FREE ENERGY PREDICTED BY IDOCK:   -5.10 KCAL/MOL
REMARK 923 INTER-LIGAND FREE ENERGY PREDICTED BY IDOCK:   -4.18 KCAL/MOL
REMARK 924 INTRA-LIGAND FREE ENERGY PREDICTED BY IDOCK:   -0.92 KCAL/MOL
REMARK 927      BINDING AFFINITY PREDICTED BY RF-SCORE:    0.00 PKD
ROOT
HETATM    1  N   UNL     1     -10.685  15.836  66.229  1.00  0.00    -0.306 N  
HETATM    2  C   UNL     1     -11.233  14.691  65.708  1.00  0.00    -0.336 C  
HETATM    3  H2  UNL     1     -10.754  16.710  65.708  1.00  0.00     0.000 HD 
HETATM    4  H1  UNL     1     -10.210  15.824  67.132  1.00  0.00     0.000 HD 
HETATM    5  O   UNL     1     -11.805  14.705  64.620  1.00  0.00    -0.419 OA 
ENDROOT
BRANCH   2   6
HETATM    6  C   UNL     1     -11.072  13.505  66.568  1.00  0.00    -0.300 A  
HETATM    7  N   UNL     1      -9.919  13.156  67.158  1.00  0.00    -0.233 NA 
HETATM    8  N   UNL     1     -10.238  11.989  67.745  1.00  0.00    -0.198 NA 
HETATM    9  C   UNL     1     -11.557  11.704  67.583  1.00  0.00    -0.279 A  
HETATM   10  N   UNL     1     -12.113  12.624  66.834  1.00  0.00    -0.499 NA 
BRANCH   8  11
HETATM   11  C1* UNL     1      -9.269  11.196  68.475  1.00  0.00    -0.183 C  
HETATM   12  O4* UNL     1      -8.104  11.016  67.636  1.00  0.00    -0.113 OA 
HETATM   13  C4* UNL     1      -8.187   9.710  67.025  1.00  0.00    -0.117 C  
HETATM   14  C3* UNL     1      -9.015   8.835  67.968  1.00  0.00    -0.140 C  
HETATM   15  H2* UNL     1      -9.619   8.736  70.556  1.00  0.00     0.000 HD 
HETATM   16  C2* UNL     1      -9.730   9.804  68.913  1.00  0.00    -0.171 C  
HETATM   17  H3* UNL     1      -8.697   7.415  69.337  1.00  0.00     0.000 HD 
HETATM   18  O3* UNL     1      -8.183   7.958  68.752  1.00  0.00    -0.124 OA 
HETATM   19  O2* UNL     1      -9.332   9.600  70.284  1.00  0.00    -0.242 OA 
BRANCH  13  20
HETATM   20  C5* UNL     1      -8.783   9.843  65.619  1.00  0.00    -0.151 C  
HETATM   21  O5* UNL     1      -8.624  11.185  65.159  1.00  0.00    -0.367 OA 
HETATM   22  H5* UNL     1      -8.994  11.268  64.288  1.00  0.00     0.000 HD 
ENDBRANCH  13  20
ENDBRANCH   8  11
ENDBRANCH   2   6
TORSDOF 3
ENDMDL
MODEL      118
REMARK 921   NORMALIZED FREE ENERGY PREDICTED BY IDOCK:   -3.53 KCAL/MOL
REMARK 922        TOTAL FREE ENERGY PREDICTED BY IDOCK:   -5.08 KCAL/MOL
REMARK 923 INTER-LIGAND FREE ENERGY PREDICTED BY IDOCK:   -4.23 KCAL/MOL
REMARK 924 INTRA-LIGAND FREE ENERGY PREDICTED BY IDOCK:   -0.84 KCAL/MOL
REMARK 927      BINDING AFFINITY PREDICTED BY RF-SCORE:    0.00 PKD
ROOT
HETATM    1  N   UNL     1      -8.024  12.383  68.832  1.00  0.00    -0.335 N  
HETATM    2  C   UNL     1      -8.435  11.141  68.420  1.00  0.00    -0.151 C  
HETATM    3  H2  UNL     1      -7.481  12.969  68.198  1.00  0.00     0.000 HD 
HETATM    4  H1  UNL     1      -8.254  12.728  69.764  1.00  0.00     0.000 HD 
HETATM    5  O   UNL     1      -8.157  10.725  67.297  1.00  0.00    -0.114 OA 
ENDROOT
BRANCH   2   6
HETATM    6  C   UNL     1      -9.220  10.405  69.428  1.00  0.00    -0.159 A  
HETATM    7  N   UNL     1      -8.730   9.407  70.179  1.00  0.00    -0.202 NA 
HETATM    8  N   UNL     1      -9.815   9.002  70.861  1.00  0.00    -0.240 NA 
HETATM    9  C   UNL     1     -10.887   9.792  70.591  1.00  0.00    -0.329 A  
HETATM   10  N   UNL     1     -10.559  10.676  69.681  1.00  0.00    -0.238 NA 
BRANCH   8  11
HETATM   11  C1* UNL     1      -9.780   7.884  71.783  1.00  0.00    -0.170 C  
HETATM   12  O4* UNL     1      -9.470   6.686  71.033  1.00  0.00    -0.164 OA 
HETATM   13  C4* UNL     1     -10.706   5.982  70.779  1.00  0.00    -0.276 C  
HETATM   14  C3* UNL     1     -11.669   6.363  71.905  1.00  0.00    -0.328 C  
HETATM   15  H2* UNL     1     -11.533   7.206  74.424  1.00  0.00     0.000 HD 
HETATM   16  C2* UNL     1     -11.070   7.610  72.560  1.00  0.00    -0.336 C  
HETATM   17  H3* UNL     1     -12.363   5.560  73.598  1.00  0.00     0.000 HD 
HETATM   18  O3* UNL     1     -11.766   5.324  72.899  1.00  0.00    -0.295 OA 
HETATM   19  O2* UNL     1     -10.732   7.375  73.942  1.00  0.00    -0.319 OA 
BRANCH  13  20
HETATM   20  C5* UNL     1     -11.217   6.342  69.379  1.00  0.00    -0.420 C  
HETATM   21  O5* UNL     1     -10.169   6.963  68.634  1.00  0.00    -0.160 OA 
HETATM   22  H5* UNL     1     -10.486   7.186  67.767  1.00  0.00     0.000 HD 
ENDBRANCH  13  20
ENDBRANCH   8  11
ENDBRANCH   2   6
TORSDOF 3
ENDMDL
MODEL      119
REMARK 921   NORMALIZED FREE ENERGY PREDICTED BY IDOCK:   -3.48 KCAL/MOL
REMARK 922        TOTAL FREE ENERGY PREDICTED BY IDOCK:   -5.02 KCAL/MOL
REMARK 923 INTER-LIGAND FREE ENERGY PREDICTED BY IDOCK:   -4.61 KCAL/MOL
REMARK 924 INTRA-LIGAND FREE ENERGY PREDICTED BY IDOCK:   -0.41 KCAL/MOL
REMARK 927      BINDING AFFINITY PREDICTED BY RF-SCORE:    0.00 PKD
ROOT
HETATM    1  N   UNL     1     -11.168   5.994  66.410  1.00  0.00    -0.722 N  
HETATM    2  C   UNL     1     -10.279   5.561  67.361  1.00  0.00    -0.209 C  
HETATM    3  H2  UNL     1     -11.463   5.359  65.669  1.00  0.00     0.000 HD 
HETATM    4  H1  UNL     1     -11.538   6.945  66.436  1.00  0.00     0.000 HD 
HETATM    5  O   UNL     1      -9.832   4.416  67.330  1.00  0.00    -0.195 OA 
ENDROOT
BRANCH   2   6
HETATM    6  C   UNL     1      -9.947   6.575  68.378  1.00  0.00    -0.141 A  
HETATM    7  N   UNL     1     -10.852   7.165  69.173  1.00  0.00    -0.196 NA 
HETATM    8  N   UNL     1     -10.105   8.056  69.848  1.00  0.00    -0.194 NA 
HETATM    9  C   UNL     1      -8.791   7.934  69.527  1.00  0.00    -0.142 A  
HETATM   10  N   UNL     1      -8.651   7.026  68.593  1.00  0.00    -0.121 NA 
BRANCH   8  11
HETATM   11  C1* UNL     1     -10.676   8.979  70.809  1.00  0.00    -0.241 C  
HETATM   12  O4* UNL     1     -10.200   8.616  72.126  1.00  0.00    -0.306 OA 
HETATM   13  C4* UNL     1     -11.233   7.848  72.781  1.00  0.00    -0.405 C  
HETATM   14  C3* UNL     1     -12.564   8.288  72.170  1.00  0.00    -0.337 C  
HETATM   15  H2* UNL     1     -13.571  10.430  70.955  1.00  0.00     0.000 HD 
HETATM   16  C2* UNL     1     -12.204   9.023  70.876  1.00  0.00    -0.157 C  
HETATM   17  H3* UNL     1     -14.098   9.472  72.654  1.00  0.00     0.000 HD 
HETATM   18  O3* UNL     1     -13.272   9.198  73.033  1.00  0.00    -0.269 OA 
HETATM   19  O2* UNL     1     -12.622  10.402  70.914  1.00  0.00    -0.328 OA 
BRANCH  13  20
HETATM   20  C5* UNL     1     -10.939   6.352  72.612  1.00  0.00    -0.253 C  
HETATM   21  O5* UNL     1     -11.144   5.683  73.857  1.00  0.00    -0.395 OA 
HETATM   22  H5* UNL     1     -10.962   4.756  73.753  1.00  0.00     0.000 HD 
ENDBRANCH  13  20
ENDBRANCH   8  11
ENDBRANCH   2   6
TORSDOF 3
ENDMDL
MODEL      120
REMARK 921   NORMALIZED FREE ENERGY PREDICTED BY IDOCK:   -3.47 KCAL/MOL
REMARK 922        TOTAL FREE ENERGY PREDICTED BY IDOCK:   -5.02 KCAL/MOL
REMARK 923 INTER-LIGAND FREE ENERGY PREDICTED BY IDOCK:   -4.10 KCAL/MOL
REMARK 924 INTRA-LIGAND FREE ENERGY PREDICTED BY IDOCK:   -0.91 KCAL/MOL
REMARK 927      BINDING AFFINITY PREDICTED BY RF-SCORE:    0.00 PKD
ROOT
HETATM    1  N   UNL     1      -7.700   4.248  71.941  1.00  0.00    -0.077 N  
HETATM    2  C   UNL     1      -8.749   4.049  72.803  1.00  0.00    -0.099 C  
HETATM    3  H2  UNL     1      -6.990   3.524  71.836  1.00  0.00     0.000 HD 
HETATM    4  H1  UNL     1      -7.621   5.113  71.405  1.00  0.00     0.000 HD 
HETATM    5  O   UNL     1      -8.843   3.008  73.449  1.00  0.00    -0.079 OA 
ENDROOT
BRANCH   2   6
HETATM    6  C   UNL     1      -9.707   5.169  72.850  1.00  0.00    -0.148 A  
HETATM    7  N   UNL     1     -10.586   5.446  71.876  1.00  0.00    -0.227 NA 
HETATM    8  N   UNL     1     -11.159   6.578  72.320  1.00  0.00    -0.251 NA 
HETATM    9  C   UNL     1     -10.699   6.907  73.555  1.00  0.00    -0.312 A  
HETATM   10  N   UNL     1      -9.771   6.057  73.917  1.00  0.00    -0.165 NA 
BRANCH   8  11
HETATM   11  C1* UNL     1     -12.162   7.293  71.556  1.00  0.00    -0.352 C  
HETATM   12  O4* UNL     1     -11.596   7.630  70.267  1.00  0.00    -0.195 OA 
HETATM   13  C4* UNL     1     -11.159   9.005  70.314  1.00  0.00    -0.235 C  
HETATM   14  C3* UNL     1     -12.029   9.709  71.356  1.00  0.00    -0.399 C  
HETATM   15  H2* UNL     1     -14.441   9.421  72.440  1.00  0.00     0.000 HD 
HETATM   16  C2* UNL     1     -12.682   8.592  72.175  1.00  0.00    -0.392 C  
HETATM   17  H3* UNL     1     -13.609  10.932  71.388  1.00  0.00     0.000 HD 
HETATM   18  O3* UNL     1     -13.068  10.496  70.741  1.00  0.00    -0.364 OA 
HETATM   19  O2* UNL     1     -14.119   8.615  72.054  1.00  0.00    -0.416 OA 
BRANCH  13  20
HETATM   20  C5* UNL     1      -9.659   9.052  70.627  1.00  0.00    -0.237 C  
HETATM   21  O5* UNL     1      -9.085   7.763  70.404  1.00  0.00    -0.153 OA 
HETATM   22  H5* UNL     1      -8.156   7.791  70.598  1.00  0.00     0.000 HD 
ENDBRANCH  13  20
ENDBRANCH   8  11
ENDBRANCH   2   6
TORSDOF 3
ENDMDL
MODEL      121
REMARK 921   NORMALIZED FREE ENERGY PREDICTED BY IDOCK:   -3.46 KCAL/MOL
REMARK 922        TOTAL FREE ENERGY PREDICTED BY IDOCK:   -5.00 KCAL/MOL
REMARK 923 INTER-LIGAND FREE ENERGY PREDICTED BY IDOCK:   -4.30 KCAL/MOL
REMARK 924 INTRA-LIGAND FREE ENERGY PREDICTED BY IDOCK:   -0.70 KCAL/MOL
REMARK 927      BINDING AFFINITY PREDICTED BY RF-SCORE:    0.00 PKD
ROOT
HETATM    1  N   UNL     1      -5.634  11.881  68.248  1.00  0.00    -0.049 N  
HETATM    2  C   UNL     1      -6.738  11.855  67.435  1.00  0.00    -0.126 C  
HETATM    3  H2  UNL     1      -4.952  11.125  68.195  1.00  0.00     0.000 HD 
HETATM    4  H1  UNL     1      -5.485  12.648  68.904  1.00  0.00     0.000 HD 
HETATM    5  O   UNL     1      -6.917  10.931  66.644  1.00  0.00    -0.118 OA 
ENDROOT
BRANCH   2   6
HETATM    6  C   UNL     1      -7.635  13.014  67.605  1.00  0.00    -0.160 A  
HETATM    7  N   UNL     1      -8.778  13.185  66.924  1.00  0.00    -0.187 NA 
HETATM    8  N   UNL     1      -9.184  14.395  67.344  1.00  0.00    -0.191 NA 
HETATM    9  C   UNL     1      -8.358  14.882  68.307  1.00  0.00    -0.148 A  
HETATM   10  N   UNL     1      -7.361  14.051  68.487  1.00  0.00    -0.107 NA 
BRANCH   8  11
HETATM   11  C1* UNL     1     -10.378  15.036  66.830  1.00  0.00    -0.270 C  
HETATM   12  O4* UNL     1     -11.401  14.979  67.851  1.00  0.00    -0.310 OA 
HETATM   13  C4* UNL     1     -12.284  13.879  67.542  1.00  0.00    -0.231 C  
HETATM   14  C3* UNL     1     -12.224  13.678  66.027  1.00  0.00    -0.449 C  
HETATM   15  H2* UNL     1     -11.675  15.120  63.860  1.00  0.00     0.000 HD 
HETATM   16  C2* UNL     1     -10.974  14.428  65.558  1.00  0.00    -0.329 C  
HETATM   17  H3* UNL     1     -13.336  14.119  64.427  1.00  0.00     0.000 HD 
HETATM   18  O3* UNL     1     -13.374  14.243  65.368  1.00  0.00    -0.649 OA 
HETATM   19  O2* UNL     1     -11.306  15.498  64.650  1.00  0.00    -0.424 OA 
BRANCH  13  20
HETATM   20  C5* UNL     1     -11.861  12.645  68.348  1.00  0.00    -0.301 C  
HETATM   21  O5* UNL     1     -11.269  11.685  67.472  1.00  0.00    -0.254 OA 
HETATM   22  H5* UNL     1     -11.007  10.920  67.971  1.00  0.00     0.000 HD 
ENDBRANCH  13  20
ENDBRANCH   8  11
ENDBRANCH   2   6
TORSDOF 3
ENDMDL
MODEL      122
REMARK 921   NORMALIZED FREE ENERGY PREDICTED BY IDOCK:   -3.46 KCAL/MOL
REMARK 922        TOTAL FREE ENERGY PREDICTED BY IDOCK:   -4.99 KCAL/MOL
REMARK 923 INTER-LIGAND FREE ENERGY PREDICTED BY IDOCK:   -4.68 KCAL/MOL
REMARK 924 INTRA-LIGAND FREE ENERGY PREDICTED BY IDOCK:   -0.31 KCAL/MOL
REMARK 927      BINDING AFFINITY PREDICTED BY RF-SCORE:    0.00 PKD
ROOT
HETATM    1  N   UNL     1     -12.610  14.537  69.178  1.00  0.00    -0.538 N  
HETATM    2  C   UNL     1     -12.219  13.912  70.334  1.00  0.00    -0.368 C  
HETATM    3  H2  UNL     1     -12.522  15.550  69.098  1.00  0.00     0.000 HD 
HETATM    4  H1  UNL     1     -12.988  14.001  68.396  1.00  0.00     0.000 HD 
HETATM    5  O   UNL     1     -11.764  14.558  71.276  1.00  0.00    -0.311 OA 
ENDROOT
BRANCH   2   6
HETATM    6  C   UNL     1     -12.389  12.448  70.312  1.00  0.00    -0.188 A  
HETATM    7  N   UNL     1     -12.862  11.731  71.342  1.00  0.00    -0.386 NA 
HETATM    8  N   UNL     1     -12.749  10.470  70.890  1.00  0.00    -0.376 NA 
HETATM    9  C   UNL     1     -12.309  10.448  69.605  1.00  0.00     0.009 A  
HETATM   10  N   UNL     1     -12.054  11.671  69.210  1.00  0.00    -0.294 NA 
BRANCH   8  11
HETATM   11  C1* UNL     1     -13.100   9.320  71.701  1.00  0.00    -0.382 C  
HETATM   12  O4* UNL     1     -12.132   9.205  72.770  1.00  0.00    -0.003 OA 
HETATM   13  C4* UNL     1     -11.165   8.201  72.394  1.00  0.00    -0.386 C  
HETATM   14  C3* UNL     1     -11.876   7.241  71.438  1.00  0.00    -0.305 C  
HETATM   15  H2* UNL     1     -14.358   6.436  70.926  1.00  0.00     0.000 HD 
HETATM   16  C2* UNL     1     -13.139   7.973  70.977  1.00  0.00     0.064 C  
HETATM   17  H3* UNL     1     -12.707   5.426  71.505  1.00  0.00     0.000 HD 
HETATM   18  O3* UNL     1     -12.266   6.021  72.098  1.00  0.00    -0.288 OA 
HETATM   19  O2* UNL     1     -14.334   7.272  71.376  1.00  0.00    -0.431 OA 
BRANCH  13  20
HETATM   20  C5* UNL     1      -9.934   8.883  71.784  1.00  0.00    -0.327 C  
HETATM   21  O5* UNL     1      -9.863   8.579  70.391  1.00  0.00    -0.174 OA 
HETATM   22  H5* UNL     1      -9.100   9.001  70.013  1.00  0.00     0.000 HD 
ENDBRANCH  13  20
ENDBRANCH   8  11
ENDBRANCH   2   6
TORSDOF 3
ENDMDL
MODEL      123
REMARK 921   NORMALIZED FREE ENERGY PREDICTED BY IDOCK:   -3.43 KCAL/MOL
REMARK 922        TOTAL FREE ENERGY PREDICTED BY IDOCK:   -4.97 KCAL/MOL
REMARK 923 INTER-LIGAND FREE ENERGY PREDICTED BY IDOCK:   -4.38 KCAL/MOL
REMARK 924 INTRA-LIGAND FREE ENERGY PREDICTED BY IDOCK:   -0.58 KCAL/MOL
REMARK 927      BINDING AFFINITY PREDICTED BY RF-SCORE:    0.00 PKD
ROOT
HETATM    1  N   UNL     1     -12.125  12.655  66.469  1.00  0.00    -0.322 N  
HETATM    2  C   UNL     1     -11.470  13.316  67.477  1.00  0.00    -0.322 C  
HETATM    3  H2  UNL     1     -12.833  11.959  66.701  1.00  0.00     0.000 HD 
HETATM    4  H1  UNL     1     -11.912  12.851  65.491  1.00  0.00     0.000 HD 
HETATM    5  O   UNL     1     -11.727  13.080  68.656  1.00  0.00    -0.285 OA 
ENDROOT
BRANCH   2   6
HETATM    6  C   UNL     1     -10.481  14.302  67.003  1.00  0.00    -0.271 A  
HETATM    7  N   UNL     1     -10.695  15.626  66.976  1.00  0.00    -0.316 NA 
HETATM    8  N   UNL     1      -9.573  16.086  66.395  1.00  0.00    -0.262 NA 
HETATM    9  C   UNL     1      -8.690  15.078  66.170  1.00  0.00     0.117 A  
HETATM   10  N   UNL     1      -9.230  13.938  66.522  1.00  0.00    -0.239 NA 
BRANCH   8  11
HETATM   11  C1* UNL     1      -9.369  17.491  66.103  1.00  0.00    -0.143 C  
HETATM   12  O4* UNL     1      -8.096  17.891  66.660  1.00  0.00    -0.231 OA 
HETATM   13  C4* UNL     1      -8.344  18.552  67.920  1.00  0.00    -0.265 C  
HETATM   14  C3* UNL     1      -9.750  19.150  67.834  1.00  0.00    -0.333 C  
HETATM   15  H2* UNL     1     -11.432  19.987  65.952  1.00  0.00     0.000 HD 
HETATM   16  C2* UNL     1     -10.426  18.453  66.650  1.00  0.00    -0.385 C  
HETATM   17  H3* UNL     1     -10.584  20.938  67.520  1.00  0.00     0.000 HD 
HETATM   18  O3* UNL     1      -9.712  20.567  67.574  1.00  0.00    -0.430 OA 
HETATM   19  O2* UNL     1     -10.776  19.390  65.612  1.00  0.00    -0.468 OA 
BRANCH  13  20
HETATM   20  C5* UNL     1      -8.168  17.547  69.065  1.00  0.00    -0.065 C  
HETATM   21  O5* UNL     1      -7.226  16.546  68.679  1.00  0.00    -0.165 OA 
HETATM   22  H5* UNL     1      -7.116  15.923  69.388  1.00  0.00     0.000 HD 
ENDBRANCH  13  20
ENDBRANCH   8  11
ENDBRANCH   2   6
TORSDOF 3
ENDMDL
MODEL      124
REMARK 921   NORMALIZED FREE ENERGY PREDICTED BY IDOCK:   -3.43 KCAL/MOL
REMARK 922        TOTAL FREE ENERGY PREDICTED BY IDOCK:   -4.96 KCAL/MOL
REMARK 923 INTER-LIGAND FREE ENERGY PREDICTED BY IDOCK:   -4.41 KCAL/MOL
REMARK 924 INTRA-LIGAND FREE ENERGY PREDICTED BY IDOCK:   -0.55 KCAL/MOL
REMARK 927      BINDING AFFINITY PREDICTED BY RF-SCORE:    0.00 PKD
ROOT
HETATM    1  N   UNL     1      -6.637   9.847  66.525  1.00  0.00    -0.071 N  
HETATM    2  C   UNL     1      -6.958   9.803  65.192  1.00  0.00    -0.117 C  
HETATM    3  H2  UNL     1      -5.739   9.480  66.839  1.00  0.00     0.000 HD 
HETATM    4  H1  UNL     1      -7.285  10.243  67.206  1.00  0.00     0.000 HD 
HETATM    5  O   UNL     1      -6.177   9.326  64.372  1.00  0.00    -0.074 OA 
ENDROOT
BRANCH   2   6
HETATM    6  C   UNL     1      -8.279  10.376  64.875  1.00  0.00    -0.145 A  
HETATM    7  N   UNL     1      -8.514  11.689  64.737  1.00  0.00     0.683 NA 
HETATM    8  N   UNL     1      -9.844  11.724  64.547  1.00  0.00    -0.232 NA 
HETATM    9  C   UNL     1     -10.363  10.470  64.485  1.00  0.00    -0.205 A  
HETATM   10  N   UNL     1      -9.415   9.594  64.704  1.00  0.00    -0.226 NA 
BRANCH   8  11
HETATM   11  C1* UNL     1     -10.575  12.967  64.397  1.00  0.00    -0.409 C  
HETATM   12  O4* UNL     1     -10.320  13.788  65.561  1.00  0.00    -0.297 OA 
HETATM   13  C4* UNL     1     -11.439  13.649  66.463  1.00  0.00    -0.335 C  
HETATM   14  C3* UNL     1     -12.655  13.296  65.604  1.00  0.00    -0.406 C  
HETATM   15  H2* UNL     1     -13.468  13.628  63.094  1.00  0.00     0.000 HD 
HETATM   16  C2* UNL     1     -12.093  12.843  64.254  1.00  0.00    -0.419 C  
HETATM   17  H3* UNL     1     -14.260  14.220  64.856  1.00  0.00     0.000 HD 
HETATM   18  O3* UNL     1     -13.506  14.439  65.389  1.00  0.00    -0.485 OA 
HETATM   19  O2* UNL     1     -12.526  13.706  63.183  1.00  0.00    -0.786 OA 
BRANCH  13  20
HETATM   20  C5* UNL     1     -11.107  12.597  67.528  1.00  0.00    -0.272 C  
HETATM   21  O5* UNL     1     -12.136  11.607  67.556  1.00  0.00    -0.611 OA 
HETATM   22  H5* UNL     1     -11.930  10.955  68.216  1.00  0.00     0.000 HD 
ENDBRANCH  13  20
ENDBRANCH   8  11
ENDBRANCH   2   6
TORSDOF 3
ENDMDL
MODEL      125
REMARK 921   NORMALIZED FREE ENERGY PREDICTED BY IDOCK:   -3.41 KCAL/MOL
REMARK 922        TOTAL FREE ENERGY PREDICTED BY IDOCK:   -4.94 KCAL/MOL
REMARK 923 INTER-LIGAND FREE ENERGY PREDICTED BY IDOCK:   -4.12 KCAL/MOL
REMARK 924 INTRA-LIGAND FREE ENERGY PREDICTED BY IDOCK:   -0.83 KCAL/MOL
REMARK 927      BINDING AFFINITY PREDICTED BY RF-SCORE:    0.00 PKD
ROOT
HETATM    1  N   UNL     1     -10.700  10.992  66.375  1.00  0.00    -0.252 N  
HETATM    2  C   UNL     1     -11.214  10.725  67.618  1.00  0.00    -0.299 C  
HETATM    3  H2  UNL     1     -11.175  11.657  65.765  1.00  0.00     0.000 HD 
HETATM    4  H1  UNL     1      -9.848  10.533  66.052  1.00  0.00     0.000 HD 
HETATM    5  O   UNL     1     -12.241  11.277  68.006  1.00  0.00    -0.621 OA 
ENDROOT
BRANCH   2   6
HETATM    6  C   UNL     1     -10.424   9.754  68.398  1.00  0.00    -0.218 A  
HETATM    7  N   UNL     1     -10.428   8.432  68.176  1.00  0.00    -0.201 NA 
HETATM    8  N   UNL     1      -9.648   7.971  69.169  1.00  0.00    -0.155 NA 
HETATM    9  C   UNL     1      -9.130   8.994  69.898  1.00  0.00    -0.168 A  
HETATM   10  N   UNL     1      -9.607  10.131  69.456  1.00  0.00    -0.224 NA 
BRANCH   8  11
HETATM   11  C1* UNL     1      -9.398   6.557  69.369  1.00  0.00    -0.143 C  
HETATM   12  O4* UNL     1     -10.667   5.897  69.588  1.00  0.00    -0.279 OA 
HETATM   13  C4* UNL     1     -10.835   5.708  71.010  1.00  0.00    -0.219 C  
HETATM   14  C3* UNL     1      -9.431   5.632  71.613  1.00  0.00    -0.150 C  
HETATM   15  H2* UNL     1      -6.974   4.979  70.831  1.00  0.00     0.000 HD 
HETATM   16  C2* UNL     1      -8.489   6.193  70.545  1.00  0.00    -0.137 C  
HETATM   17  H3* UNL     1      -8.174   4.226  72.272  1.00  0.00     0.000 HD 
HETATM   18  O3* UNL     1      -9.046   4.273  71.898  1.00  0.00    -0.117 OA 
HETATM   19  O2* UNL     1      -7.539   5.204  70.101  1.00  0.00    -0.067 OA 
BRANCH  13  20
HETATM   20  C5* UNL     1     -11.692   6.845  71.577  1.00  0.00    -0.311 C  
HETATM   21  O5* UNL     1     -12.518   7.381  70.542  1.00  0.00    -0.556 OA 
HETATM   22  H5* UNL     1     -13.049   8.086  70.893  1.00  0.00     0.000 HD 
ENDBRANCH  13  20
ENDBRANCH   8  11
ENDBRANCH   2   6
TORSDOF 3
ENDMDL
MODEL      126
REMARK 921   NORMALIZED FREE ENERGY PREDICTED BY IDOCK:   -3.39 KCAL/MOL
REMARK 922        TOTAL FREE ENERGY PREDICTED BY IDOCK:   -4.91 KCAL/MOL
REMARK 923 INTER-LIGAND FREE ENERGY PREDICTED BY IDOCK:   -4.24 KCAL/MOL
REMARK 924 INTRA-LIGAND FREE ENERGY PREDICTED BY IDOCK:   -0.67 KCAL/MOL
REMARK 927      BINDING AFFINITY PREDICTED BY RF-SCORE:    0.00 PKD
ROOT
HETATM    1  N   UNL     1     -10.439  12.519  68.874  1.00  0.00    -0.406 N  
HETATM    2  C   UNL     1     -11.538  12.272  69.658  1.00  0.00    -0.278 C  
HETATM    3  H2  UNL     1     -10.336  13.429  68.424  1.00  0.00     0.000 HD 
HETATM    4  H1  UNL     1      -9.725  11.805  68.735  1.00  0.00     0.000 HD 
HETATM    5  O   UNL     1     -12.399  13.133  69.824  1.00  0.00    -0.222 OA 
ENDROOT
BRANCH   2   6
HETATM    6  C   UNL     1     -11.556  10.924  70.255  1.00  0.00    -0.334 A  
HETATM    7  N   UNL     1     -10.967   9.851  69.706  1.00  0.00    -0.255 NA 
HETATM    8  N   UNL     1     -11.326   8.865  70.545  1.00  0.00    -0.256 NA 
HETATM    9  C   UNL     1     -12.028   9.353  71.601  1.00  0.00    -0.393 A  
HETATM   10  N   UNL     1     -12.210  10.641  71.448  1.00  0.00    -0.335 NA 
BRANCH   8  11
HETATM   11  C1* UNL     1     -10.954   7.482  70.323  1.00  0.00    -0.250 C  
HETATM   12  O4* UNL     1     -10.034   7.085  71.366  1.00  0.00    -0.185 OA 
HETATM   13  C4* UNL     1      -8.693   7.162  70.836  1.00  0.00    -0.146 C  
HETATM   14  C3* UNL     1      -8.805   6.957  69.324  1.00  0.00    -0.138 C  
HETATM   15  H2* UNL     1     -10.463   5.787  67.604  1.00  0.00     0.000 HD 
HETATM   16  C2* UNL     1     -10.283   7.171  68.984  1.00  0.00    -0.190 C  
HETATM   17  H3* UNL     1      -8.504   5.491  68.000  1.00  0.00     0.000 HD 
HETATM   18  O3* UNL     1      -8.434   5.619  68.939  1.00  0.00    -0.102 OA 
HETATM   19  O2* UNL     1     -10.880   5.979  68.436  1.00  0.00    -0.268 OA 
BRANCH  13  20
HETATM   20  C5* UNL     1      -8.065   8.504  71.233  1.00  0.00    -0.136 C  
HETATM   21  O5* UNL     1      -8.663   8.969  72.443  1.00  0.00    -0.347 OA 
HETATM   22  H5* UNL     1      -8.274   9.801  72.690  1.00  0.00     0.000 HD 
ENDBRANCH  13  20
ENDBRANCH   8  11
ENDBRANCH   2   6
TORSDOF 3
ENDMDL
MODEL      127
REMARK 921   NORMALIZED FREE ENERGY PREDICTED BY IDOCK:   -3.38 KCAL/MOL
REMARK 922        TOTAL FREE ENERGY PREDICTED BY IDOCK:   -4.91 KCAL/MOL
REMARK 923 INTER-LIGAND FREE ENERGY PREDICTED BY IDOCK:   -4.13 KCAL/MOL
REMARK 924 INTRA-LIGAND FREE ENERGY PREDICTED BY IDOCK:   -0.77 KCAL/MOL
REMARK 927      BINDING AFFINITY PREDICTED BY RF-SCORE:    0.00 PKD
ROOT
HETATM    1  N   UNL     1     -11.155  16.278  67.794  1.00  0.00    -0.277 N  
HETATM    2  C   UNL     1     -10.094  15.679  68.425  1.00  0.00    -0.214 C  
HETATM    3  H2  UNL     1     -11.470  17.198  68.102  1.00  0.00     0.000 HD 
HETATM    4  H1  UNL     1     -11.633  15.815  67.020  1.00  0.00     0.000 HD 
HETATM    5  O   UNL     1      -9.519  16.237  69.357  1.00  0.00    -0.241 OA 
ENDROOT
BRANCH   2   6
HETATM    6  C   UNL     1      -9.737  14.359  67.873  1.00  0.00    -0.223 A  
HETATM    7  N   UNL     1     -10.632  13.458  67.443  1.00  0.00    -0.250 NA 
HETATM    8  N   UNL     1      -9.853  12.409  67.126  1.00  0.00    -0.203 NA 
HETATM    9  C   UNL     1      -8.538  12.712  67.279  1.00  0.00    -0.196 A  
HETATM   10  N   UNL     1      -8.422  13.923  67.763  1.00  0.00    -0.169 NA 
BRANCH   8  11
HETATM   11  C1* UNL     1     -10.399  11.151  66.653  1.00  0.00    -0.241 C  
HETATM   12  O4* UNL     1     -11.449  10.742  67.559  1.00  0.00    -0.475 OA 
HETATM   13  C4* UNL     1     -10.904   9.758  68.465  1.00  0.00    -0.188 C  
HETATM   14  C3* UNL     1      -9.750   9.074  67.730  1.00  0.00    -0.156 C  
HETATM   15  H2* UNL     1      -9.009   8.598  65.220  1.00  0.00     0.000 HD 
HETATM   16  C2* UNL     1      -9.412   9.986  66.547  1.00  0.00    -0.175 C  
HETATM   17  H3* UNL     1      -9.417   7.358  66.762  1.00  0.00     0.000 HD 
HETATM   18  O3* UNL     1     -10.133   7.783  67.219  1.00  0.00    -0.188 OA 
HETATM   19  O2* UNL     1      -9.622   9.321  65.286  1.00  0.00    -0.242 OA 
BRANCH  13  20
HETATM   20  C5* UNL     1     -10.485  10.446  69.770  1.00  0.00    -0.240 C  
HETATM   21  O5* UNL     1     -10.904  11.811  69.745  1.00  0.00    -0.458 OA 
HETATM   22  H5* UNL     1     -10.645  12.237  70.553  1.00  0.00     0.000 HD 
ENDBRANCH  13  20
ENDBRANCH   8  11
ENDBRANCH   2   6
TORSDOF 3
ENDMDL
MODEL      128
REMARK 921   NORMALIZED FREE ENERGY PREDICTED BY IDOCK:   -3.38 KCAL/MOL
REMARK 922        TOTAL FREE ENERGY PREDICTED BY IDOCK:   -4.90 KCAL/MOL
REMARK 923 INTER-LIGAND FREE ENERGY PREDICTED BY IDOCK:   -5.30 KCAL/MOL
REMARK 924 INTRA-LIGAND FREE ENERGY PREDICTED BY IDOCK:    0.40 KCAL/MOL
REMARK 927      BINDING AFFINITY PREDICTED BY RF-SCORE:    0.00 PKD
ROOT
HETATM    1  N   UNL     1     -12.983  14.370  73.090  1.00  0.00    -0.500 N  
HETATM    2  C   UNL     1     -13.456  14.999  71.967  1.00  0.00    -0.401 C  
HETATM    3  H2  UNL     1     -13.406  14.569  73.996  1.00  0.00     0.000 HD 
HETATM    4  H1  UNL     1     -12.212  13.704  73.030  1.00  0.00     0.000 HD 
HETATM    5  O   UNL     1     -14.385  15.802  72.039  1.00  0.00    -0.419 OA 
ENDROOT
BRANCH   2   6
HETATM    6  C   UNL     1     -12.763  14.612  70.725  1.00  0.00    -0.359 A  
HETATM    7  N   UNL     1     -12.729  13.360  70.243  1.00  0.00    -0.091 NA 
HETATM    8  N   UNL     1     -11.924  13.486  69.174  1.00  0.00    -0.337 NA 
HETATM    9  C   UNL     1     -11.569  14.783  68.978  1.00  0.00    -0.297 A  
HETATM   10  N   UNL     1     -12.062  15.520  69.942  1.00  0.00    -0.359 NA 
BRANCH   8  11
HETATM   11  C1* UNL     1     -11.547  12.355  68.349  1.00  0.00    -0.324 C  
HETATM   12  O4* UNL     1     -12.392  11.235  68.698  1.00  0.00    -0.534 OA 
HETATM   13  C4* UNL     1     -11.653  10.377  69.594  1.00  0.00    -0.239 C  
HETATM   14  C3* UNL     1     -10.170  10.587  69.283  1.00  0.00    -0.225 C  
HETATM   15  H2* UNL     1      -8.671  11.365  67.227  1.00  0.00     0.000 HD 
HETATM   16  C2* UNL     1     -10.096  11.885  68.473  1.00  0.00    -0.206 C  
HETATM   17  H3* UNL     1      -8.715   9.646  68.289  1.00  0.00     0.000 HD 
HETATM   18  O3* UNL     1      -9.635   9.515  68.482  1.00  0.00    -0.141 OA 
HETATM   19  O2* UNL     1      -9.572  11.656  67.150  1.00  0.00    -0.174 OA 
BRANCH  13  20
HETATM   20  C5* UNL     1     -12.033  10.705  71.043  1.00  0.00    -0.339 C  
HETATM   21  O5* UNL     1     -12.400   9.504  71.723  1.00  0.00    -0.359 OA 
HETATM   22  H5* UNL     1     -12.636   9.707  72.621  1.00  0.00     0.000 HD 
ENDBRANCH  13  20
ENDBRANCH   8  11
ENDBRANCH   2   6
TORSDOF 3
ENDMDL
MODEL      129
REMARK 921   NORMALIZED FREE ENERGY PREDICTED BY IDOCK:   -3.38 KCAL/MOL
REMARK 922        TOTAL FREE ENERGY PREDICTED BY IDOCK:   -4.90 KCAL/MOL
REMARK 923 INTER-LIGAND FREE ENERGY PREDICTED BY IDOCK:   -3.97 KCAL/MOL
REMARK 924 INTRA-LIGAND FREE ENERGY PREDICTED BY IDOCK:   -0.93 KCAL/MOL
REMARK 927      BINDING AFFINITY PREDICTED BY RF-SCORE:    0.00 PKD
ROOT
HETATM    1  N   UNL     1     -10.512  16.788  67.079  1.00  0.00    -0.308 N  
HETATM    2  C   UNL     1      -9.589  16.068  67.795  1.00  0.00    -0.219 C  
HETATM    3  H2  UNL     1     -10.290  17.737  66.781  1.00  0.00     0.000 HD 
HETATM    4  H1  UNL     1     -11.419  16.385  66.842  1.00  0.00     0.000 HD 
HETATM    5  O   UNL     1      -8.497  16.554  68.081  1.00  0.00    -0.182 OA 
ENDROOT
BRANCH   2   6
HETATM    6  C   UNL     1     -10.034  14.709  68.151  1.00  0.00    -0.224 A  
HETATM    7  N   UNL     1      -9.209  13.660  68.288  1.00  0.00    -0.200 NA 
HETATM    8  N   UNL     1     -10.065  12.650  68.521  1.00  0.00    -0.209 NA 
HETATM    9  C   UNL     1     -11.343  13.102  68.609  1.00  0.00    -0.289 A  
HETATM   10  N   UNL     1     -11.369  14.389  68.366  1.00  0.00    -0.273 NA 
BRANCH   8  11
HETATM   11  C1* UNL     1      -9.622  11.279  68.686  1.00  0.00    -0.190 C  
HETATM   12  O4* UNL     1      -8.768  10.940  67.569  1.00  0.00    -0.129 OA 
HETATM   13  C4* UNL     1      -9.554  10.199  66.611  1.00  0.00    -0.183 C  
HETATM   14  C3* UNL     1     -10.671   9.510  67.396  1.00  0.00    -0.227 C  
HETATM   15  H2* UNL     1     -11.110   8.658  69.877  1.00  0.00     0.000 HD 
HETATM   16  C2* UNL     1     -10.723  10.219  68.752  1.00  0.00    -0.219 C  
HETATM   17  H3* UNL     1     -11.080   7.688  68.106  1.00  0.00     0.000 HD 
HETATM   18  O3* UNL     1     -10.387   8.115  67.618  1.00  0.00    -0.219 OA 
HETATM   19  O2* UNL     1     -10.426   9.316  69.836  1.00  0.00    -0.205 OA 
BRANCH  13  20
HETATM   20  C5* UNL     1     -10.060  11.152  65.522  1.00  0.00    -0.257 C  
HETATM   21  O5* UNL     1      -9.248  12.327  65.503  1.00  0.00    -0.436 OA 
HETATM   22  H5* UNL     1      -9.561  12.918  64.828  1.00  0.00     0.000 HD 
ENDBRANCH  13  20
ENDBRANCH   8  11
ENDBRANCH   2   6
TORSDOF 3
ENDMDL
MODEL      130
REMARK 921   NORMALIZED FREE ENERGY PREDICTED BY IDOCK:   -3.35 KCAL/MOL
REMARK 922        TOTAL FREE ENERGY PREDICTED BY IDOCK:   -4.87 KCAL/MOL
REMARK 923 INTER-LIGAND FREE ENERGY PREDICTED BY IDOCK:   -4.41 KCAL/MOL
REMARK 924 INTRA-LIGAND FREE ENERGY PREDICTED BY IDOCK:   -0.46 KCAL/MOL
REMARK 927      BINDING AFFINITY PREDICTED BY RF-SCORE:    0.00 PKD
ROOT
HETATM    1  N   UNL     1     -11.340   4.604  65.398  1.00  0.00    -0.963 N  
HETATM    2  C   UNL     1     -10.196   4.601  66.155  1.00  0.00    -0.277 C  
HETATM    3  H2  UNL     1     -11.518   3.836  64.751  1.00  0.00     0.000 HD 
HETATM    4  H1  UNL     1     -12.016   5.364  65.475  1.00  0.00     0.000 HD 
HETATM    5  O   UNL     1      -9.382   3.684  66.062  1.00  0.00    -0.157 OA 
ENDROOT
BRANCH   2   6
HETATM    6  C   UNL     1     -10.070   5.761  67.055  1.00  0.00    -0.187 A  
HETATM    7  N   UNL     1      -9.181   5.841  68.057  1.00  0.00    -0.109 NA 
HETATM    8  N   UNL     1      -9.502   7.012  68.633  1.00  0.00    -0.136 NA 
HETATM    9  C   UNL     1     -10.486   7.644  67.942  1.00  0.00    -0.207 A  
HETATM   10  N   UNL     1     -10.883   6.883  66.952  1.00  0.00    -0.354 NA 
BRANCH   8  11
HETATM   11  C1* UNL     1      -8.828   7.507  69.817  1.00  0.00    -0.141 C  
HETATM   12  O4* UNL     1      -8.881   6.479  70.834  1.00  0.00    -0.144 OA 
HETATM   13  C4* UNL     1      -9.956   6.800  71.742  1.00  0.00    -0.174 C  
HETATM   14  C3* UNL     1     -10.131   8.320  71.697  1.00  0.00    -0.215 C  
HETATM   15  H2* UNL     1      -8.663  10.464  71.133  1.00  0.00     0.000 HD 
HETATM   16  C2* UNL     1      -9.400   8.784  70.435  1.00  0.00    -0.180 C  
HETATM   17  H3* UNL     1      -9.639   9.903  72.811  1.00  0.00     0.000 HD 
HETATM   18  O3* UNL     1      -9.530   8.960  72.839  1.00  0.00    -0.128 OA 
HETATM   19  O2* UNL     1      -8.307   9.671  70.750  1.00  0.00    -0.264 OA 
BRANCH  13  20
HETATM   20  C5* UNL     1     -11.213   6.020  71.340  1.00  0.00    -0.262 C  
HETATM   21  O5* UNL     1     -12.184   6.111  72.383  1.00  0.00    -0.516 OA 
HETATM   22  H5* UNL     1     -12.964   5.628  72.134  1.00  0.00     0.000 HD 
ENDBRANCH  13  20
ENDBRANCH   8  11
ENDBRANCH   2   6
TORSDOF 3
ENDMDL
MODEL      131
REMARK 921   NORMALIZED FREE ENERGY PREDICTED BY IDOCK:   -3.35 KCAL/MOL
REMARK 922        TOTAL FREE ENERGY PREDICTED BY IDOCK:   -4.87 KCAL/MOL
REMARK 923 INTER-LIGAND FREE ENERGY PREDICTED BY IDOCK:   -4.04 KCAL/MOL
REMARK 924 INTRA-LIGAND FREE ENERGY PREDICTED BY IDOCK:   -0.83 KCAL/MOL
REMARK 927      BINDING AFFINITY PREDICTED BY RF-SCORE:    0.00 PKD
ROOT
HETATM    1  N   UNL     1      -5.898  11.801  69.116  1.00  0.00    -0.058 N  
HETATM    2  C   UNL     1      -6.283  11.910  67.803  1.00  0.00    -0.070 C  
HETATM    3  H2  UNL     1      -4.963  12.099  69.393  1.00  0.00     0.000 HD 
HETATM    4  H1  UNL     1      -6.536  11.426  69.818  1.00  0.00     0.000 HD 
HETATM    5  O   UNL     1      -5.514  12.361  66.957  1.00  0.00    -0.301 OA 
ENDROOT
BRANCH   2   6
HETATM    6  C   UNL     1      -7.661  11.455  67.543  1.00  0.00    -0.117 A  
HETATM    7  N   UNL     1      -8.530  11.106  68.503  1.00  0.00    -0.150 NA 
HETATM    8  N   UNL     1      -9.591  10.688  67.792  1.00  0.00    -0.156 NA 
HETATM    9  C   UNL     1      -9.389  10.868  66.460  1.00  0.00    -0.173 A  
HETATM   10  N   UNL     1      -8.181  11.332  66.261  1.00  0.00    -0.157 NA 
BRANCH   8  11
HETATM   11  C1* UNL     1     -10.785  10.155  68.418  1.00  0.00    -0.230 C  
HETATM   12  O4* UNL     1     -11.921  10.925  67.959  1.00  0.00    -0.586 OA 
HETATM   13  C4* UNL     1     -12.247  11.896  68.977  1.00  0.00    -0.045 C  
HETATM   14  C3* UNL     1     -11.773  11.313  70.310  1.00  0.00    -0.324 C  
HETATM   15  H2* UNL     1     -11.309   8.917  71.367  1.00  0.00     0.000 HD 
HETATM   16  C2* UNL     1     -10.812  10.178  69.947  1.00  0.00    -0.299 C  
HETATM   17  H3* UNL     1     -12.572  10.402  71.897  1.00  0.00     0.000 HD 
HETATM   18  O3* UNL     1     -12.867  10.764  71.071  1.00  0.00    -0.359 OA 
HETATM   19  O2* UNL     1     -11.294   8.903  70.417  1.00  0.00    -0.257 OA 
BRANCH  13  20
HETATM   20  C5* UNL     1     -11.599  13.240  68.624  1.00  0.00    -0.327 C  
HETATM   21  O5* UNL     1     -10.433  13.432  69.427  1.00  0.00    -0.431 OA 
HETATM   22  H5* UNL     1     -10.031  14.265  69.209  1.00  0.00     0.000 HD 
ENDBRANCH  13  20
ENDBRANCH   8  11
ENDBRANCH   2   6
TORSDOF 3
ENDMDL
MODEL      132
REMARK 921   NORMALIZED FREE ENERGY PREDICTED BY IDOCK:   -3.34 KCAL/MOL
REMARK 922        TOTAL FREE ENERGY PREDICTED BY IDOCK:   -4.86 KCAL/MOL
REMARK 923 INTER-LIGAND FREE ENERGY PREDICTED BY IDOCK:   -4.37 KCAL/MOL
REMARK 924 INTRA-LIGAND FREE ENERGY PREDICTED BY IDOCK:   -0.49 KCAL/MOL
REMARK 927      BINDING AFFINITY PREDICTED BY RF-SCORE:    0.00 PKD
ROOT
HETATM    1  N   UNL     1      -9.914  12.635  65.010  1.00  0.00    -0.453 N  
HETATM    2  C   UNL     1      -9.935  13.248  66.237  1.00  0.00    -0.291 C  
HETATM    3  H2  UNL     1      -9.509  13.122  64.211  1.00  0.00     0.000 HD 
HETATM    4  H1  UNL     1     -10.299  11.698  64.887  1.00  0.00     0.000 HD 
HETATM    5  O   UNL     1      -9.472  14.377  66.385  1.00  0.00    -0.280 OA 
ENDROOT
BRANCH   2   6
HETATM    6  C   UNL     1     -10.537  12.430  67.306  1.00  0.00    -0.223 A  
HETATM    7  N   UNL     1      -9.857  11.948  68.356  1.00  0.00    -0.203 NA 
HETATM    8  N   UNL     1     -10.787  11.209  68.987  1.00  0.00    -0.218 NA 
HETATM    9  C   UNL     1     -11.997  11.324  68.380  1.00  0.00    -0.185 A  
HETATM   10  N   UNL     1     -11.879  12.069  67.309  1.00  0.00    -0.598 NA 
BRANCH   8  11
HETATM   11  C1* UNL     1     -10.490  10.438  70.178  1.00  0.00    -0.128 C  
HETATM   12  O4* UNL     1      -9.283   9.678  69.939  1.00  0.00    -0.198 OA 
HETATM   13  C4* UNL     1      -9.664   8.329  69.589  1.00  0.00    -0.173 C  
HETATM   14  C3* UNL     1     -11.021   8.070  70.245  1.00  0.00    -0.242 C  
HETATM   15  H2* UNL     1     -12.413   8.962  72.329  1.00  0.00     0.000 HD 
HETATM   16  C2* UNL     1     -11.568   9.449  70.626  1.00  0.00    -0.269 C  
HETATM   17  H3* UNL     1     -11.735   7.120  71.851  1.00  0.00     0.000 HD 
HETATM   18  O3* UNL     1     -10.893   7.280  71.443  1.00  0.00    -0.229 OA 
HETATM   19  O2* UNL     1     -11.743   9.576  72.051  1.00  0.00    -0.331 OA 
BRANCH  13  20
HETATM   20  C5* UNL     1      -9.676   8.184  68.063  1.00  0.00    -0.161 C  
HETATM   21  O5* UNL     1     -10.453   7.041  67.700  1.00  0.00    -0.192 OA 
HETATM   22  H5* UNL     1     -10.461   6.951  66.754  1.00  0.00     0.000 HD 
ENDBRANCH  13  20
ENDBRANCH   8  11
ENDBRANCH   2   6
TORSDOF 3
ENDMDL
MODEL      133
REMARK 921   NORMALIZED FREE ENERGY PREDICTED BY IDOCK:   -3.33 KCAL/MOL
REMARK 922        TOTAL FREE ENERGY PREDICTED BY IDOCK:   -4.85 KCAL/MOL
REMARK 923 INTER-LIGAND FREE ENERGY PREDICTED BY IDOCK:   -4.41 KCAL/MOL
REMARK 924 INTRA-LIGAND FREE ENERGY PREDICTED BY IDOCK:   -0.43 KCAL/MOL
REMARK 927      BINDING AFFINITY PREDICTED BY RF-SCORE:    0.00 PKD
ROOT
HETATM    1  N   UNL     1      -8.743   8.388  72.945  1.00  0.00    -0.210 N  
HETATM    2  C   UNL     1      -9.988   8.252  72.384  1.00  0.00    -0.309 C  
HETATM    3  H2  UNL     1      -8.616   8.200  73.939  1.00  0.00     0.000 HD 
HETATM    4  H1  UNL     1      -7.944   8.675  72.380  1.00  0.00     0.000 HD 
HETATM    5  O   UNL     1     -10.951   7.907  73.065  1.00  0.00    -0.393 OA 
ENDROOT
BRANCH   2   6
HETATM    6  C   UNL     1     -10.029   8.543  70.939  1.00  0.00    -0.191 A  
HETATM    7  N   UNL     1      -9.482   9.631  70.377  1.00  0.00    -0.255 NA 
HETATM    8  N   UNL     1      -9.849   9.504  69.089  1.00  0.00    -0.169 NA 
HETATM    9  C   UNL     1     -10.511   8.336  68.882  1.00  0.00    -0.191 A  
HETATM   10  N   UNL     1     -10.661   7.711  70.023  1.00  0.00    -0.234 NA 
BRANCH   8  11
HETATM   11  C1* UNL     1      -9.520  10.498  68.087  1.00  0.00    -0.151 C  
HETATM   12  O4* UNL     1      -9.596  11.806  68.700  1.00  0.00    -0.186 OA 
HETATM   13  C4* UNL     1     -10.871  12.391  68.354  1.00  0.00    -0.238 C  
HETATM   14  C3* UNL     1     -11.294  11.769  67.022  1.00  0.00    -0.321 C  
HETATM   15  H2* UNL     1     -10.137  10.644  64.908  1.00  0.00     0.000 HD 
HETATM   16  C2* UNL     1     -10.417  10.526  66.847  1.00  0.00    -0.246 C  
HETATM   17  H3* UNL     1     -11.316  12.275  65.090  1.00  0.00     0.000 HD 
HETATM   18  O3* UNL     1     -11.054  12.661  65.916  1.00  0.00    -0.274 OA 
HETATM   19  O2* UNL     1      -9.580  10.627  65.677  1.00  0.00    -0.194 OA 
BRANCH  13  20
HETATM   20  C5* UNL     1     -11.867  12.150  69.494  1.00  0.00    -0.321 C  
HETATM   21  O5* UNL     1     -11.713  13.167  70.485  1.00  0.00    -0.529 OA 
HETATM   22  H5* UNL     1     -12.330  13.019  71.191  1.00  0.00     0.000 HD 
ENDBRANCH  13  20
ENDBRANCH   8  11
ENDBRANCH   2   6
TORSDOF 3
ENDMDL
MODEL      134
REMARK 921   NORMALIZED FREE ENERGY PREDICTED BY IDOCK:   -3.33 KCAL/MOL
REMARK 922        TOTAL FREE ENERGY PREDICTED BY IDOCK:   -4.84 KCAL/MOL
REMARK 923 INTER-LIGAND FREE ENERGY PREDICTED BY IDOCK:   -4.54 KCAL/MOL
REMARK 924 INTRA-LIGAND FREE ENERGY PREDICTED BY IDOCK:   -0.30 KCAL/MOL
REMARK 927      BINDING AFFINITY PREDICTED BY RF-SCORE:    0.00 PKD
ROOT
HETATM    1  N   UNL     1     -11.626  12.369  63.716  1.00  0.00    -0.429 N  
HETATM    2  C   UNL     1     -11.659  12.531  65.078  1.00  0.00    -0.349 C  
HETATM    3  H2  UNL     1     -11.985  11.509  63.302  1.00  0.00     0.000 HD 
HETATM    4  H1  UNL     1     -11.247  13.099  63.112  1.00  0.00     0.000 HD 
HETATM    5  O   UNL     1     -12.116  11.651  65.805  1.00  0.00    -0.232 OA 
ENDROOT
BRANCH   2   6
HETATM    6  C   UNL     1     -11.120  13.822  65.541  1.00  0.00    -0.298 A  
HETATM    7  N   UNL     1      -9.932  14.318  65.166  1.00  0.00    -0.307 NA 
HETATM    8  N   UNL     1      -9.843  15.440  65.901  1.00  0.00    -0.328 NA 
HETATM    9  C   UNL     1     -10.979  15.646  66.618  1.00  0.00    -0.212 A  
HETATM   10  N   UNL     1     -11.800  14.643  66.433  1.00  0.00    -0.338 NA 
BRANCH   8  11
HETATM   11  C1* UNL     1      -8.678  16.301  65.867  1.00  0.00    -0.099 C  
HETATM   12  O4* UNL     1      -7.607  15.647  66.587  1.00  0.00    -0.161 OA 
HETATM   13  C4* UNL     1      -7.548  16.211  67.915  1.00  0.00    -0.134 C  
HETATM   14  C3* UNL     1      -8.105  17.633  67.815  1.00  0.00    -0.224 C  
HETATM   15  H2* UNL     1      -8.372  19.527  65.967  1.00  0.00     0.000 HD 
HETATM   16  C2* UNL     1      -8.850  17.693  66.479  1.00  0.00    -0.263 C  
HETATM   17  H3* UNL     1      -7.399  19.500  67.737  1.00  0.00     0.000 HD 
HETATM   18  O3* UNL     1      -7.054  18.618  67.800  1.00  0.00    -0.216 OA 
HETATM   19  O2* UNL     1      -8.264  18.663  65.587  1.00  0.00    -0.408 OA 
BRANCH  13  20
HETATM   20  C5* UNL     1      -8.322  15.311  68.886  1.00  0.00    -0.196 C  
HETATM   21  O5* UNL     1      -7.456  14.895  69.943  1.00  0.00    -0.344 OA 
HETATM   22  H5* UNL     1      -7.934  14.337  70.544  1.00  0.00     0.000 HD 
ENDBRANCH  13  20
ENDBRANCH   8  11
ENDBRANCH   2   6
TORSDOF 3
ENDMDL
MODEL      135
REMARK 921   NORMALIZED FREE ENERGY PREDICTED BY IDOCK:   -3.32 KCAL/MOL
REMARK 922        TOTAL FREE ENERGY PREDICTED BY IDOCK:   -4.84 KCAL/MOL
REMARK 923 INTER-LIGAND FREE ENERGY PREDICTED BY IDOCK:   -4.38 KCAL/MOL
REMARK 924 INTRA-LIGAND FREE ENERGY PREDICTED BY IDOCK:   -0.46 KCAL/MOL
REMARK 927      BINDING AFFINITY PREDICTED BY RF-SCORE:    0.00 PKD
ROOT
HETATM    1  N   UNL     1     -14.115   9.328  72.740  1.00  0.00    -0.744 N  
HETATM    2  C   UNL     1     -13.617   8.282  72.006  1.00  0.00    -0.324 C  
HETATM    3  H2  UNL     1     -15.122   9.491  72.766  1.00  0.00     0.000 HD 
HETATM    4  H1  UNL     1     -13.492   9.946  73.261  1.00  0.00     0.000 HD 
HETATM    5  O   UNL     1     -14.368   7.539  71.378  1.00  0.00    -0.441 OA 
ENDROOT
BRANCH   2   6
HETATM    6  C   UNL     1     -12.149   8.155  72.065  1.00  0.00    -0.340 A  
HETATM    7  N   UNL     1     -11.348   8.196  70.989  1.00  0.00    -0.266 NA 
HETATM    8  N   UNL     1     -10.139   7.951  71.522  1.00  0.00    -0.177 NA 
HETATM    9  C   UNL     1     -10.210   7.857  72.876  1.00  0.00    -0.330 A  
HETATM   10  N   UNL     1     -11.460   7.963  73.255  1.00  0.00    -0.174 NA 
BRANCH   8  11
HETATM   11  C1* UNL     1      -8.940   7.846  70.714  1.00  0.00    -0.140 C  
HETATM   12  O4* UNL     1      -9.336   7.623  69.340  1.00  0.00    -0.153 OA 
HETATM   13  C4* UNL     1      -9.221   6.210  69.063  1.00  0.00    -0.126 C  
HETATM   14  C3* UNL     1      -8.149   5.662  70.007  1.00  0.00    -0.106 C  
HETATM   15  H2* UNL     1      -6.026   6.568  71.328  1.00  0.00     0.000 HD 
HETATM   16  C2* UNL     1      -7.968   6.727  71.092  1.00  0.00    -0.103 C  
HETATM   17  H3* UNL     1      -6.225   5.134  69.919  1.00  0.00     0.000 HD 
HETATM   18  O3* UNL     1      -6.890   5.473  69.333  1.00  0.00    -0.056 OA 
HETATM   19  O2* UNL     1      -6.629   7.263  71.092  1.00  0.00    -0.043 OA 
BRANCH  13  20
HETATM   20  C5* UNL     1     -10.593   5.545  69.232  1.00  0.00    -0.255 C  
HETATM   21  O5* UNL     1     -11.620   6.494  68.943  1.00  0.00    -0.606 OA 
HETATM   22  H5* UNL     1     -12.470   6.082  69.047  1.00  0.00     0.000 HD 
ENDBRANCH  13  20
ENDBRANCH   8  11
ENDBRANCH   2   6
TORSDOF 3
ENDMDL
MODEL      136
REMARK 921   NORMALIZED FREE ENERGY PREDICTED BY IDOCK:   -3.30 KCAL/MOL
REMARK 922        TOTAL FREE ENERGY PREDICTED BY IDOCK:   -4.81 KCAL/MOL
REMARK 923 INTER-LIGAND FREE ENERGY PREDICTED BY IDOCK:   -5.32 KCAL/MOL
REMARK 924 INTRA-LIGAND FREE ENERGY PREDICTED BY IDOCK:    0.51 KCAL/MOL
REMARK 927      BINDING AFFINITY PREDICTED BY RF-SCORE:    0.00 PKD
ROOT
HETATM    1  N   UNL     1     -11.419  11.805  66.488  1.00  0.00    -0.313 N  
HETATM    2  C   UNL     1     -11.764  12.010  67.799  1.00  0.00    -0.309 C  
HETATM    3  H2  UNL     1     -11.596  10.897  66.056  1.00  0.00     0.000 HD 
HETATM    4  H1  UNL     1     -10.986  12.548  65.938  1.00  0.00     0.000 HD 
HETATM    5  O   UNL     1     -12.285  11.115  68.461  1.00  0.00    -0.600 OA 
ENDROOT
BRANCH   2   6
HETATM    6  C   UNL     1     -11.464  13.367  68.292  1.00  0.00    -0.315 A  
HETATM    7  N   UNL     1     -11.051  14.376  67.510  1.00  0.00    -0.292 NA 
HETATM    8  N   UNL     1     -10.826  15.356  68.402  1.00  0.00    -0.258 NA 
HETATM    9  C   UNL     1     -11.179  14.969  69.655  1.00  0.00    -0.275 A  
HETATM   10  N   UNL     1     -11.569  13.719  69.632  1.00  0.00    -0.282 NA 
BRANCH   8  11
HETATM   11  C1* UNL     1     -10.307  16.654  68.015  1.00  0.00    -0.303 C  
HETATM   12  O4* UNL     1     -11.077  17.135  66.889  1.00  0.00     0.040 OA 
HETATM   13  C4* UNL     1     -10.327  16.868  65.684  1.00  0.00    -0.237 C  
HETATM   14  C3* UNL     1      -8.850  16.842  66.082  1.00  0.00    -0.244 C  
HETATM   15  H2* UNL     1      -7.297  17.855  67.989  1.00  0.00     0.000 HD 
HETATM   16  C2* UNL     1      -8.833  16.695  67.606  1.00  0.00    -0.201 C  
HETATM   17  H3* UNL     1      -7.265  18.053  65.978  1.00  0.00     0.000 HD 
HETATM   18  O3* UNL     1      -8.181  18.069  65.731  1.00  0.00    -0.519 OA 
HETATM   19  O2* UNL     1      -8.212  17.830  68.242  1.00  0.00    -0.265 OA 
BRANCH  13  20
HETATM   20  C5* UNL     1     -10.822  15.560  65.055  1.00  0.00    -0.450 C  
HETATM   21  O5* UNL     1      -9.828  14.547  65.220  1.00  0.00    -0.499 OA 
HETATM   22  H5* UNL     1     -10.134  13.737  64.830  1.00  0.00     0.000 HD 
ENDBRANCH  13  20
ENDBRANCH   8  11
ENDBRANCH   2   6
TORSDOF 3
ENDMDL
MODEL      137
REMARK 921   NORMALIZED FREE ENERGY PREDICTED BY IDOCK:   -3.27 KCAL/MOL
REMARK 922        TOTAL FREE ENERGY PREDICTED BY IDOCK:   -4.78 KCAL/MOL
REMARK 923 INTER-LIGAND FREE ENERGY PREDICTED BY IDOCK:   -4.29 KCAL/MOL
REMARK 924 INTRA-LIGAND FREE ENERGY PREDICTED BY IDOCK:   -0.49 KCAL/MOL
REMARK 927      BINDING AFFINITY PREDICTED BY RF-SCORE:    0.00 PKD
ROOT
HETATM    1  N   UNL     1     -11.151   6.136  66.548  1.00  0.00    -0.749 N  
HETATM    2  C   UNL     1     -10.909   6.825  67.709  1.00  0.00    -0.264 C  
HETATM    3  H2  UNL     1     -11.654   5.250  66.583  1.00  0.00     0.000 HD 
HETATM    4  H1  UNL     1     -10.833   6.499  65.649  1.00  0.00     0.000 HD 
HETATM    5  O   UNL     1     -11.292   6.387  68.792  1.00  0.00    -0.327 OA 
ENDROOT
BRANCH   2   6
HETATM    6  C   UNL     1     -10.183   8.093  67.514  1.00  0.00    -0.243 A  
HETATM    7  N   UNL     1     -10.228   9.124  68.371  1.00  0.00    -0.194 NA 
HETATM    8  N   UNL     1      -9.501  10.059  67.735  1.00  0.00    -0.140 NA 
HETATM    9  C   UNL     1      -8.972   9.568  66.584  1.00  0.00    -0.146 A  
HETATM   10  N   UNL     1      -9.391   8.340  66.400  1.00  0.00    -0.200 NA 
BRANCH   8  11
HETATM   11  C1* UNL     1      -9.310  11.392  68.271  1.00  0.00    -0.187 C  
HETATM   12  O4* UNL     1     -10.611  11.984  68.493  1.00  0.00    -0.218 OA 
HETATM   13  C4* UNL     1     -10.905  12.856  67.380  1.00  0.00    -0.251 C  
HETATM   14  C3* UNL     1      -9.560  13.322  66.820  1.00  0.00    -0.258 C  
HETATM   15  H2* UNL     1      -7.066  13.656  67.681  1.00  0.00     0.000 HD 
HETATM   16  C2* UNL     1      -8.515  12.363  67.395  1.00  0.00    -0.179 C  
HETATM   17  H3* UNL     1      -8.405  14.950  66.899  1.00  0.00     0.000 HD 
HETATM   18  O3* UNL     1      -9.240  14.661  67.246  1.00  0.00    -0.191 OA 
HETATM   19  O2* UNL     1      -7.560  13.053  68.226  1.00  0.00    -0.117 OA 
BRANCH  13  20
HETATM   20  C5* UNL     1     -11.774  12.107  66.363  1.00  0.00    -0.324 C  
HETATM   21  O5* UNL     1     -10.971  11.718  65.247  1.00  0.00    -0.298 OA 
HETATM   22  H5* UNL     1     -11.509  11.253  64.616  1.00  0.00     0.000 HD 
ENDBRANCH  13  20
ENDBRANCH   8  11
ENDBRANCH   2   6
TORSDOF 3
ENDMDL
MODEL      138
REMARK 921   NORMALIZED FREE ENERGY PREDICTED BY IDOCK:   -3.23 KCAL/MOL
REMARK 922        TOTAL FREE ENERGY PREDICTED BY IDOCK:   -4.72 KCAL/MOL
REMARK 923 INTER-LIGAND FREE ENERGY PREDICTED BY IDOCK:   -4.29 KCAL/MOL
REMARK 924 INTRA-LIGAND FREE ENERGY PREDICTED BY IDOCK:   -0.43 KCAL/MOL
REMARK 927      BINDING AFFINITY PREDICTED BY RF-SCORE:    0.00 PKD
ROOT
HETATM    1  N   UNL     1     -12.425  14.502  64.127  1.00  0.00    -0.852 N  
HETATM    2  C   UNL     1     -11.592  15.534  64.478  1.00  0.00    -0.283 C  
HETATM    3  H2  UNL     1     -12.881  14.510  63.215  1.00  0.00     0.000 HD 
HETATM    4  H1  UNL     1     -12.595  13.726  64.768  1.00  0.00     0.000 HD 
HETATM    5  O   UNL     1     -11.389  16.469  63.706  1.00  0.00    -0.966 OA 
ENDROOT
BRANCH   2   6
HETATM    6  C   UNL     1     -10.992  15.391  65.817  1.00  0.00    -0.309 A  
HETATM    7  N   UNL     1     -10.432  14.260  66.272  1.00  0.00    -0.285 NA 
HETATM    8  N   UNL     1     -10.118  14.584  67.538  1.00  0.00    -0.228 NA 
HETATM    9  C   UNL     1     -10.400  15.888  67.793  1.00  0.00    -0.278 A  
HETATM   10  N   UNL     1     -10.966  16.427  66.742  1.00  0.00    -0.083 NA 
BRANCH   8  11
HETATM   11  C1* UNL     1      -9.523  13.635  68.458  1.00  0.00    -0.143 C  
HETATM   12  O4* UNL     1      -8.689  14.364  69.387  1.00  0.00     0.107 OA 
HETATM   13  C4* UNL     1      -7.319  14.255  68.943  1.00  0.00    -0.126 C  
HETATM   14  C3* UNL     1      -7.215  12.947  68.156  1.00  0.00    -0.114 C  
HETATM   15  H2* UNL     1      -8.462  10.600  68.044  1.00  0.00     0.000 HD 
HETATM   16  C2* UNL     1      -8.655  12.542  67.831  1.00  0.00    -0.179 C  
HETATM   17  H3* UNL     1      -6.544  11.089  68.450  1.00  0.00     0.000 HD 
HETATM   18  O3* UNL     1      -6.608  11.900  68.938  1.00  0.00    -0.073 OA 
HETATM   19  O2* UNL     1      -9.001  11.279  68.434  1.00  0.00    -0.156 OA 
BRANCH  13  20
HETATM   20  C5* UNL     1      -6.947  15.499  68.128  1.00  0.00    -0.122 C  
HETATM   21  O5* UNL     1      -6.677  15.120  66.777  1.00  0.00    -0.199 OA 
HETATM   22  H5* UNL     1      -6.447  15.891  66.272  1.00  0.00     0.000 HD 
ENDBRANCH  13  20
ENDBRANCH   8  11
ENDBRANCH   2   6
TORSDOF 3
ENDMDL
MODEL      139
REMARK 921   NORMALIZED FREE ENERGY PREDICTED BY IDOCK:   -3.22 KCAL/MOL
REMARK 922        TOTAL FREE ENERGY PREDICTED BY IDOCK:   -4.72 KCAL/MOL
REMARK 923 INTER-LIGAND FREE ENERGY PREDICTED BY IDOCK:   -4.26 KCAL/MOL
REMARK 924 INTRA-LIGAND FREE ENERGY PREDICTED BY IDOCK:   -0.47 KCAL/MOL
REMARK 927      BINDING AFFINITY PREDICTED BY RF-SCORE:    0.00 PKD
ROOT
HETATM    1  N   UNL     1     -12.875  13.341  65.257  1.00  0.00    -0.658 N  
HETATM    2  C   UNL     1     -12.073  13.654  66.325  1.00  0.00    -0.434 C  
HETATM    3  H2  UNL     1     -13.431  14.071  64.813  1.00  0.00     0.000 HD 
HETATM    4  H1  UNL     1     -12.922  12.386  64.901  1.00  0.00     0.000 HD 
HETATM    5  O   UNL     1     -12.017  14.804  66.755  1.00  0.00    -0.327 OA 
ENDROOT
BRANCH   2   6
HETATM    6  C   UNL     1     -11.317  12.508  66.863  1.00  0.00    -0.326 A  
HETATM    7  N   UNL     1     -10.001  12.326  66.683  1.00  0.00    -0.212 NA 
HETATM    8  N   UNL     1      -9.794  11.131  67.263  1.00  0.00    -0.173 NA 
HETATM    9  C   UNL     1     -10.930  10.667  67.846  1.00  0.00    -0.295 A  
HETATM   10  N   UNL     1     -11.915  11.495  67.602  1.00  0.00    -0.634 NA 
BRANCH   8  11
HETATM   11  C1* UNL     1      -8.496  10.485  67.270  1.00  0.00    -0.122 C  
HETATM   12  O4* UNL     1      -7.869  10.711  65.986  1.00  0.00    -0.149 OA 
HETATM   13  C4* UNL     1      -8.060   9.529  65.178  1.00  0.00    -0.126 C  
HETATM   14  C3* UNL     1      -8.205   8.353  66.146  1.00  0.00    -0.113 C  
HETATM   15  H2* UNL     1      -7.464   7.726  68.622  1.00  0.00     0.000 HD 
HETATM   16  C2* UNL     1      -8.496   8.975  67.515  1.00  0.00    -0.116 C  
HETATM   17  H3* UNL     1      -7.078   6.857  66.840  1.00  0.00     0.000 HD 
HETATM   18  O3* UNL     1      -6.988   7.586  66.239  1.00  0.00    -0.063 OA 
HETATM   19  O2* UNL     1      -7.463   8.664  68.470  1.00  0.00    -0.090 OA 
BRANCH  13  20
HETATM   20  C5* UNL     1      -9.274   9.730  64.263  1.00  0.00    -0.232 C  
HETATM   21  O5* UNL     1      -8.960  10.698  63.261  1.00  0.00    -0.187 OA 
HETATM   22  H5* UNL     1      -9.711  10.823  62.693  1.00  0.00     0.000 HD 
ENDBRANCH  13  20
ENDBRANCH   8  11
ENDBRANCH   2   6
TORSDOF 3
ENDMDL
MODEL      140
REMARK 921   NORMALIZED FREE ENERGY PREDICTED BY IDOCK:   -3.22 KCAL/MOL
REMARK 922        TOTAL FREE ENERGY PREDICTED BY IDOCK:   -4.72 KCAL/MOL
REMARK 923 INTER-LIGAND FREE ENERGY PREDICTED BY IDOCK:   -3.93 KCAL/MOL
REMARK 924 INTRA-LIGAND FREE ENERGY PREDICTED BY IDOCK:   -0.79 KCAL/MOL
REMARK 927      BINDING AFFINITY PREDICTED BY RF-SCORE:    0.00 PKD
ROOT
HETATM    1  N   UNL     1      -8.059  10.957  69.616  1.00  0.00    -0.362 N  
HETATM    2  C   UNL     1      -7.932  10.034  68.609  1.00  0.00    -0.097 C  
HETATM    3  H2  UNL     1      -7.386  11.720  69.687  1.00  0.00     0.000 HD 
HETATM    4  H1  UNL     1      -8.818  10.890  70.294  1.00  0.00     0.000 HD 
HETATM    5  O   UNL     1      -7.017  10.115  67.792  1.00  0.00    -0.082 OA 
ENDROOT
BRANCH   2   6
HETATM    6  C   UNL     1      -8.976   8.993  68.615  1.00  0.00    -0.137 A  
HETATM    7  N   UNL     1      -9.244   8.204  69.667  1.00  0.00    -0.155 NA 
HETATM    8  N   UNL     1     -10.183   7.378  69.175  1.00  0.00    -0.191 NA 
HETATM    9  C   UNL     1     -10.523   7.725  67.906  1.00  0.00    -0.201 A  
HETATM   10  N   UNL     1      -9.775   8.724  67.510  1.00  0.00    -0.159 NA 
BRANCH   8  11
HETATM   11  C1* UNL     1     -10.753   6.297  69.954  1.00  0.00    -0.294 C  
HETATM   12  O4* UNL     1     -12.149   6.592  70.189  1.00  0.00    -0.323 OA 
HETATM   13  C4* UNL     1     -12.275   7.144  71.518  1.00  0.00    -0.360 C  
HETATM   14  C3* UNL     1     -11.110   6.587  72.338  1.00  0.00    -0.259 C  
HETATM   15  H2* UNL     1      -9.517   4.457  72.320  1.00  0.00     0.000 HD 
HETATM   16  C2* UNL     1     -10.109   6.038  71.318  1.00  0.00    -0.192 C  
HETATM   17  H3* UNL     1     -10.806   5.163  73.706  1.00  0.00     0.000 HD 
HETATM   18  O3* UNL     1     -11.529   5.509  73.197  1.00  0.00    -0.266 OA 
HETATM   19  O2* UNL     1      -9.918   4.617  71.473  1.00  0.00    -0.181 OA 
BRANCH  13  20
HETATM   20  C5* UNL     1     -12.296   8.675  71.432  1.00  0.00    -0.304 C  
HETATM   21  O5* UNL     1     -11.028   9.192  71.838  1.00  0.00    -0.364 OA 
HETATM   22  H5* UNL     1     -11.040  10.140  71.785  1.00  0.00     0.000 HD 
ENDBRANCH  13  20
ENDBRANCH   8  11
ENDBRANCH   2   6
TORSDOF 3
ENDMDL
MODEL      141
REMARK 921   NORMALIZED FREE ENERGY PREDICTED BY IDOCK:   -3.22 KCAL/MOL
REMARK 922        TOTAL FREE ENERGY PREDICTED BY IDOCK:   -4.72 KCAL/MOL
REMARK 923 INTER-LIGAND FREE ENERGY PREDICTED BY IDOCK:   -3.82 KCAL/MOL
REMARK 924 INTRA-LIGAND FREE ENERGY PREDICTED BY IDOCK:   -0.90 KCAL/MOL
REMARK 927      BINDING AFFINITY PREDICTED BY RF-SCORE:    0.00 PKD
ROOT
HETATM    1  N   UNL     1      -8.345   7.640  66.147  1.00  0.00    -0.126 N  
HETATM    2  C   UNL     1      -8.089   8.057  67.428  1.00  0.00    -0.122 C  
HETATM    3  H2  UNL     1      -8.041   6.713  65.848  1.00  0.00     0.000 HD 
HETATM    4  H1  UNL     1      -8.837   8.245  65.488  1.00  0.00     0.000 HD 
HETATM    5  O   UNL     1      -7.497   7.327  68.221  1.00  0.00    -0.097 OA 
ENDROOT
BRANCH   2   6
HETATM    6  C   UNL     1      -8.593   9.409  67.730  1.00  0.00    -0.116 A  
HETATM    7  N   UNL     1      -9.863   9.797  67.543  1.00  0.00    -0.160 NA 
HETATM    8  N   UNL     1      -9.816  11.101  67.865  1.00  0.00    -0.170 NA 
HETATM    9  C   UNL     1      -8.582  11.450  68.314  1.00  0.00    -0.156 A  
HETATM   10  N   UNL     1      -7.778  10.419  68.228  1.00  0.00    -0.094 NA 
BRANCH   8  11
HETATM   11  C1* UNL     1     -10.973  11.968  67.764  1.00  0.00    -0.232 C  
HETATM   12  O4* UNL     1     -11.740  11.570  66.604  1.00  0.00    -0.486 OA 
HETATM   13  C4* UNL     1     -11.413  12.467  65.520  1.00  0.00    -0.350 C  
HETATM   14  C3* UNL     1     -10.978  13.788  66.157  1.00  0.00    -0.292 C  
HETATM   15  H2* UNL     1     -11.378  15.115  68.428  1.00  0.00     0.000 HD 
HETATM   16  C2* UNL     1     -10.683  13.464  67.624  1.00  0.00    -0.247 C  
HETATM   17  H3* UNL     1     -11.757  15.595  66.502  1.00  0.00     0.000 HD 
HETATM   18  O3* UNL     1     -12.027  14.775  66.106  1.00  0.00    -0.281 OA 
HETATM   19  O2* UNL     1     -11.558  14.186  68.514  1.00  0.00    -0.278 OA 
BRANCH  13  20
HETATM   20  C5* UNL     1     -10.339  11.825  64.634  1.00  0.00    -0.290 C  
HETATM   21  O5* UNL     1     -10.394  10.404  64.772  1.00  0.00    -0.320 OA 
HETATM   22  H5* UNL     1      -9.729  10.006  64.224  1.00  0.00     0.000 HD 
ENDBRANCH  13  20
ENDBRANCH   8  11
ENDBRANCH   2   6
TORSDOF 3
ENDMDL
MODEL      142
REMARK 921   NORMALIZED FREE ENERGY PREDICTED BY IDOCK:   -3.20 KCAL/MOL
REMARK 922        TOTAL FREE ENERGY PREDICTED BY IDOCK:   -4.70 KCAL/MOL
REMARK 923 INTER-LIGAND FREE ENERGY PREDICTED BY IDOCK:   -3.78 KCAL/MOL
REMARK 924 INTRA-LIGAND FREE ENERGY PREDICTED BY IDOCK:   -0.92 KCAL/MOL
REMARK 927      BINDING AFFINITY PREDICTED BY RF-SCORE:    0.00 PKD
ROOT
HETATM    1  N   UNL     1     -11.130   7.275  73.332  1.00  0.00    -0.581 N  
HETATM    2  C   UNL     1     -10.805   6.777  72.096  1.00  0.00    -0.227 C  
HETATM    3  H2  UNL     1     -11.326   6.631  74.098  1.00  0.00     0.000 HD 
HETATM    4  H1  UNL     1     -11.179   8.281  73.494  1.00  0.00     0.000 HD 
HETATM    5  O   UNL     1     -10.747   5.565  71.900  1.00  0.00    -0.228 OA 
ENDROOT
BRANCH   2   6
HETATM    6  C   UNL     1     -10.536   7.815  71.083  1.00  0.00    -0.217 A  
HETATM    7  N   UNL     1     -11.125   7.859  69.879  1.00  0.00    -0.180 NA 
HETATM    8  N   UNL     1     -10.507   8.900  69.295  1.00  0.00    -0.224 NA 
HETATM    9  C   UNL     1      -9.649   9.506  70.157  1.00  0.00    -0.248 A  
HETATM   10  N   UNL     1      -9.625   8.843  71.287  1.00  0.00    -0.253 NA 
BRANCH   8  11
HETATM   11  C1* UNL     1     -10.786   9.304  67.931  1.00  0.00    -0.188 C  
HETATM   12  O4* UNL     1     -10.866   8.115  67.112  1.00  0.00    -0.261 OA 
HETATM   13  C4* UNL     1      -9.603   7.952  66.431  1.00  0.00    -0.181 C  
HETATM   14  C3* UNL     1      -8.992   9.348  66.296  1.00  0.00    -0.156 C  
HETATM   15  H2* UNL     1      -9.828  11.872  66.200  1.00  0.00     0.000 HD 
HETATM   16  C2* UNL     1      -9.760  10.234  67.281  1.00  0.00    -0.166 C  
HETATM   17  H3* UNL     1      -8.787  10.746  64.884  1.00  0.00     0.000 HD 
HETATM   18  O3* UNL     1      -9.165   9.880  64.968  1.00  0.00    -0.203 OA 
HETATM   19  O2* UNL     1     -10.465  11.294  66.604  1.00  0.00    -0.229 OA 
BRANCH  13  20
HETATM   20  C5* UNL     1      -8.726   6.967  67.214  1.00  0.00    -0.119 C  
HETATM   21  O5* UNL     1      -9.555   6.135  68.027  1.00  0.00    -0.116 OA 
HETATM   22  H5* UNL     1      -9.012   5.524  68.512  1.00  0.00     0.000 HD 
ENDBRANCH  13  20
ENDBRANCH   8  11
ENDBRANCH   2   6
TORSDOF 3
ENDMDL
MODEL      143
REMARK 921   NORMALIZED FREE ENERGY PREDICTED BY IDOCK:   -3.20 KCAL/MOL
REMARK 922        TOTAL FREE ENERGY PREDICTED BY IDOCK:   -4.69 KCAL/MOL
REMARK 923 INTER-LIGAND FREE ENERGY PREDICTED BY IDOCK:   -4.10 KCAL/MOL
REMARK 924 INTRA-LIGAND FREE ENERGY PREDICTED BY IDOCK:   -0.59 KCAL/MOL
REMARK 927      BINDING AFFINITY PREDICTED BY RF-SCORE:    0.00 PKD
ROOT
HETATM    1  N   UNL     1     -10.536   7.213  66.904  1.00  0.00    -0.438 N  
HETATM    2  C   UNL     1     -10.412   8.517  67.313  1.00  0.00    -0.296 C  
HETATM    3  H2  UNL     1     -10.465   6.987  65.912  1.00  0.00     0.000 HD 
HETATM    4  H1  UNL     1     -10.698   6.466  67.580  1.00  0.00     0.000 HD 
HETATM    5  O   UNL     1     -10.218   9.416  66.498  1.00  0.00    -0.258 OA 
ENDROOT
BRANCH   2   6
HETATM    6  C   UNL     1     -10.523   8.700  68.772  1.00  0.00    -0.185 A  
HETATM    7  N   UNL     1     -10.650   7.693  69.648  1.00  0.00    -0.242 NA 
HETATM    8  N   UNL     1     -10.804   8.344  70.814  1.00  0.00    -0.219 NA 
HETATM    9  C   UNL     1     -10.682   9.686  70.645  1.00  0.00    -0.322 A  
HETATM   10  N   UNL     1     -10.522   9.953  69.372  1.00  0.00    -0.216 NA 
BRANCH   8  11
HETATM   11  C1* UNL     1     -11.031   7.650  72.066  1.00  0.00    -0.246 C  
HETATM   12  O4* UNL     1     -10.061   8.122  73.030  1.00  0.00    -0.297 OA 
HETATM   13  C4* UNL     1      -8.989   7.157  73.098  1.00  0.00    -0.133 C  
HETATM   14  C3* UNL     1      -9.587   5.806  72.703  1.00  0.00    -0.153 C  
HETATM   15  H2* UNL     1     -11.966   4.616  72.717  1.00  0.00     0.000 HD 
HETATM   16  C2* UNL     1     -10.921   6.125  72.022  1.00  0.00    -0.258 C  
HETATM   17  H3* UNL     1     -10.217   4.141  73.610  1.00  0.00     0.000 HD 
HETATM   18  O3* UNL     1      -9.845   4.980  73.855  1.00  0.00    -0.141 OA 
HETATM   19  O2* UNL     1     -12.034   5.563  72.745  1.00  0.00    -0.237 OA 
BRANCH  13  20
HETATM   20  C5* UNL     1      -7.837   7.612  72.193  1.00  0.00    -0.104 C  
HETATM   21  O5* UNL     1      -7.822   9.038  72.123  1.00  0.00    -0.355 OA 
HETATM   22  H5* UNL     1      -7.108   9.321  71.562  1.00  0.00     0.000 HD 
ENDBRANCH  13  20
ENDBRANCH   8  11
ENDBRANCH   2   6
TORSDOF 3
ENDMDL
MODEL      144
REMARK 921   NORMALIZED FREE ENERGY PREDICTED BY IDOCK:   -3.18 KCAL/MOL
REMARK 922        TOTAL FREE ENERGY PREDICTED BY IDOCK:   -4.67 KCAL/MOL
REMARK 923 INTER-LIGAND FREE ENERGY PREDICTED BY IDOCK:   -4.36 KCAL/MOL
REMARK 924 INTRA-LIGAND FREE ENERGY PREDICTED BY IDOCK:   -0.32 KCAL/MOL
REMARK 927      BINDING AFFINITY PREDICTED BY RF-SCORE:    0.00 PKD
ROOT
HETATM    1  N   UNL     1      -8.912   8.821  71.534  1.00  0.00    -0.225 N  
HETATM    2  C   UNL     1     -10.255   9.054  71.685  1.00  0.00    -0.348 C  
HETATM    3  H2  UNL     1      -8.432   8.197  72.184  1.00  0.00     0.000 HD 
HETATM    4  H1  UNL     1      -8.386   9.264  70.780  1.00  0.00     0.000 HD 
HETATM    5  O   UNL     1     -10.888   8.521  72.594  1.00  0.00    -0.304 OA 
ENDROOT
BRANCH   2   6
HETATM    6  C   UNL     1     -10.823   9.964  70.674  1.00  0.00    -0.330 A  
HETATM    7  N   UNL     1     -10.087  10.679  69.810  1.00  0.00    -0.101 NA 
HETATM    8  N   UNL     1     -11.020  11.405  69.170  1.00  0.00    -0.231 NA 
HETATM    9  C   UNL     1     -12.270  11.064  69.579  1.00  0.00    -0.282 A  
HETATM   10  N   UNL     1     -12.189  10.174  70.536  1.00  0.00    -0.278 NA 
BRANCH   8  11
HETATM   11  C1* UNL     1     -10.682  12.385  68.157  1.00  0.00    -0.221 C  
HETATM   12  O4* UNL     1     -10.094  13.533  68.813  1.00  0.00    -0.202 OA 
HETATM   13  C4* UNL     1     -11.114  14.545  68.949  1.00  0.00    -0.256 C  
HETATM   14  C3* UNL     1     -12.118  14.313  67.818  1.00  0.00    -0.281 C  
HETATM   15  H2* UNL     1     -12.148  13.225  65.391  1.00  0.00     0.000 HD 
HETATM   16  C2* UNL     1     -11.843  12.898  67.302  1.00  0.00    -0.356 C  
HETATM   17  H3* UNL     1     -12.549  15.099  66.033  1.00  0.00     0.000 HD 
HETATM   18  O3* UNL     1     -11.926  15.243  66.734  1.00  0.00    -0.003 OA 
HETATM   19  O2* UNL     1     -11.427  12.908  65.922  1.00  0.00    -0.317 OA 
BRANCH  13  20
HETATM   20  C5* UNL     1     -11.730  14.462  70.350  1.00  0.00    -0.280 C  
HETATM   21  O5* UNL     1     -11.583  15.719  71.011  1.00  0.00    -0.341 OA 
HETATM   22  H5* UNL     1     -11.965  15.668  71.880  1.00  0.00     0.000 HD 
ENDBRANCH  13  20
ENDBRANCH   8  11
ENDBRANCH   2   6
TORSDOF 3
ENDMDL
MODEL      145
REMARK 921   NORMALIZED FREE ENERGY PREDICTED BY IDOCK:   -3.18 KCAL/MOL
REMARK 922        TOTAL FREE ENERGY PREDICTED BY IDOCK:   -4.67 KCAL/MOL
REMARK 923 INTER-LIGAND FREE ENERGY PREDICTED BY IDOCK:   -3.86 KCAL/MOL
REMARK 924 INTRA-LIGAND FREE ENERGY PREDICTED BY IDOCK:   -0.81 KCAL/MOL
REMARK 927      BINDING AFFINITY PREDICTED BY RF-SCORE:    0.00 PKD
ROOT
HETATM    1  N   UNL     1      -9.644  11.715  64.773  1.00  0.00    -0.381 N  
HETATM    2  C   UNL     1     -10.265  10.914  65.698  1.00  0.00    -0.263 C  
HETATM    3  H2  UNL     1     -10.043  12.626  64.547  1.00  0.00     0.000 HD 
HETATM    4  H1  UNL     1      -8.789  11.410  64.307  1.00  0.00     0.000 HD 
HETATM    5  O   UNL     1     -11.295  11.281  66.258  1.00  0.00    -0.238 OA 
ENDROOT
BRANCH   2   6
HETATM    6  C   UNL     1      -9.578   9.631  65.937  1.00  0.00    -0.257 A  
HETATM    7  N   UNL     1      -9.594   8.978  67.108  1.00  0.00    -0.158 NA 
HETATM    8  N   UNL     1      -8.775   7.939  66.868  1.00  0.00    -0.127 NA 
HETATM    9  C   UNL     1      -8.362   7.930  65.574  1.00  0.00    -0.147 A  
HETATM   10  N   UNL     1      -8.831   8.987  64.959  1.00  0.00    -0.192 NA 
BRANCH   8  11
HETATM   11  C1* UNL     1      -8.440   6.963  67.887  1.00  0.00    -0.120 C  
HETATM   12  O4* UNL     1      -8.505   5.646  67.293  1.00  0.00    -0.108 OA 
HETATM   13  C4* UNL     1      -9.775   5.056  67.647  1.00  0.00    -0.154 C  
HETATM   14  C3* UNL     1     -10.204   5.695  68.969  1.00  0.00    -0.222 C  
HETATM   15  H2* UNL     1      -9.059   6.861  71.067  1.00  0.00     0.000 HD 
HETATM   16  C2* UNL     1      -9.337   6.947  69.126  1.00  0.00    -0.140 C  
HETATM   17  H3* UNL     1     -10.224   5.219  70.909  1.00  0.00     0.000 HD 
HETATM   18  O3* UNL     1      -9.958   4.822  70.088  1.00  0.00    -0.222 OA 
HETATM   19  O2* UNL     1      -8.501   6.871  70.298  1.00  0.00    -0.135 OA 
BRANCH  13  20
HETATM   20  C5* UNL     1     -10.772   5.271  66.502  1.00  0.00    -0.221 C  
HETATM   21  O5* UNL     1     -11.488   6.489  66.717  1.00  0.00    -0.774 OA 
HETATM   22  H5* UNL     1     -12.106   6.623  66.008  1.00  0.00     0.000 HD 
ENDBRANCH  13  20
ENDBRANCH   8  11
ENDBRANCH   2   6
TORSDOF 3
ENDMDL
MODEL      146
REMARK 921   NORMALIZED FREE ENERGY PREDICTED BY IDOCK:   -3.14 KCAL/MOL
REMARK 922        TOTAL FREE ENERGY PREDICTED BY IDOCK:   -4.63 KCAL/MOL
REMARK 923 INTER-LIGAND FREE ENERGY PREDICTED BY IDOCK:   -3.79 KCAL/MOL
REMARK 924 INTRA-LIGAND FREE ENERGY PREDICTED BY IDOCK:   -0.84 KCAL/MOL
REMARK 927      BINDING AFFINITY PREDICTED BY RF-SCORE:    0.00 PKD
ROOT
HETATM    1  N   UNL     1     -13.334   6.970  71.966  1.00  0.00    -0.551 N  
HETATM    2  C   UNL     1     -12.019   6.601  72.086  1.00  0.00    -0.280 C  
HETATM    3  H2  UNL     1     -14.062   6.374  72.360  1.00  0.00     0.000 HD 
HETATM    4  H1  UNL     1     -13.594   7.832  71.487  1.00  0.00     0.000 HD 
HETATM    5  O   UNL     1     -11.706   5.562  72.663  1.00  0.00    -0.293 OA 
ENDROOT
BRANCH   2   6
HETATM    6  C   UNL     1     -11.071   7.557  71.483  1.00  0.00    -0.236 A  
HETATM    7  N   UNL     1     -10.095   7.209  70.631  1.00  0.00    -0.191 NA 
HETATM    8  N   UNL     1      -9.457   8.376  70.434  1.00  0.00    -0.166 NA 
HETATM    9  C   UNL     1     -10.089   9.393  71.075  1.00  0.00    -0.283 A  
HETATM   10  N   UNL     1     -11.099   8.917  71.761  1.00  0.00    -0.341 NA 
BRANCH   8  11
HETATM   11  C1* UNL     1      -8.273   8.483  69.605  1.00  0.00    -0.115 C  
HETATM   12  O4* UNL     1      -8.468   9.572  68.673  1.00  0.00    -0.115 OA 
HETATM   13  C4* UNL     1      -8.874   9.011  67.405  1.00  0.00    -0.118 C  
HETATM   14  C3* UNL     1      -8.298   7.595  67.346  1.00  0.00    -0.116 C  
HETATM   15  H2* UNL     1      -6.268   6.239  68.400  1.00  0.00     0.000 HD 
HETATM   16  C2* UNL     1      -7.910   7.244  68.784  1.00  0.00    -0.121 C  
HETATM   17  H3* UNL     1      -6.760   6.655  66.486  1.00  0.00     0.000 HD 
HETATM   18  O3* UNL     1      -7.118   7.534  66.522  1.00  0.00    -0.071 OA 
HETATM   19  O2* UNL     1      -6.493   7.009  68.910  1.00  0.00    -0.027 OA 
BRANCH  13  20
HETATM   20  C5* UNL     1     -10.403   9.063  67.292  1.00  0.00    -0.273 C  
HETATM   21  O5* UNL     1     -10.955   7.823  67.735  1.00  0.00    -0.489 OA 
HETATM   22  H5* UNL     1     -11.902   7.855  67.665  1.00  0.00     0.000 HD 
ENDBRANCH  13  20
ENDBRANCH   8  11
ENDBRANCH   2   6
TORSDOF 3
ENDMDL
MODEL      147
REMARK 921   NORMALIZED FREE ENERGY PREDICTED BY IDOCK:   -3.10 KCAL/MOL
REMARK 922        TOTAL FREE ENERGY PREDICTED BY IDOCK:   -4.58 KCAL/MOL
REMARK 923 INTER-LIGAND FREE ENERGY PREDICTED BY IDOCK:   -3.97 KCAL/MOL
REMARK 924 INTRA-LIGAND FREE ENERGY PREDICTED BY IDOCK:   -0.61 KCAL/MOL
REMARK 927      BINDING AFFINITY PREDICTED BY RF-SCORE:    0.00 PKD
ROOT
HETATM    1  N   UNL     1      -6.371  18.528  68.379  1.00  0.00    -0.207 N  
HETATM    2  C   UNL     1      -6.708  17.972  67.171  1.00  0.00    -0.182 C  
HETATM    3  H2  UNL     1      -6.055  19.497  68.417  1.00  0.00     0.000 HD 
HETATM    4  H1  UNL     1      -6.432  17.984  69.240  1.00  0.00     0.000 HD 
HETATM    5  O   UNL     1      -6.634  18.628  66.134  1.00  0.00    -0.196 OA 
ENDROOT
BRANCH   2   6
HETATM    6  C   UNL     1      -7.158  16.571  67.260  1.00  0.00    -0.171 A  
HETATM    7  N   UNL     1      -8.269  16.101  66.675  1.00  0.00    -0.258 NA 
HETATM    8  N   UNL     1      -8.304  14.828  67.106  1.00  0.00    -0.207 NA 
HETATM    9  C   UNL     1      -7.204  14.532  67.847  1.00  0.00    -0.158 A  
HETATM   10  N   UNL     1      -6.467  15.606  67.982  1.00  0.00    -0.126 NA 
BRANCH   8  11
HETATM   11  C1* UNL     1      -9.382  13.921  66.765  1.00  0.00    -0.275 C  
HETATM   12  O4* UNL     1     -10.588  14.698  66.578  1.00  0.00    -0.290 OA 
HETATM   13  C4* UNL     1     -11.371  14.611  67.789  1.00  0.00    -0.322 C  
HETATM   14  C3* UNL     1     -11.004  13.284  68.456  1.00  0.00    -0.266 C  
HETATM   15  H2* UNL     1     -10.057  10.904  67.738  1.00  0.00     0.000 HD 
HETATM   16  C2* UNL     1      -9.699  12.833  67.793  1.00  0.00    -0.207 C  
HETATM   17  H3* UNL     1     -11.779  11.452  68.641  1.00  0.00     0.000 HD 
HETATM   18  O3* UNL     1     -12.008  12.276  68.228  1.00  0.00    -0.336 OA 
HETATM   19  O2* UNL     1      -9.861  11.580  67.099  1.00  0.00    -0.189 OA 
BRANCH  13  20
HETATM   20  C5* UNL     1     -11.096  15.840  68.663  1.00  0.00    -0.327 C  
HETATM   21  O5* UNL     1      -9.962  15.589  69.495  1.00  0.00    -0.249 OA 
HETATM   22  H5* UNL     1      -9.791  16.350  70.036  1.00  0.00     0.000 HD 
ENDBRANCH  13  20
ENDBRANCH   8  11
ENDBRANCH   2   6
TORSDOF 3
ENDMDL
MODEL      148
REMARK 921   NORMALIZED FREE ENERGY PREDICTED BY IDOCK:   -3.10 KCAL/MOL
REMARK 922        TOTAL FREE ENERGY PREDICTED BY IDOCK:   -4.57 KCAL/MOL
REMARK 923 INTER-LIGAND FREE ENERGY PREDICTED BY IDOCK:   -4.26 KCAL/MOL
REMARK 924 INTRA-LIGAND FREE ENERGY PREDICTED BY IDOCK:   -0.32 KCAL/MOL
REMARK 927      BINDING AFFINITY PREDICTED BY RF-SCORE:    0.00 PKD
ROOT
HETATM    1  N   UNL     1      -7.049  15.202  70.265  1.00  0.00    -0.078 N  
HETATM    2  C   UNL     1      -6.972  15.508  68.930  1.00  0.00    -0.130 C  
HETATM    3  H2  UNL     1      -6.729  15.880  70.956  1.00  0.00     0.000 HD 
HETATM    4  H1  UNL     1      -7.423  14.305  70.575  1.00  0.00     0.000 HD 
HETATM    5  O   UNL     1      -6.522  16.589  68.557  1.00  0.00    -0.130 OA 
ENDROOT
BRANCH   2   6
HETATM    6  C   UNL     1      -7.479  14.446  68.041  1.00  0.00    -0.140 A  
HETATM    7  N   UNL     1      -8.780  14.224  67.802  1.00  0.00    -0.169 NA 
HETATM    8  N   UNL     1      -8.746  13.126  67.027  1.00  0.00    -0.209 NA 
HETATM    9  C   UNL     1      -7.467  12.766  66.745  1.00  0.00     0.397 A  
HETATM   10  N   UNL     1      -6.640  13.559  67.378  1.00  0.00    -0.253 NA 
BRANCH   8  11
HETATM   11  C1* UNL     1      -9.950  12.474  66.551  1.00  0.00    -0.244 C  
HETATM   12  O4* UNL     1     -10.133  12.816  65.158  1.00  0.00    -0.278 OA 
HETATM   13  C4* UNL     1     -11.103  13.883  65.080  1.00  0.00    -0.353 C  
HETATM   14  C3* UNL     1     -12.000  13.752  66.312  1.00  0.00    -0.429 C  
HETATM   15  H2* UNL     1     -12.783  11.849  67.997  1.00  0.00     0.000 HD 
HETATM   16  C2* UNL     1     -11.246  12.837  67.280  1.00  0.00    -0.295 C  
HETATM   17  H3* UNL     1     -13.820  13.059  66.755  1.00  0.00     0.000 HD 
HETATM   18  O3* UNL     1     -13.264  13.140  65.990  1.00  0.00     0.132 OA 
HETATM   19  O2* UNL     1     -11.979  11.624  67.544  1.00  0.00    -0.622 OA 
BRANCH  13  20
HETATM   20  C5* UNL     1     -10.374  15.228  64.984  1.00  0.00    -0.342 C  
HETATM   21  O5* UNL     1     -11.108  16.108  64.132  1.00  0.00    -1.113 OA 
HETATM   22  H5* UNL     1     -10.657  16.942  64.072  1.00  0.00     0.000 HD 
ENDBRANCH  13  20
ENDBRANCH   8  11
ENDBRANCH   2   6
TORSDOF 3
ENDMDL
MODEL      149
REMARK 921   NORMALIZED FREE ENERGY PREDICTED BY IDOCK:   -3.08 KCAL/MOL
REMARK 922        TOTAL FREE ENERGY PREDICTED BY IDOCK:   -4.55 KCAL/MOL
REMARK 923 INTER-LIGAND FREE ENERGY PREDICTED BY IDOCK:   -4.00 KCAL/MOL
REMARK 924 INTRA-LIGAND FREE ENERGY PREDICTED BY IDOCK:   -0.55 KCAL/MOL
REMARK 927      BINDING AFFINITY PREDICTED BY RF-SCORE:    0.00 PKD
ROOT
HETATM    1  N   UNL     1      -9.694   8.078  73.079  1.00  0.00    -0.278 N  
HETATM    2  C   UNL     1     -10.419   7.052  72.529  1.00  0.00    -0.216 C  
HETATM    3  H2  UNL     1      -9.711   8.224  74.088  1.00  0.00     0.000 HD 
HETATM    4  H1  UNL     1      -9.136   8.698  72.491  1.00  0.00     0.000 HD 
HETATM    5  O   UNL     1     -11.092   6.306  73.238  1.00  0.00    -0.227 OA 
ENDROOT
BRANCH   2   6
HETATM    6  C   UNL     1     -10.295   6.949  71.064  1.00  0.00    -0.205 A  
HETATM    7  N   UNL     1      -9.307   7.512  70.352  1.00  0.00    -0.161 NA 
HETATM    8  N   UNL     1      -9.665   7.226  69.088  1.00  0.00    -0.159 NA 
HETATM    9  C   UNL     1     -10.776   6.444  69.059  1.00  0.00    -0.286 A  
HETATM   10  N   UNL     1     -11.214   6.262  70.280  1.00  0.00    -0.365 NA 
BRANCH   8  11
HETATM   11  C1* UNL     1      -8.905   7.686  67.943  1.00  0.00    -0.126 C  
HETATM   12  O4* UNL     1      -8.466   9.040  68.203  1.00  0.00    -0.127 OA 
HETATM   13  C4* UNL     1      -9.365   9.943  67.524  1.00  0.00    -0.140 C  
HETATM   14  C3* UNL     1      -9.939   9.178  66.330  1.00  0.00    -0.288 C  
HETATM   15  H2* UNL     1      -9.244   7.142  64.766  1.00  0.00     0.000 HD 
HETATM   16  C2* UNL     1      -9.646   7.700  66.604  1.00  0.00    -0.206 C  
HETATM   17  H3* UNL     1      -9.653   9.078  64.356  1.00  0.00     0.000 HD 
HETATM   18  O3* UNL     1      -9.297   9.553  65.097  1.00  0.00    -0.248 OA 
HETATM   19  O2* UNL     1      -8.784   7.134  65.597  1.00  0.00    -0.143 OA 
BRANCH  13  20
HETATM   20  C5* UNL     1     -10.429  10.438  68.511  1.00  0.00    -0.186 C  
HETATM   21  O5* UNL     1     -11.722  10.027  68.064  1.00  0.00    -0.645 OA 
HETATM   22  H5* UNL     1     -12.381  10.333  68.676  1.00  0.00     0.000 HD 
ENDBRANCH  13  20
ENDBRANCH   8  11
ENDBRANCH   2   6
TORSDOF 3
ENDMDL
MODEL      150
REMARK 921   NORMALIZED FREE ENERGY PREDICTED BY IDOCK:   -3.05 KCAL/MOL
REMARK 922        TOTAL FREE ENERGY PREDICTED BY IDOCK:   -4.52 KCAL/MOL
REMARK 923 INTER-LIGAND FREE ENERGY PREDICTED BY IDOCK:   -4.11 KCAL/MOL
REMARK 924 INTRA-LIGAND FREE ENERGY PREDICTED BY IDOCK:   -0.41 KCAL/MOL
REMARK 927      BINDING AFFINITY PREDICTED BY RF-SCORE:    0.00 PKD
ROOT
HETATM    1  N   UNL     1      -9.557   9.354  62.907  1.00  0.00    -0.397 N  
HETATM    2  C   UNL     1      -9.616  10.588  63.501  1.00  0.00    -0.326 C  
HETATM    3  H2  UNL     1      -9.396   9.285  61.902  1.00  0.00     0.000 HD 
HETATM    4  H1  UNL     1      -9.671   8.502  63.457  1.00  0.00     0.000 HD 
HETATM    5  O   UNL     1      -9.479  11.614  62.838  1.00  0.00    -0.377 OA 
ENDROOT
BRANCH   2   6
HETATM    6  C   UNL     1      -9.842  10.542  64.958  1.00  0.00    -0.306 A  
HETATM    7  N   UNL     1      -9.104   9.814  65.809  1.00  0.00    -0.165 NA 
HETATM    8  N   UNL     1      -9.732  10.019  66.980  1.00  0.00    -0.174 NA 
HETATM    9  C   UNL     1     -10.750  10.907  66.841  1.00  0.00    -0.264 A  
HETATM   10  N   UNL     1     -10.864  11.247  65.581  1.00  0.00    -0.220 NA 
BRANCH   8  11
HETATM   11  C1* UNL     1      -9.311   9.376  68.209  1.00  0.00    -0.133 C  
HETATM   12  O4* UNL     1      -8.782   8.070  67.882  1.00  0.00    -0.128 OA 
HETATM   13  C4* UNL     1      -9.813   7.091  68.138  1.00  0.00    -0.139 C  
HETATM   14  C3* UNL     1     -10.716   7.677  69.225  1.00  0.00    -0.161 C  
HETATM   15  H2* UNL     1     -10.537   9.439  71.209  1.00  0.00     0.000 HD 
HETATM   16  C2* UNL     1     -10.395   9.173  69.269  1.00  0.00    -0.216 C  
HETATM   17  H3* UNL     1     -10.995   7.471  71.192  1.00  0.00     0.000 HD 
HETATM   18  O3* UNL     1     -10.435   7.107  70.517  1.00  0.00    -0.208 OA 
HETATM   19  O2* UNL     1      -9.863   9.564  70.551  1.00  0.00    -0.248 OA 
BRANCH  13  20
HETATM   20  C5* UNL     1     -10.546   6.770  66.830  1.00  0.00    -0.304 C  
HETATM   21  O5* UNL     1     -11.248   5.534  66.969  1.00  0.00    -0.341 OA 
HETATM   22  H5* UNL     1     -11.703   5.335  66.158  1.00  0.00     0.000 HD 
ENDBRANCH  13  20
ENDBRANCH   8  11
ENDBRANCH   2   6
TORSDOF 3
ENDMDL
MODEL      151
REMARK 921   NORMALIZED FREE ENERGY PREDICTED BY IDOCK:   -3.05 KCAL/MOL
REMARK 922        TOTAL FREE ENERGY PREDICTED BY IDOCK:   -4.52 KCAL/MOL
REMARK 923 INTER-LIGAND FREE ENERGY PREDICTED BY IDOCK:   -3.76 KCAL/MOL
REMARK 924 INTRA-LIGAND FREE ENERGY PREDICTED BY IDOCK:   -0.75 KCAL/MOL
REMARK 927      BINDING AFFINITY PREDICTED BY RF-SCORE:    0.00 PKD
ROOT
HETATM    1  N   UNL     1     -11.488  16.049  68.149  1.00  0.00    -0.304 N  
HETATM    2  C   UNL     1     -11.308  14.757  68.572  1.00  0.00    -0.290 C  
HETATM    3  H2  UNL     1     -11.509  16.805  68.834  1.00  0.00     0.000 HD 
HETATM    4  H1  UNL     1     -11.602  16.265  67.158  1.00  0.00     0.000 HD 
HETATM    5  O   UNL     1     -11.171  14.498  69.766  1.00  0.00    -0.255 OA 
ENDROOT
BRANCH   2   6
HETATM    6  C   UNL     1     -11.287  13.767  67.479  1.00  0.00    -0.309 A  
HETATM    7  N   UNL     1     -10.331  12.839  67.326  1.00  0.00    -0.231 NA 
HETATM    8  N   UNL     1     -10.686  12.249  66.172  1.00  0.00    -0.253 NA 
HETATM    9  C   UNL     1     -11.860  12.750  65.707  1.00  0.00    -0.434 A  
HETATM   10  N   UNL     1     -12.262  13.719  66.491  1.00  0.00    -0.441 NA 
BRANCH   8  11
HETATM   11  C1* UNL     1      -9.900  11.193  65.565  1.00  0.00    -0.235 C  
HETATM   12  O4* UNL     1     -10.645   9.957  65.663  1.00  0.00    -0.039 OA 
HETATM   13  C4* UNL     1     -10.132   9.210  66.787  1.00  0.00    -0.271 C  
HETATM   14  C3* UNL     1      -8.675   9.640  66.973  1.00  0.00    -0.128 C  
HETATM   15  H2* UNL     1      -6.706  10.646  65.495  1.00  0.00     0.000 HD 
HETATM   16  C2* UNL     1      -8.522  10.940  66.179  1.00  0.00    -0.171 C  
HETATM   17  H3* UNL     1      -6.855   8.931  66.553  1.00  0.00     0.000 HD 
HETATM   18  O3* UNL     1      -7.759   8.664  66.439  1.00  0.00    -0.092 OA 
HETATM   19  O2* UNL     1      -7.562  10.802  65.113  1.00  0.00    -0.033 OA 
BRANCH  13  20
HETATM   20  C5* UNL     1     -11.014   9.468  68.015  1.00  0.00    -0.096 C  
HETATM   21  O5* UNL     1     -10.318  10.312  68.933  1.00  0.00    -0.182 OA 
HETATM   22  H5* UNL     1     -10.864  10.471  69.694  1.00  0.00     0.000 HD 
ENDBRANCH  13  20
ENDBRANCH   8  11
ENDBRANCH   2   6
TORSDOF 3
ENDMDL
MODEL      152
REMARK 921   NORMALIZED FREE ENERGY PREDICTED BY IDOCK:   -3.05 KCAL/MOL
REMARK 922        TOTAL FREE ENERGY PREDICTED BY IDOCK:   -4.51 KCAL/MOL
REMARK 923 INTER-LIGAND FREE ENERGY PREDICTED BY IDOCK:   -4.31 KCAL/MOL
REMARK 924 INTRA-LIGAND FREE ENERGY PREDICTED BY IDOCK:   -0.20 KCAL/MOL
REMARK 927      BINDING AFFINITY PREDICTED BY RF-SCORE:    0.00 PKD
ROOT
HETATM    1  N   UNL     1     -10.135   9.881  67.809  1.00  0.00    -0.170 N  
HETATM    2  C   UNL     1     -10.806  10.977  68.290  1.00  0.00    -0.215 C  
HETATM    3  H2  UNL     1      -9.588   9.961  66.952  1.00  0.00     0.000 HD 
HETATM    4  H1  UNL     1     -10.177   8.986  68.298  1.00  0.00     0.000 HD 
HETATM    5  O   UNL     1     -10.756  12.054  67.700  1.00  0.00    -0.207 OA 
ENDROOT
BRANCH   2   6
HETATM    6  C   UNL     1     -11.546  10.725  69.540  1.00  0.00    -0.303 A  
HETATM    7  N   UNL     1     -11.712   9.510  70.083  1.00  0.00    -0.121 NA 
HETATM    8  N   UNL     1     -12.509   9.771  71.133  1.00  0.00    -0.331 NA 
HETATM    9  C   UNL     1     -12.732  11.105  71.259  1.00  0.00    -0.426 A  
HETATM   10  N   UNL     1     -12.158  11.739  70.267  1.00  0.00    -0.351 NA 
BRANCH   8  11
HETATM   11  C1* UNL     1     -13.007   8.728  72.008  1.00  0.00    -0.390 C  
HETATM   12  O4* UNL     1     -12.146   8.657  73.168  1.00  0.00    -0.011 OA 
HETATM   13  C4* UNL     1     -11.221   7.565  72.976  1.00  0.00    -0.322 C  
HETATM   14  C3* UNL     1     -11.911   6.562  72.050  1.00  0.00    -0.329 C  
HETATM   15  H2* UNL     1     -14.389   5.863  71.385  1.00  0.00     0.000 HD 
HETATM   16  C2* UNL     1     -13.076   7.321  71.409  1.00  0.00    -0.361 C  
HETATM   17  H3* UNL     1     -12.868   4.816  72.204  1.00  0.00     0.000 HD 
HETATM   18  O3* UNL     1     -12.440   5.438  72.779  1.00  0.00    -0.002 OA 
HETATM   19  O2* UNL     1     -14.346   6.736  71.757  1.00  0.00    -0.287 OA 
BRANCH  13  20
HETATM   20  C5* UNL     1      -9.898   8.110  72.424  1.00  0.00    -0.276 C  
HETATM   21  O5* UNL     1      -9.024   8.426  73.508  1.00  0.00    -0.213 OA 
HETATM   22  H5* UNL     1      -8.204   8.763  73.167  1.00  0.00     0.000 HD 
ENDBRANCH  13  20
ENDBRANCH   8  11
ENDBRANCH   2   6
TORSDOF 3
ENDMDL
MODEL      153
REMARK 921   NORMALIZED FREE ENERGY PREDICTED BY IDOCK:   -3.04 KCAL/MOL
REMARK 922        TOTAL FREE ENERGY PREDICTED BY IDOCK:   -4.51 KCAL/MOL
REMARK 923 INTER-LIGAND FREE ENERGY PREDICTED BY IDOCK:   -3.80 KCAL/MOL
REMARK 924 INTRA-LIGAND FREE ENERGY PREDICTED BY IDOCK:   -0.70 KCAL/MOL
REMARK 927      BINDING AFFINITY PREDICTED BY RF-SCORE:    0.00 PKD
ROOT
HETATM    1  N   UNL     1     -10.592   7.640  72.228  1.00  0.00    -0.229 N  
HETATM    2  C   UNL     1     -10.733   6.677  71.262  1.00  0.00    -0.231 C  
HETATM    3  H2  UNL     1     -10.633   7.376  73.213  1.00  0.00     0.000 HD 
HETATM    4  H1  UNL     1     -10.447   8.618  71.975  1.00  0.00     0.000 HD 
HETATM    5  O   UNL     1     -10.909   5.500  71.567  1.00  0.00    -0.244 OA 
ENDROOT
BRANCH   2   6
HETATM    6  C   UNL     1     -10.643   7.194  69.884  1.00  0.00    -0.230 A  
HETATM    7  N   UNL     1     -10.635   8.498  69.570  1.00  0.00    -0.224 NA 
HETATM    8  N   UNL     1     -10.633   8.469  68.226  1.00  0.00    -0.167 NA 
HETATM    9  C   UNL     1     -10.551   7.195  67.763  1.00  0.00    -0.225 A  
HETATM   10  N   UNL     1     -10.572   6.361  68.774  1.00  0.00    -0.223 NA 
BRANCH   8  11
HETATM   11  C1* UNL     1     -10.677   9.676  67.423  1.00  0.00    -0.241 C  
HETATM   12  O4* UNL     1      -9.338   9.957  66.952  1.00  0.00    -0.147 OA 
HETATM   13  C4* UNL     1      -8.764  10.970  67.807  1.00  0.00    -0.130 C  
HETATM   14  C3* UNL     1      -9.931  11.783  68.372  1.00  0.00    -0.202 C  
HETATM   15  H2* UNL     1     -12.431  12.388  67.694  1.00  0.00     0.000 HD 
HETATM   16  C2* UNL     1     -11.183  10.936  68.128  1.00  0.00    -0.301 C  
HETATM   17  H3* UNL     1     -10.810  13.545  68.036  1.00  0.00     0.000 HD 
HETATM   18  O3* UNL     1     -10.085  13.041  67.686  1.00  0.00    -0.211 OA 
HETATM   19  O2* UNL     1     -12.116  11.606  67.256  1.00  0.00    -0.595 OA 
BRANCH  13  20
HETATM   20  C5* UNL     1      -7.901  10.298  68.882  1.00  0.00    -0.106 C  
HETATM   21  O5* UNL     1      -7.647   8.942  68.510  1.00  0.00    -0.094 OA 
HETATM   22  H5* UNL     1      -7.112   8.526  69.176  1.00  0.00     0.000 HD 
ENDBRANCH  13  20
ENDBRANCH   8  11
ENDBRANCH   2   6
TORSDOF 3
ENDMDL
MODEL      154
REMARK 921   NORMALIZED FREE ENERGY PREDICTED BY IDOCK:   -3.03 KCAL/MOL
REMARK 922        TOTAL FREE ENERGY PREDICTED BY IDOCK:   -4.50 KCAL/MOL
REMARK 923 INTER-LIGAND FREE ENERGY PREDICTED BY IDOCK:   -4.05 KCAL/MOL
REMARK 924 INTRA-LIGAND FREE ENERGY PREDICTED BY IDOCK:   -0.45 KCAL/MOL
REMARK 927      BINDING AFFINITY PREDICTED BY RF-SCORE:    0.00 PKD
ROOT
HETATM    1  N   UNL     1      -9.466  19.644  68.622  1.00  0.00    -0.364 N  
HETATM    2  C   UNL     1     -10.173  19.269  67.508  1.00  0.00    -0.414 C  
HETATM    3  H2  UNL     1      -9.627  20.562  69.035  1.00  0.00     0.000 HD 
HETATM    4  H1  UNL     1      -8.781  19.015  69.042  1.00  0.00     0.000 HD 
HETATM    5  O   UNL     1     -10.998  20.026  67.001  1.00  0.00    -0.292 OA 
ENDROOT
BRANCH   2   6
HETATM    6  C   UNL     1      -9.851  17.915  67.021  1.00  0.00    -0.314 A  
HETATM    7  N   UNL     1      -8.845  17.166  67.496  1.00  0.00    -0.215 NA 
HETATM    8  N   UNL     1      -8.892  16.084  66.700  1.00  0.00    -0.243 NA 
HETATM    9  C   UNL     1      -9.945  16.151  65.844  1.00  0.00    -0.356 A  
HETATM   10  N   UNL     1     -10.563  17.295  66.002  1.00  0.00    -0.287 NA 
BRANCH   8  11
HETATM   11  C1* UNL     1      -7.939  14.997  66.808  1.00  0.00     0.044 C  
HETATM   12  O4* UNL     1      -8.668  13.748  66.779  1.00  0.00    -0.190 OA 
HETATM   13  C4* UNL     1      -8.818  13.283  68.138  1.00  0.00    -0.187 C  
HETATM   14  C3* UNL     1      -7.645  13.859  68.933  1.00  0.00    -0.060 C  
HETATM   15  H2* UNL     1      -5.169  14.712  68.468  1.00  0.00     0.000 HD 
HETATM   16  C2* UNL     1      -7.071  14.986  68.069  1.00  0.00    -0.132 C  
HETATM   17  H3* UNL     1      -5.886  13.234  69.644  1.00  0.00     0.000 HD 
HETATM   18  O3* UNL     1      -6.614  12.876  69.151  1.00  0.00    -0.102 OA 
HETATM   19  O2* UNL     1      -5.707  14.719  67.685  1.00  0.00    -0.299 OA 
BRANCH  13  20
HETATM   20  C5* UNL     1     -10.193  13.704  68.670  1.00  0.00    -0.197 C  
HETATM   21  O5* UNL     1     -10.750  12.640  69.443  1.00  0.00    -0.439 OA 
HETATM   22  H5* UNL     1     -11.602  12.900  69.773  1.00  0.00     0.000 HD 
ENDBRANCH  13  20
ENDBRANCH   8  11
ENDBRANCH   2   6
TORSDOF 3
ENDMDL
MODEL      155
REMARK 921   NORMALIZED FREE ENERGY PREDICTED BY IDOCK:   -3.01 KCAL/MOL
REMARK 922        TOTAL FREE ENERGY PREDICTED BY IDOCK:   -4.47 KCAL/MOL
REMARK 923 INTER-LIGAND FREE ENERGY PREDICTED BY IDOCK:   -3.58 KCAL/MOL
REMARK 924 INTRA-LIGAND FREE ENERGY PREDICTED BY IDOCK:   -0.89 KCAL/MOL
REMARK 927      BINDING AFFINITY PREDICTED BY RF-SCORE:    0.00 PKD
ROOT
HETATM    1  N   UNL     1     -11.168   4.143  64.954  1.00  0.00    -0.745 N  
HETATM    2  C   UNL     1      -9.840   4.267  65.271  1.00  0.00    -0.207 C  
HETATM    3  H2  UNL     1     -11.439   3.916  63.997  1.00  0.00     0.000 HD 
HETATM    4  H1  UNL     1     -11.890   4.273  65.663  1.00  0.00     0.000 HD 
HETATM    5  O   UNL     1      -8.971   4.110  64.416  1.00  0.00    -0.131 OA 
ENDROOT
BRANCH   2   6
HETATM    6  C   UNL     1      -9.589   4.584  66.689  1.00  0.00    -0.190 A  
HETATM    7  N   UNL     1     -10.502   5.125  67.510  1.00  0.00    -0.130 NA 
HETATM    8  N   UNL     1      -9.799   5.308  68.641  1.00  0.00    -0.145 NA 
HETATM    9  C   UNL     1      -8.540   4.810  68.520  1.00  0.00    -0.093 A  
HETATM   10  N   UNL     1      -8.363   4.362  67.302  1.00  0.00    -0.100 NA 
BRANCH   8  11
HETATM   11  C1* UNL     1     -10.370   5.929  69.819  1.00  0.00    -0.243 C  
HETATM   12  O4* UNL     1     -11.201   7.034  69.394  1.00  0.00    -0.189 OA 
HETATM   13  C4* UNL     1     -10.442   8.253  69.552  1.00  0.00    -0.227 C  
HETATM   14  C3* UNL     1      -9.428   7.999  70.669  1.00  0.00    -0.162 C  
HETATM   15  H2* UNL     1      -9.181   6.419  72.795  1.00  0.00     0.000 HD 
HETATM   16  C2* UNL     1      -9.374   6.478  70.842  1.00  0.00    -0.161 C  
HETATM   17  H3* UNL     1      -9.219   8.430  72.608  1.00  0.00     0.000 HD 
HETATM   18  O3* UNL     1      -9.848   8.588  71.915  1.00  0.00    -0.231 OA 
HETATM   19  O2* UNL     1      -9.800   6.078  72.160  1.00  0.00    -0.162 OA 
BRANCH  13  20
HETATM   20  C5* UNL     1      -9.804   8.633  68.211  1.00  0.00    -0.165 C  
HETATM   21  O5* UNL     1     -10.493   7.969  67.151  1.00  0.00    -0.298 OA 
HETATM   22  H5* UNL     1     -10.097   8.204  66.319  1.00  0.00     0.000 HD 
ENDBRANCH  13  20
ENDBRANCH   8  11
ENDBRANCH   2   6
TORSDOF 3
ENDMDL
MODEL      156
REMARK 921   NORMALIZED FREE ENERGY PREDICTED BY IDOCK:   -3.00 KCAL/MOL
REMARK 922        TOTAL FREE ENERGY PREDICTED BY IDOCK:   -4.46 KCAL/MOL
REMARK 923 INTER-LIGAND FREE ENERGY PREDICTED BY IDOCK:   -3.61 KCAL/MOL
REMARK 924 INTRA-LIGAND FREE ENERGY PREDICTED BY IDOCK:   -0.85 KCAL/MOL
REMARK 927      BINDING AFFINITY PREDICTED BY RF-SCORE:    0.00 PKD
ROOT
HETATM    1  N   UNL     1     -10.512   8.177  72.578  1.00  0.00    -0.316 N  
HETATM    2  C   UNL     1     -10.847   6.974  72.011  1.00  0.00    -0.223 C  
HETATM    3  H2  UNL     1     -10.508   8.272  73.594  1.00  0.00     0.000 HD 
HETATM    4  H1  UNL     1     -10.267   8.979  71.997  1.00  0.00     0.000 HD 
HETATM    5  O   UNL     1     -11.142   6.008  72.711  1.00  0.00    -0.248 OA 
ENDROOT
BRANCH   2   6
HETATM    6  C   UNL     1     -10.801   6.973  70.537  1.00  0.00    -0.251 A  
HETATM    7  N   UNL     1     -10.499   8.049  69.795  1.00  0.00    -0.224 NA 
HETATM    8  N   UNL     1     -10.673   7.592  68.543  1.00  0.00    -0.129 NA 
HETATM    9  C   UNL     1     -10.980   6.268  68.543  1.00  0.00    -0.340 A  
HETATM   10  N   UNL     1     -11.087   5.845  69.778  1.00  0.00    -0.389 NA 
BRANCH   8  11
HETATM   11  C1* UNL     1     -10.506   8.437  67.377  1.00  0.00    -0.283 C  
HETATM   12  O4* UNL     1      -9.546   7.810  66.495  1.00  0.00    -0.202 OA 
HETATM   13  C4* UNL     1      -8.265   8.445  66.701  1.00  0.00    -0.105 C  
HETATM   14  C3* UNL     1      -8.552   9.865  67.193  1.00  0.00    -0.125 C  
HETATM   15  H2* UNL     1     -10.509  11.659  67.027  1.00  0.00     0.000 HD 
HETATM   16  C2* UNL     1     -10.016   9.862  67.642  1.00  0.00    -0.171 C  
HETATM   17  H3* UNL     1      -8.575  11.718  66.445  1.00  0.00     0.000 HD 
HETATM   18  O3* UNL     1      -8.397  10.836  66.140  1.00  0.00    -0.156 OA 
HETATM   19  O2* UNL     1     -10.813  10.774  66.861  1.00  0.00    -0.263 OA 
BRANCH  13  20
HETATM   20  C5* UNL     1      -7.434   7.607  67.679  1.00  0.00    -0.104 C  
HETATM   21  O5* UNL     1      -7.527   8.172  68.988  1.00  0.00    -0.084 OA 
HETATM   22  H5* UNL     1      -7.012   7.653  69.595  1.00  0.00     0.000 HD 
ENDBRANCH  13  20
ENDBRANCH   8  11
ENDBRANCH   2   6
TORSDOF 3
ENDMDL
MODEL      157
REMARK 921   NORMALIZED FREE ENERGY PREDICTED BY IDOCK:   -2.99 KCAL/MOL
REMARK 922        TOTAL FREE ENERGY PREDICTED BY IDOCK:   -4.45 KCAL/MOL
REMARK 923 INTER-LIGAND FREE ENERGY PREDICTED BY IDOCK:   -3.99 KCAL/MOL
REMARK 924 INTRA-LIGAND FREE ENERGY PREDICTED BY IDOCK:   -0.46 KCAL/MOL
REMARK 927      BINDING AFFINITY PREDICTED BY RF-SCORE:    0.00 PKD
ROOT
HETATM    1  N   UNL     1     -11.202   4.894  65.779  1.00  0.00    -0.893 N  
HETATM    2  C   UNL     1     -10.067   5.044  66.534  1.00  0.00    -0.248 C  
HETATM    3  H2  UNL     1     -11.447   3.974  65.413  1.00  0.00     0.000 HD 
HETATM    4  H1  UNL     1     -11.805   5.692  65.577  1.00  0.00     0.000 HD 
HETATM    5  O   UNL     1      -9.340   4.082  66.776  1.00  0.00    -0.156 OA 
ENDROOT
BRANCH   2   6
HETATM    6  C   UNL     1      -9.838   6.421  67.007  1.00  0.00    -0.154 A  
HETATM    7  N   UNL     1     -10.646   7.455  66.727  1.00  0.00    -0.286 NA 
HETATM    8  N   UNL     1      -9.992   8.489  67.283  1.00  0.00    -0.203 NA 
HETATM    9  C   UNL     1      -8.884   8.068  67.946  1.00  0.00    -0.130 A  
HETATM   10  N   UNL     1      -8.741   6.776  67.782  1.00  0.00    -0.120 NA 
BRANCH   8  11
HETATM   11  C1* UNL     1     -10.473   9.853  67.188  1.00  0.00    -0.242 C  
HETATM   12  O4* UNL     1     -10.509  10.228  65.791  1.00  0.00    -0.196 OA 
HETATM   13  C4* UNL     1      -9.323  10.999  65.502  1.00  0.00    -0.215 C  
HETATM   14  C3* UNL     1      -8.899  11.664  66.814  1.00  0.00    -0.184 C  
HETATM   15  H2* UNL     1     -10.029  12.437  69.094  1.00  0.00     0.000 HD 
HETATM   16  C2* UNL     1      -9.645  10.912  67.920  1.00  0.00    -0.166 C  
HETATM   17  H3* UNL     1      -9.024  13.463  67.673  1.00  0.00     0.000 HD 
HETATM   18  O3* UNL     1      -9.287  13.051  66.859  1.00  0.00    -0.228 OA 
HETATM   19  O2* UNL     1     -10.543  11.780  68.640  1.00  0.00    -0.211 OA 
BRANCH  13  20
HETATM   20  C5* UNL     1      -8.252  10.081  64.900  1.00  0.00    -0.154 C  
HETATM   21  O5* UNL     1      -8.758   9.477  63.709  1.00  0.00    -0.202 OA 
HETATM   22  H5* UNL     1      -8.095   8.908  63.336  1.00  0.00     0.000 HD 
ENDBRANCH  13  20
ENDBRANCH   8  11
ENDBRANCH   2   6
TORSDOF 3
ENDMDL
MODEL      158
REMARK 921   NORMALIZED FREE ENERGY PREDICTED BY IDOCK:   -2.98 KCAL/MOL
REMARK 922        TOTAL FREE ENERGY PREDICTED BY IDOCK:   -4.44 KCAL/MOL
REMARK 923 INTER-LIGAND FREE ENERGY PREDICTED BY IDOCK:   -3.52 KCAL/MOL
REMARK 924 INTRA-LIGAND FREE ENERGY PREDICTED BY IDOCK:   -0.92 KCAL/MOL
REMARK 927      BINDING AFFINITY PREDICTED BY RF-SCORE:    0.00 PKD
ROOT
HETATM    1  N   UNL     1      -8.125   5.572  68.816  1.00  0.00    -0.098 N  
HETATM    2  C   UNL     1      -8.503   6.157  67.634  1.00  0.00    -0.108 C  
HETATM    3  H2  UNL     1      -7.620   4.687  68.802  1.00  0.00     0.000 HD 
HETATM    4  H1  UNL     1      -8.345   6.012  69.710  1.00  0.00     0.000 HD 
HETATM    5  O   UNL     1      -8.239   5.627  66.557  1.00  0.00    -0.105 OA 
ENDROOT
BRANCH   2   6
HETATM    6  C   UNL     1      -9.215   7.437  67.799  1.00  0.00    -0.131 A  
HETATM    7  N   UNL     1      -8.908   8.353  68.730  1.00  0.00    -0.140 NA 
HETATM    8  N   UNL     1      -9.867   9.277  68.551  1.00  0.00    -0.154 NA 
HETATM    9  C   UNL     1     -10.659   8.963  67.493  1.00  0.00    -0.237 A  
HETATM   10  N   UNL     1     -10.293   7.804  67.003  1.00  0.00    -0.310 NA 
BRANCH   8  11
HETATM   11  C1* UNL     1      -9.974  10.458  69.386  1.00  0.00    -0.218 C  
HETATM   12  O4* UNL     1     -10.021  10.035  70.768  1.00  0.00    -0.073 OA 
HETATM   13  C4* UNL     1     -11.401  10.041  71.194  1.00  0.00    -0.323 C  
HETATM   14  C3* UNL     1     -12.123  11.077  70.330  1.00  0.00    -0.373 C  
HETATM   15  H2* UNL     1     -11.522  13.273  68.957  1.00  0.00     0.000 HD 
HETATM   16  C2* UNL     1     -11.195  11.347  69.143  1.00  0.00    -0.272 C  
HETATM   17  H3* UNL     1     -12.780  12.955  70.505  1.00  0.00     0.000 HD 
HETATM   18  O3* UNL     1     -12.332  12.312  71.041  1.00  0.00    -0.351 OA 
HETATM   19  O2* UNL     1     -10.763  12.722  69.108  1.00  0.00    -0.150 OA 
BRANCH  13  20
HETATM   20  C5* UNL     1     -11.976   8.625  71.074  1.00  0.00    -0.243 C  
HETATM   21  O5* UNL     1     -10.909   7.676  71.068  1.00  0.00    -0.236 OA 
HETATM   22  H5* UNL     1     -11.265   6.798  70.994  1.00  0.00     0.000 HD 
ENDBRANCH  13  20
ENDBRANCH   8  11
ENDBRANCH   2   6
TORSDOF 3
ENDMDL
MODEL      159
REMARK 921   NORMALIZED FREE ENERGY PREDICTED BY IDOCK:   -2.97 KCAL/MOL
REMARK 922        TOTAL FREE ENERGY PREDICTED BY IDOCK:   -4.42 KCAL/MOL
REMARK 923 INTER-LIGAND FREE ENERGY PREDICTED BY IDOCK:   -3.94 KCAL/MOL
REMARK 924 INTRA-LIGAND FREE ENERGY PREDICTED BY IDOCK:   -0.48 KCAL/MOL
REMARK 927      BINDING AFFINITY PREDICTED BY RF-SCORE:    0.00 PKD
ROOT
HETATM    1  N   UNL     1      -9.613   1.892  72.775  1.00  0.00    -0.082 N  
HETATM    2  C   UNL     1      -9.057   3.011  72.209  1.00  0.00    -0.096 C  
HETATM    3  H2  UNL     1      -9.290   0.969  72.488  1.00  0.00     0.000 HD 
HETATM    4  H1  UNL     1     -10.347   1.973  73.480  1.00  0.00     0.000 HD 
HETATM    5  O   UNL     1      -8.174   2.915  71.360  1.00  0.00    -0.061 OA 
ENDROOT
BRANCH   2   6
HETATM    6  C   UNL     1      -9.608   4.279  72.722  1.00  0.00    -0.128 A  
HETATM    7  N   UNL     1      -9.515   5.453  72.079  1.00  0.00    -0.147 NA 
HETATM    8  N   UNL     1     -10.068   6.307  72.958  1.00  0.00    -0.177 NA 
HETATM    9  C   UNL     1     -10.552   5.647  74.042  1.00  0.00    -0.229 A  
HETATM   10  N   UNL     1     -10.268   4.372  73.941  1.00  0.00    -0.166 NA 
BRANCH   8  11
HETATM   11  C1* UNL     1     -10.144   7.733  72.713  1.00  0.00    -0.282 C  
HETATM   12  O4* UNL     1     -11.512   8.157  72.915  1.00  0.00    -0.389 OA 
HETATM   13  C4* UNL     1     -12.147   8.258  71.623  1.00  0.00    -0.306 C  
HETATM   14  C3* UNL     1     -11.039   8.549  70.609  1.00  0.00    -0.252 C  
HETATM   15  H2* UNL     1      -8.615   9.644  70.586  1.00  0.00     0.000 HD 
HETATM   16  C2* UNL     1      -9.727   8.200  71.316  1.00  0.00    -0.164 C  
HETATM   17  H3* UNL     1     -10.318  10.121  69.610  1.00  0.00     0.000 HD 
HETATM   18  O3* UNL     1     -11.006   9.941  70.238  1.00  0.00    -0.262 OA 
HETATM   19  O2* UNL     1      -8.874   9.354  71.454  1.00  0.00    -0.281 OA 
BRANCH  13  20
HETATM   20  C5* UNL     1     -12.926   6.969  71.336  1.00  0.00    -0.340 C  
HETATM   21  O5* UNL     1     -14.121   6.950  72.118  1.00  0.00    -0.577 OA 
HETATM   22  H5* UNL     1     -14.604   6.151  71.941  1.00  0.00     0.000 HD 
ENDBRANCH  13  20
ENDBRANCH   8  11
ENDBRANCH   2   6
TORSDOF 3
ENDMDL
MODEL      160
REMARK 921   NORMALIZED FREE ENERGY PREDICTED BY IDOCK:   -2.96 KCAL/MOL
REMARK 922        TOTAL FREE ENERGY PREDICTED BY IDOCK:   -4.41 KCAL/MOL
REMARK 923 INTER-LIGAND FREE ENERGY PREDICTED BY IDOCK:   -4.05 KCAL/MOL
REMARK 924 INTRA-LIGAND FREE ENERGY PREDICTED BY IDOCK:   -0.36 KCAL/MOL
REMARK 927      BINDING AFFINITY PREDICTED BY RF-SCORE:    0.00 PKD
ROOT
HETATM    1  N   UNL     1     -11.667  12.152  66.578  1.00  0.00    -0.362 N  
HETATM    2  C   UNL     1     -10.607  12.729  65.926  1.00  0.00    -0.274 C  
HETATM    3  H2  UNL     1     -12.444  11.772  66.039  1.00  0.00     0.000 HD 
HETATM    4  H1  UNL     1     -11.687  12.098  67.597  1.00  0.00     0.000 HD 
HETATM    5  O   UNL     1     -10.583  12.795  64.699  1.00  0.00    -0.312 OA 
ENDROOT
BRANCH   2   6
HETATM    6  C   UNL     1      -9.549  13.226  66.825  1.00  0.00    -0.258 A  
HETATM    7  N   UNL     1      -9.669  14.318  67.595  1.00  0.00    -0.217 NA 
HETATM    8  N   UNL     1      -8.448  14.416  68.147  1.00  0.00    -0.152 NA 
HETATM    9  C   UNL     1      -7.662  13.368  67.786  1.00  0.00    -0.161 A  
HETATM   10  N   UNL     1      -8.311  12.607  66.941  1.00  0.00    -0.127 NA 
BRANCH   8  11
HETATM   11  C1* UNL     1      -8.082  15.501  69.036  1.00  0.00    -0.220 C  
HETATM   12  O4* UNL     1      -8.900  16.649  68.713  1.00  0.00    -0.249 OA 
HETATM   13  C4* UNL     1      -8.121  17.537  67.882  1.00  0.00    -0.230 C  
HETATM   14  C3* UNL     1      -6.652  17.290  68.231  1.00  0.00    -0.171 C  
HETATM   15  H2* UNL     1      -5.232  16.395  70.294  1.00  0.00     0.000 HD 
HETATM   16  C2* UNL     1      -6.622  15.955  68.980  1.00  0.00    -0.142 C  
HETATM   17  H3* UNL     1      -5.217  18.161  69.314  1.00  0.00     0.000 HD 
HETATM   18  O3* UNL     1      -6.129  18.315  69.097  1.00  0.00    -0.216 OA 
HETATM   19  O2* UNL     1      -6.138  16.113  70.329  1.00  0.00    -0.143 OA 
BRANCH  13  20
HETATM   20  C5* UNL     1      -8.458  17.282  66.409  1.00  0.00    -0.269 C  
HETATM   21  O5* UNL     1      -7.601  18.069  65.581  1.00  0.00    -0.545 OA 
HETATM   22  H5* UNL     1      -7.809  17.911  64.667  1.00  0.00     0.000 HD 
ENDBRANCH  13  20
ENDBRANCH   8  11
ENDBRANCH   2   6
TORSDOF 3
ENDMDL
MODEL      161
REMARK 921   NORMALIZED FREE ENERGY PREDICTED BY IDOCK:   -2.95 KCAL/MOL
REMARK 922        TOTAL FREE ENERGY PREDICTED BY IDOCK:   -4.40 KCAL/MOL
REMARK 923 INTER-LIGAND FREE ENERGY PREDICTED BY IDOCK:   -3.57 KCAL/MOL
REMARK 924 INTRA-LIGAND FREE ENERGY PREDICTED BY IDOCK:   -0.83 KCAL/MOL
REMARK 927      BINDING AFFINITY PREDICTED BY RF-SCORE:    0.00 PKD
ROOT
HETATM    1  N   UNL     1     -10.888  13.672  67.296  1.00  0.00    -0.282 N  
HETATM    2  C   UNL     1     -11.234  12.442  66.798  1.00  0.00    -0.310 C  
HETATM    3  H2  UNL     1     -11.079  14.510  66.747  1.00  0.00     0.000 HD 
HETATM    4  H1  UNL     1     -10.441  13.759  68.209  1.00  0.00     0.000 HD 
HETATM    5  O   UNL     1     -11.772  12.337  65.697  1.00  0.00    -0.382 OA 
ENDROOT
BRANCH   2   6
HETATM    6  C   UNL     1     -10.913  11.319  67.697  1.00  0.00    -0.259 A  
HETATM    7  N   UNL     1     -10.739  10.054  67.285  1.00  0.00    -0.262 NA 
HETATM    8  N   UNL     1     -10.561   9.397  68.444  1.00  0.00    -0.219 NA 
HETATM    9  C   UNL     1     -10.540  10.256  69.496  1.00  0.00    -0.245 A  
HETATM   10  N   UNL     1     -10.775  11.473  69.070  1.00  0.00    -0.209 NA 
BRANCH   8  11
HETATM   11  C1* UNL     1     -10.382   7.959  68.503  1.00  0.00    -0.200 C  
HETATM   12  O4* UNL     1      -9.275   7.675  69.389  1.00  0.00    -0.149 OA 
HETATM   13  C4* UNL     1      -8.102   7.433  68.582  1.00  0.00    -0.125 C  
HETATM   14  C3* UNL     1      -8.598   6.914  67.231  1.00  0.00    -0.120 C  
HETATM   15  H2* UNL     1     -10.724   5.647  66.257  1.00  0.00     0.000 HD 
HETATM   16  C2* UNL     1     -10.087   7.262  67.173  1.00  0.00    -0.236 C  
HETATM   17  H3* UNL     1      -8.763   5.162  66.286  1.00  0.00     0.000 HD 
HETATM   18  O3* UNL     1      -8.455   5.484  67.124  1.00  0.00    -0.111 OA 
HETATM   19  O2* UNL     1     -10.907   6.079  67.083  1.00  0.00    -0.301 OA 
BRANCH  13  20
HETATM   20  C5* UNL     1      -7.277   8.722  68.484  1.00  0.00    -0.074 C  
HETATM   21  O5* UNL     1      -7.653   9.441  67.309  1.00  0.00    -0.091 OA 
HETATM   22  H5* UNL     1      -7.142  10.239  67.248  1.00  0.00     0.000 HD 
ENDBRANCH  13  20
ENDBRANCH   8  11
ENDBRANCH   2   6
TORSDOF 3
ENDMDL
MODEL      162
REMARK 921   NORMALIZED FREE ENERGY PREDICTED BY IDOCK:   -2.94 KCAL/MOL
REMARK 922        TOTAL FREE ENERGY PREDICTED BY IDOCK:   -4.39 KCAL/MOL
REMARK 923 INTER-LIGAND FREE ENERGY PREDICTED BY IDOCK:   -3.86 KCAL/MOL
REMARK 924 INTRA-LIGAND FREE ENERGY PREDICTED BY IDOCK:   -0.53 KCAL/MOL
REMARK 927      BINDING AFFINITY PREDICTED BY RF-SCORE:    0.00 PKD
ROOT
HETATM    1  N   UNL     1     -14.411   8.589  71.058  1.00  0.00    -0.631 N  
HETATM    2  C   UNL     1     -13.279   9.238  71.481  1.00  0.00    -0.367 C  
HETATM    3  H2  UNL     1     -15.275   9.115  70.932  1.00  0.00     0.000 HD 
HETATM    4  H1  UNL     1     -14.398   7.587  70.868  1.00  0.00     0.000 HD 
HETATM    5  O   UNL     1     -13.294  10.446  71.711  1.00  0.00    -0.393 OA 
ENDROOT
BRANCH   2   6
HETATM    6  C   UNL     1     -12.099   8.363  71.611  1.00  0.00    -0.313 A  
HETATM    7  N   UNL     1     -11.200   8.457  72.602  1.00  0.00    -0.343 NA 
HETATM    8  N   UNL     1     -10.287   7.536  72.249  1.00  0.00    -0.207 NA 
HETATM    9  C   UNL     1     -10.678   6.859  71.138  1.00  0.00    -0.225 A  
HETATM   10  N   UNL     1     -11.804   7.361  70.695  1.00  0.00    -0.257 NA 
BRANCH   8  11
HETATM   11  C1* UNL     1      -9.076   7.310  73.013  1.00  0.00    -0.142 C  
HETATM   12  O4* UNL     1      -8.277   8.515  72.967  1.00  0.00    -0.357 OA 
HETATM   13  C4* UNL     1      -7.255   8.338  71.962  1.00  0.00    -0.091 C  
HETATM   14  C3* UNL     1      -6.993   6.834  71.860  1.00  0.00    -0.070 C  
HETATM   15  H2* UNL     1      -7.225   4.677  73.399  1.00  0.00     0.000 HD 
HETATM   16  C2* UNL     1      -8.186   6.158  72.542  1.00  0.00    -0.108 C  
HETATM   17  H3* UNL     1      -5.628   5.520  72.493  1.00  0.00     0.000 HD 
HETATM   18  O3* UNL     1      -5.790   6.453  72.556  1.00  0.00    -0.037 OA 
HETATM   19  O2* UNL     1      -7.777   5.392  73.693  1.00  0.00    -0.101 OA 
BRANCH  13  20
HETATM   20  C5* UNL     1      -7.718   8.976  70.647  1.00  0.00    -0.121 C  
HETATM   21  O5* UNL     1      -7.546   8.043  69.579  1.00  0.00    -0.096 OA 
HETATM   22  H5* UNL     1      -7.833   8.438  68.764  1.00  0.00     0.000 HD 
ENDBRANCH  13  20
ENDBRANCH   8  11
ENDBRANCH   2   6
TORSDOF 3
ENDMDL
MODEL      163
REMARK 921   NORMALIZED FREE ENERGY PREDICTED BY IDOCK:   -2.88 KCAL/MOL
REMARK 922        TOTAL FREE ENERGY PREDICTED BY IDOCK:   -4.32 KCAL/MOL
REMARK 923 INTER-LIGAND FREE ENERGY PREDICTED BY IDOCK:   -3.42 KCAL/MOL
REMARK 924 INTRA-LIGAND FREE ENERGY PREDICTED BY IDOCK:   -0.90 KCAL/MOL
REMARK 927      BINDING AFFINITY PREDICTED BY RF-SCORE:    0.00 PKD
ROOT
HETATM    1  N   UNL     1      -6.303   9.269  66.910  1.00  0.00    -0.065 N  
HETATM    2  C   UNL     1      -7.480   8.757  66.427  1.00  0.00    -0.087 C  
HETATM    3  H2  UNL     1      -5.423   9.019  66.461  1.00  0.00     0.000 HD 
HETATM    4  H1  UNL     1      -6.298   9.897  67.714  1.00  0.00     0.000 HD 
HETATM    5  O   UNL     1      -7.487   8.000  65.458  1.00  0.00    -0.076 OA 
ENDROOT
BRANCH   2   6
HETATM    6  C   UNL     1      -8.677   9.208  67.161  1.00  0.00    -0.123 A  
HETATM    7  N   UNL     1      -8.659   9.644  68.430  1.00  0.00    -0.119 NA 
HETATM    8  N   UNL     1      -9.963   9.847  68.682  1.00  0.00    -0.159 NA 
HETATM    9  C   UNL     1     -10.716   9.626  67.573  1.00  0.00    -0.256 A  
HETATM   10  N   UNL     1      -9.947   9.205  66.600  1.00  0.00    -0.251 NA 
BRANCH   8  11
HETATM   11  C1* UNL     1     -10.445  10.283  69.978  1.00  0.00    -0.241 C  
HETATM   12  O4* UNL     1      -9.703   9.578  71.000  1.00  0.00    -0.250 OA 
HETATM   13  C4* UNL     1     -10.513   8.475  71.463  1.00  0.00    -0.248 C  
HETATM   14  C3* UNL     1     -11.972   8.873  71.233  1.00  0.00    -0.307 C  
HETATM   15  H2* UNL     1     -13.403  11.104  71.018  1.00  0.00     0.000 HD 
HETATM   16  C2* UNL     1     -11.932  10.052  70.257  1.00  0.00    -0.187 C  
HETATM   17  H3* UNL     1     -13.510   9.555  72.310  1.00  0.00     0.000 HD 
HETATM   18  O3* UNL     1     -12.605   9.307  72.452  1.00  0.00    -0.351 OA 
HETATM   19  O2* UNL     1     -12.480  11.248  70.845  1.00  0.00    -0.365 OA 
BRANCH  13  20
HETATM   20  C5* UNL     1     -10.097   7.195  70.728  1.00  0.00    -0.190 C  
HETATM   21  O5* UNL     1      -8.772   7.348  70.217  1.00  0.00    -0.143 OA 
HETATM   22  H5* UNL     1      -8.514   6.555  69.762  1.00  0.00     0.000 HD 
ENDBRANCH  13  20
ENDBRANCH   8  11
ENDBRANCH   2   6
TORSDOF 3
ENDMDL
MODEL      164
REMARK 921   NORMALIZED FREE ENERGY PREDICTED BY IDOCK:   -2.88 KCAL/MOL
REMARK 922        TOTAL FREE ENERGY PREDICTED BY IDOCK:   -4.32 KCAL/MOL
REMARK 923 INTER-LIGAND FREE ENERGY PREDICTED BY IDOCK:   -3.65 KCAL/MOL
REMARK 924 INTRA-LIGAND FREE ENERGY PREDICTED BY IDOCK:   -0.67 KCAL/MOL
REMARK 927      BINDING AFFINITY PREDICTED BY RF-SCORE:    0.00 PKD
ROOT
HETATM    1  N   UNL     1     -11.317  12.251  67.883  1.00  0.00    -0.276 N  
HETATM    2  C   UNL     1     -11.423  11.189  68.745  1.00  0.00    -0.299 C  
HETATM    3  H2  UNL     1     -12.022  12.988  67.903  1.00  0.00     0.000 HD 
HETATM    4  H1  UNL     1     -10.542  12.314  67.223  1.00  0.00     0.000 HD 
HETATM    5  O   UNL     1     -12.357  11.114  69.540  1.00  0.00    -0.301 OA 
ENDROOT
BRANCH   2   6
HETATM    6  C   UNL     1     -10.333  10.205  68.619  1.00  0.00    -0.188 A  
HETATM    7  N   UNL     1     -10.365   8.976  69.156  1.00  0.00    -0.215 NA 
HETATM    8  N   UNL     1      -9.144   8.500  68.858  1.00  0.00    -0.146 NA 
HETATM    9  C   UNL     1      -8.447   9.382  68.095  1.00  0.00    -0.120 A  
HETATM   10  N   UNL     1      -9.153  10.474  67.937  1.00  0.00    -0.135 NA 
BRANCH   8  11
HETATM   11  C1* UNL     1      -8.693   7.192  69.290  1.00  0.00    -0.136 C  
HETATM   12  O4* UNL     1      -8.599   6.336  68.128  1.00  0.00    -0.117 OA 
HETATM   13  C4* UNL     1      -9.788   5.519  68.073  1.00  0.00    -0.139 C  
HETATM   14  C3* UNL     1     -10.291   5.378  69.511  1.00  0.00    -0.280 C  
HETATM   15  H2* UNL     1      -9.295   5.478  71.975  1.00  0.00     0.000 HD 
HETATM   16  C2* UNL     1      -9.582   6.475  70.309  1.00  0.00    -0.161 C  
HETATM   17  H3* UNL     1     -10.254   4.012  70.968  1.00  0.00     0.000 HD 
HETATM   18  O3* UNL     1      -9.942   4.099  70.076  1.00  0.00    -0.213 OA 
HETATM   19  O2* UNL     1      -8.743   5.922  71.342  1.00  0.00    -0.131 OA 
BRANCH  13  20
HETATM   20  C5* UNL     1     -10.804   6.162  67.122  1.00  0.00    -0.360 C  
HETATM   21  O5* UNL     1     -10.121   7.012  66.199  1.00  0.00    -0.431 OA 
HETATM   22  H5* UNL     1     -10.750   7.410  65.610  1.00  0.00     0.000 HD 
ENDBRANCH  13  20
ENDBRANCH   8  11
ENDBRANCH   2   6
TORSDOF 3
ENDMDL
MODEL      165
REMARK 921   NORMALIZED FREE ENERGY PREDICTED BY IDOCK:   -2.87 KCAL/MOL
REMARK 922        TOTAL FREE ENERGY PREDICTED BY IDOCK:   -4.30 KCAL/MOL
REMARK 923 INTER-LIGAND FREE ENERGY PREDICTED BY IDOCK:   -3.68 KCAL/MOL
REMARK 924 INTRA-LIGAND FREE ENERGY PREDICTED BY IDOCK:   -0.62 KCAL/MOL
REMARK 927      BINDING AFFINITY PREDICTED BY RF-SCORE:    0.00 PKD
ROOT
HETATM    1  N   UNL     1     -11.337  12.280  63.899  1.00  0.00    -0.390 N  
HETATM    2  C   UNL     1     -10.931  12.471  65.195  1.00  0.00    -0.297 C  
HETATM    3  H2  UNL     1     -11.913  12.987  63.442  1.00  0.00     0.000 HD 
HETATM    4  H1  UNL     1     -11.070  11.439  63.386  1.00  0.00     0.000 HD 
HETATM    5  O   UNL     1     -11.253  13.484  65.813  1.00  0.00    -0.297 OA 
ENDROOT
BRANCH   2   6
HETATM    6  C   UNL     1     -10.096  11.380  65.728  1.00  0.00    -0.246 A  
HETATM    7  N   UNL     1     -10.316  10.079  65.486  1.00  0.00    -0.177 NA 
HETATM    8  N   UNL     1      -9.376   9.483  66.240  1.00  0.00    -0.173 NA 
HETATM    9  C   UNL     1      -8.572  10.402  66.836  1.00  0.00    -0.127 A  
HETATM   10  N   UNL     1      -9.002  11.607  66.554  1.00  0.00    -0.188 NA 
BRANCH   8  11
HETATM   11  C1* UNL     1      -9.258   8.042  66.339  1.00  0.00    -0.194 C  
HETATM   12  O4* UNL     1     -10.435   7.534  67.010  1.00  0.00    -0.293 OA 
HETATM   13  C4* UNL     1     -10.099   7.303  68.395  1.00  0.00    -0.171 C  
HETATM   14  C3* UNL     1      -8.594   7.028  68.443  1.00  0.00    -0.126 C  
HETATM   15  H2* UNL     1      -6.698   6.113  66.819  1.00  0.00     0.000 HD 
HETATM   16  C2* UNL     1      -8.040   7.516  67.102  1.00  0.00    -0.118 C  
HETATM   17  H3* UNL     1      -7.380   5.450  68.602  1.00  0.00     0.000 HD 
HETATM   18  O3* UNL     1      -8.313   5.621  68.572  1.00  0.00    -0.105 OA 
HETATM   19  O2* UNL     1      -7.454   6.438  66.345  1.00  0.00    -0.082 OA 
BRANCH  13  20
HETATM   20  C5* UNL     1     -10.534   8.512  69.233  1.00  0.00    -0.215 C  
HETATM   21  O5* UNL     1     -11.224   9.445  68.400  1.00  0.00    -0.482 OA 
HETATM   22  H5* UNL     1     -11.494  10.194  68.918  1.00  0.00     0.000 HD 
ENDBRANCH  13  20
ENDBRANCH   8  11
ENDBRANCH   2   6
TORSDOF 3
ENDMDL
MODEL      166
REMARK 921   NORMALIZED FREE ENERGY PREDICTED BY IDOCK:   -2.84 KCAL/MOL
REMARK 922        TOTAL FREE ENERGY PREDICTED BY IDOCK:   -4.27 KCAL/MOL
REMARK 923 INTER-LIGAND FREE ENERGY PREDICTED BY IDOCK:   -3.81 KCAL/MOL
REMARK 924 INTRA-LIGAND FREE ENERGY PREDICTED BY IDOCK:   -0.46 KCAL/MOL
REMARK 927      BINDING AFFINITY PREDICTED BY RF-SCORE:    0.00 PKD
ROOT
HETATM    1  N   UNL     1     -12.614  13.407  65.650  1.00  0.00    -0.461 N  
HETATM    2  C   UNL     1     -11.688  13.921  66.521  1.00  0.00    -0.393 C  
HETATM    3  H2  UNL     1     -13.299  14.028  65.218  1.00  0.00     0.000 HD 
HETATM    4  H1  UNL     1     -12.628  12.411  65.429  1.00  0.00     0.000 HD 
HETATM    5  O   UNL     1     -11.672  15.121  66.787  1.00  0.00    -0.229 OA 
ENDROOT
BRANCH   2   6
HETATM    6  C   UNL     1     -10.753  12.918  67.063  1.00  0.00    -0.257 A  
HETATM    7  N   UNL     1     -10.720  11.635  66.673  1.00  0.00    -0.258 NA 
HETATM    8  N   UNL     1      -9.794  11.109  67.493  1.00  0.00    -0.176 NA 
HETATM    9  C   UNL     1      -9.235  12.067  68.278  1.00  0.00    -0.192 A  
HETATM   10  N   UNL     1      -9.823  13.216  68.051  1.00  0.00    -0.224 NA 
BRANCH   8  11
HETATM   11  C1* UNL     1      -9.449   9.702  67.474  1.00  0.00    -0.134 C  
HETATM   12  O4* UNL     1     -10.603   8.944  67.906  1.00  0.00    -0.230 OA 
HETATM   13  C4* UNL     1     -10.425   8.607  69.299  1.00  0.00    -0.217 C  
HETATM   14  C3* UNL     1      -8.917   8.562  69.551  1.00  0.00    -0.149 C  
HETATM   15  H2* UNL     1      -6.689   8.145  68.159  1.00  0.00     0.000 HD 
HETATM   16  C2* UNL     1      -8.275   9.283  68.363  1.00  0.00    -0.115 C  
HETATM   17  H3* UNL     1      -7.486   7.182  69.746  1.00  0.00     0.000 HD 
HETATM   18  O3* UNL     1      -8.422   7.210  69.590  1.00  0.00    -0.131 OA 
HETATM   19  O2* UNL     1      -7.418   8.404  67.607  1.00  0.00    -0.091 OA 
BRANCH  13  20
HETATM   20  C5* UNL     1     -11.168   9.628  70.168  1.00  0.00    -0.256 C  
HETATM   21  O5* UNL     1     -10.540   9.710  71.449  1.00  0.00    -0.302 OA 
HETATM   22  H5* UNL     1     -11.001  10.342  71.988  1.00  0.00     0.000 HD 
ENDBRANCH  13  20
ENDBRANCH   8  11
ENDBRANCH   2   6
TORSDOF 3
ENDMDL
MODEL      167
REMARK 921   NORMALIZED FREE ENERGY PREDICTED BY IDOCK:   -2.84 KCAL/MOL
REMARK 922        TOTAL FREE ENERGY PREDICTED BY IDOCK:   -4.27 KCAL/MOL
REMARK 923 INTER-LIGAND FREE ENERGY PREDICTED BY IDOCK:   -3.62 KCAL/MOL
REMARK 924 INTRA-LIGAND FREE ENERGY PREDICTED BY IDOCK:   -0.65 KCAL/MOL
REMARK 927      BINDING AFFINITY PREDICTED BY RF-SCORE:    0.00 PKD
ROOT
HETATM    1  N   UNL     1      -9.878   9.933  62.395  1.00  0.00    -0.651 N  
HETATM    2  C   UNL     1      -8.992  10.655  63.154  1.00  0.00    -0.241 C  
HETATM    3  H2  UNL     1      -9.535   9.373  61.616  1.00  0.00     0.000 HD 
HETATM    4  H1  UNL     1     -10.877   9.949  62.602  1.00  0.00     0.000 HD 
HETATM    5  O   UNL     1      -7.789  10.635  62.904  1.00  0.00    -0.136 OA 
ENDROOT
BRANCH   2   6
HETATM    6  C   UNL     1      -9.620  11.409  64.254  1.00  0.00    -0.188 A  
HETATM    7  N   UNL     1      -9.736  12.745  64.277  1.00  0.00     0.017 NA 
HETATM    8  N   UNL     1     -10.277  12.965  65.488  1.00  0.00    -0.288 NA 
HETATM    9  C   UNL     1     -10.554  11.795  66.120  1.00  0.00    -0.260 A  
HETATM   10  N   UNL     1     -10.140  10.793  65.385  1.00  0.00    -0.270 NA 
BRANCH   8  11
HETATM   11  C1* UNL     1     -10.543  14.299  65.990  1.00  0.00    -0.300 C  
HETATM   12  O4* UNL     1      -9.277  14.940  66.273  1.00  0.00    -0.287 OA 
HETATM   13  C4* UNL     1      -9.029  14.838  67.692  1.00  0.00    -0.182 C  
HETATM   14  C3* UNL     1     -10.396  14.744  68.372  1.00  0.00    -0.233 C  
HETATM   15  H2* UNL     1     -12.907  15.467  67.875  1.00  0.00     0.000 HD 
HETATM   16  C2* UNL     1     -11.388  14.385  67.262  1.00  0.00    -0.342 C  
HETATM   17  H3* UNL     1     -11.639  15.943  69.374  1.00  0.00     0.000 HD 
HETATM   18  O3* UNL     1     -10.791  16.002  68.952  1.00  0.00    -0.250 OA 
HETATM   19  O2* UNL     1     -12.382  15.414  67.085  1.00  0.00     0.489 OA 
BRANCH  13  20
HETATM   20  C5* UNL     1      -8.118  13.635  67.964  1.00  0.00    -0.161 C  
HETATM   21  O5* UNL     1      -7.625  13.121  66.726  1.00  0.00    -0.339 OA 
HETATM   22  H5* UNL     1      -7.060  12.376  66.894  1.00  0.00     0.000 HD 
ENDBRANCH  13  20
ENDBRANCH   8  11
ENDBRANCH   2   6
TORSDOF 3
ENDMDL
MODEL      168
REMARK 921   NORMALIZED FREE ENERGY PREDICTED BY IDOCK:   -2.83 KCAL/MOL
REMARK 922        TOTAL FREE ENERGY PREDICTED BY IDOCK:   -4.26 KCAL/MOL
REMARK 923 INTER-LIGAND FREE ENERGY PREDICTED BY IDOCK:   -3.34 KCAL/MOL
REMARK 924 INTRA-LIGAND FREE ENERGY PREDICTED BY IDOCK:   -0.92 KCAL/MOL
REMARK 927      BINDING AFFINITY PREDICTED BY RF-SCORE:    0.00 PKD
ROOT
HETATM    1  N   UNL     1     -11.338   7.312  73.517  1.00  0.00    -0.428 N  
HETATM    2  C   UNL     1     -11.488   6.494  72.426  1.00  0.00    -0.271 C  
HETATM    3  H2  UNL     1     -11.729   7.030  74.416  1.00  0.00     0.000 HD 
HETATM    4  H1  UNL     1     -10.840   8.199  73.441  1.00  0.00     0.000 HD 
HETATM    5  O   UNL     1     -12.089   5.425  72.519  1.00  0.00    -0.130 OA 
ENDROOT
BRANCH   2   6
HETATM    6  C   UNL     1     -10.866   7.015  71.196  1.00  0.00    -0.237 A  
HETATM    7  N   UNL     1     -11.336   6.786  69.961  1.00  0.00    -0.337 NA 
HETATM    8  N   UNL     1     -10.407   7.372  69.186  1.00  0.00    -0.204 NA 
HETATM    9  C   UNL     1      -9.470   8.004  69.939  1.00  0.00    -0.160 A  
HETATM   10  N   UNL     1      -9.712   7.789  71.208  1.00  0.00    -0.157 NA 
BRANCH   8  11
HETATM   11  C1* UNL     1     -10.468   7.336  67.738  1.00  0.00    -0.228 C  
HETATM   12  O4* UNL     1     -10.818   5.992  67.331  1.00  0.00    -0.280 OA 
HETATM   13  C4* UNL     1      -9.605   5.310  66.945  1.00  0.00    -0.145 C  
HETATM   14  C3* UNL     1      -8.624   6.387  66.477  1.00  0.00    -0.125 C  
HETATM   15  H2* UNL     1      -8.719   8.844  65.465  1.00  0.00     0.000 HD 
HETATM   16  C2* UNL     1      -9.182   7.713  67.000  1.00  0.00    -0.138 C  
HETATM   17  H3* UNL     1      -7.942   7.122  64.749  1.00  0.00     0.000 HD 
HETATM   18  O3* UNL     1      -8.551   6.453  65.040  1.00  0.00    -0.087 OA 
HETATM   19  O2* UNL     1      -9.518   8.610  65.922  1.00  0.00    -0.223 OA 
BRANCH  13  20
HETATM   20  C5* UNL     1      -9.092   4.477  68.125  1.00  0.00    -0.124 C  
HETATM   21  O5* UNL     1     -10.160   4.247  69.046  1.00  0.00    -0.062 OA 
HETATM   22  H5* UNL     1      -9.843   3.731  69.778  1.00  0.00     0.000 HD 
ENDBRANCH  13  20
ENDBRANCH   8  11
ENDBRANCH   2   6
TORSDOF 3
ENDMDL
MODEL      169
REMARK 921   NORMALIZED FREE ENERGY PREDICTED BY IDOCK:   -2.83 KCAL/MOL
REMARK 922        TOTAL FREE ENERGY PREDICTED BY IDOCK:   -4.26 KCAL/MOL
REMARK 923 INTER-LIGAND FREE ENERGY PREDICTED BY IDOCK:   -3.36 KCAL/MOL
REMARK 924 INTRA-LIGAND FREE ENERGY PREDICTED BY IDOCK:   -0.90 KCAL/MOL
REMARK 927      BINDING AFFINITY PREDICTED BY RF-SCORE:    0.00 PKD
ROOT
HETATM    1  N   UNL     1      -6.569   4.486  69.338  1.00  0.00    -0.039 N  
HETATM    2  C   UNL     1      -6.607   5.463  70.300  1.00  0.00    -0.039 C  
HETATM    3  H2  UNL     1      -5.814   3.800  69.346  1.00  0.00     0.000 HD 
HETATM    4  H1  UNL     1      -7.286   4.436  68.615  1.00  0.00     0.000 HD 
HETATM    5  O   UNL     1      -5.741   5.522  71.172  1.00  0.00    -0.012 OA 
ENDROOT
BRANCH   2   6
HETATM    6  C   UNL     1      -7.755   6.379  70.179  1.00  0.00    -0.098 A  
HETATM    7  N   UNL     1      -8.109   7.267  71.120  1.00  0.00    -0.102 NA 
HETATM    8  N   UNL     1      -9.237   7.792  70.610  1.00  0.00    -0.160 NA 
HETATM    9  C   UNL     1      -9.491   7.295  69.371  1.00  0.00    -0.154 A  
HETATM   10  N   UNL     1      -8.592   6.391  69.070  1.00  0.00    -0.124 NA 
BRANCH   8  11
HETATM   11  C1* UNL     1     -10.023   8.783  71.318  1.00  0.00    -0.263 C  
HETATM   12  O4* UNL     1     -10.024   8.443  72.724  1.00  0.00    -0.284 OA 
HETATM   13  C4* UNL     1     -11.263   7.763  73.021  1.00  0.00    -0.321 C  
HETATM   14  C3* UNL     1     -12.292   8.259  72.003  1.00  0.00    -0.349 C  
HETATM   15  H2* UNL     1     -12.702  10.408  70.491  1.00  0.00     0.000 HD 
HETATM   16  C2* UNL     1     -11.483   8.921  70.884  1.00  0.00    -0.288 C  
HETATM   17  H3* UNL     1     -13.815   9.550  71.943  1.00  0.00     0.000 HD 
HETATM   18  O3* UNL     1     -13.177   9.242  72.574  1.00  0.00    -0.437 OA 
HETATM   19  O2* UNL     1     -11.795  10.323  70.761  1.00  0.00    -0.308 OA 
BRANCH  13  20
HETATM   20  C5* UNL     1     -11.034   6.248  72.982  1.00  0.00    -0.242 C  
HETATM   21  O5* UNL     1      -9.651   5.969  73.207  1.00  0.00    -0.143 OA 
HETATM   22  H5* UNL     1      -9.509   5.030  73.183  1.00  0.00     0.000 HD 
ENDBRANCH  13  20
ENDBRANCH   8  11
ENDBRANCH   2   6
TORSDOF 3
ENDMDL
MODEL      170
REMARK 921   NORMALIZED FREE ENERGY PREDICTED BY IDOCK:   -2.82 KCAL/MOL
REMARK 922        TOTAL FREE ENERGY PREDICTED BY IDOCK:   -4.25 KCAL/MOL
REMARK 923 INTER-LIGAND FREE ENERGY PREDICTED BY IDOCK:   -3.82 KCAL/MOL
REMARK 924 INTRA-LIGAND FREE ENERGY PREDICTED BY IDOCK:   -0.43 KCAL/MOL
REMARK 927      BINDING AFFINITY PREDICTED BY RF-SCORE:    0.00 PKD
ROOT
HETATM    1  N   UNL     1      -7.269  15.287  69.074  1.00  0.00    -0.137 N  
HETATM    2  C   UNL     1      -8.045  16.014  68.208  1.00  0.00    -0.150 C  
HETATM    3  H2  UNL     1      -6.252  15.339  69.005  1.00  0.00     0.000 HD 
HETATM    4  H1  UNL     1      -7.695  14.695  69.788  1.00  0.00     0.000 HD 
HETATM    5  O   UNL     1      -7.531  16.726  67.348  1.00  0.00    -0.147 OA 
ENDROOT
BRANCH   2   6
HETATM    6  C   UNL     1      -9.495  15.855  68.425  1.00  0.00    -0.201 A  
HETATM    7  N   UNL     1     -10.062  14.750  68.931  1.00  0.00    -0.234 NA 
HETATM    8  N   UNL     1     -11.372  15.039  68.855  1.00  0.00    -0.280 NA 
HETATM    9  C   UNL     1     -11.569  16.305  68.404  1.00  0.00    -0.154 A  
HETATM   10  N   UNL     1     -10.414  16.847  68.106  1.00  0.00    -0.333 NA 
BRANCH   8  11
HETATM   11  C1* UNL     1     -12.400  14.096  69.251  1.00  0.00    -0.169 C  
HETATM   12  O4* UNL     1     -13.434  14.821  69.957  1.00  0.00     0.292 OA 
HETATM   13  C4* UNL     1     -13.220  14.643  71.374  1.00  0.00    -0.357 C  
HETATM   14  C3* UNL     1     -12.493  13.308  71.545  1.00  0.00    -0.125 C  
HETATM   15  H2* UNL     1     -12.239  11.010  70.230  1.00  0.00     0.000 HD 
HETATM   16  C2* UNL     1     -11.949  12.950  70.160  1.00  0.00    -0.301 C  
HETATM   17  H3* UNL     1     -12.937  11.434  72.077  1.00  0.00     0.000 HD 
HETATM   18  O3* UNL     1     -13.389  12.263  71.971  1.00  0.00    -0.506 OA 
HETATM   19  O2* UNL     1     -12.519  11.722  69.666  1.00  0.00    -0.119 OA 
BRANCH  13  20
HETATM   20  C5* UNL     1     -12.446  15.845  71.927  1.00  0.00    -0.459 C  
HETATM   21  O5* UNL     1     -12.606  15.903  73.345  1.00  0.00    -0.441 OA 
HETATM   22  H5* UNL     1     -12.126  16.648  73.688  1.00  0.00     0.000 HD 
ENDBRANCH  13  20
ENDBRANCH   8  11
ENDBRANCH   2   6
TORSDOF 3
ENDMDL
MODEL      171
REMARK 921   NORMALIZED FREE ENERGY PREDICTED BY IDOCK:   -2.79 KCAL/MOL
REMARK 922        TOTAL FREE ENERGY PREDICTED BY IDOCK:   -4.22 KCAL/MOL
REMARK 923 INTER-LIGAND FREE ENERGY PREDICTED BY IDOCK:   -3.75 KCAL/MOL
REMARK 924 INTRA-LIGAND FREE ENERGY PREDICTED BY IDOCK:   -0.47 KCAL/MOL
REMARK 927      BINDING AFFINITY PREDICTED BY RF-SCORE:    0.00 PKD
ROOT
HETATM    1  N   UNL     1      -7.610  10.219  68.796  1.00  0.00    -0.087 N  
HETATM    2  C   UNL     1      -7.141  10.218  70.085  1.00  0.00    -0.148 C  
HETATM    3  H2  UNL     1      -7.337  10.968  68.160  1.00  0.00     0.000 HD 
HETATM    4  H1  UNL     1      -8.229   9.478  68.464  1.00  0.00     0.000 HD 
HETATM    5  O   UNL     1      -6.396  11.110  70.484  1.00  0.00    -0.303 OA 
ENDROOT
BRANCH   2   6
HETATM    6  C   UNL     1      -7.604   9.073  70.890  1.00  0.00    -0.124 A  
HETATM    7  N   UNL     1      -8.304   8.041  70.395  1.00  0.00    -0.118 NA 
HETATM    8  N   UNL     1      -8.567   7.317  71.497  1.00  0.00    -0.118 NA 
HETATM    9  C   UNL     1      -7.966   7.856  72.591  1.00  0.00    -0.123 A  
HETATM   10  N   UNL     1      -7.365   8.970  72.255  1.00  0.00    -0.328 NA 
BRANCH   8  11
HETATM   11  C1* UNL     1      -9.363   6.107  71.460  1.00  0.00    -0.148 C  
HETATM   12  O4* UNL     1     -10.605   6.400  70.779  1.00  0.00    -0.220 OA 
HETATM   13  C4* UNL     1     -11.625   6.619  71.778  1.00  0.00    -0.304 C  
HETATM   14  C3* UNL     1     -11.204   5.826  73.018  1.00  0.00    -0.246 C  
HETATM   15  H2* UNL     1      -9.724   3.693  73.594  1.00  0.00     0.000 HD 
HETATM   16  C2* UNL     1      -9.723   5.495  72.816  1.00  0.00    -0.149 C  
HETATM   17  H3* UNL     1     -11.678   4.101  73.906  1.00  0.00     0.000 HD 
HETATM   18  O3* UNL     1     -11.939   4.593  73.137  1.00  0.00    -0.176 OA 
HETATM   19  O2* UNL     1      -9.501   4.072  72.751  1.00  0.00    -0.120 OA 
BRANCH  13  20
HETATM   20  C5* UNL     1     -11.777   8.124  72.028  1.00  0.00    -0.332 C  
HETATM   21  O5* UNL     1     -12.790   8.343  73.010  1.00  0.00    -0.706 OA 
HETATM   22  H5* UNL     1     -12.885   9.276  73.166  1.00  0.00     0.000 HD 
ENDBRANCH  13  20
ENDBRANCH   8  11
ENDBRANCH   2   6
TORSDOF 3
ENDMDL
MODEL      172
REMARK 921   NORMALIZED FREE ENERGY PREDICTED BY IDOCK:   -2.79 KCAL/MOL
REMARK 922        TOTAL FREE ENERGY PREDICTED BY IDOCK:   -4.21 KCAL/MOL
REMARK 923 INTER-LIGAND FREE ENERGY PREDICTED BY IDOCK:   -3.57 KCAL/MOL
REMARK 924 INTRA-LIGAND FREE ENERGY PREDICTED BY IDOCK:   -0.64 KCAL/MOL
REMARK 927      BINDING AFFINITY PREDICTED BY RF-SCORE:    0.00 PKD
ROOT
HETATM    1  N   UNL     1      -5.129  16.105  68.895  1.00  0.00    -0.100 N  
HETATM    2  C   UNL     1      -5.995  15.584  69.822  1.00  0.00    -0.144 C  
HETATM    3  H2  UNL     1      -4.125  16.086  69.076  1.00  0.00     0.000 HD 
HETATM    4  H1  UNL     1      -5.476  16.512  68.026  1.00  0.00     0.000 HD 
HETATM    5  O   UNL     1      -5.576  15.094  70.869  1.00  0.00    -0.132 OA 
ENDROOT
BRANCH   2   6
HETATM    6  C   UNL     1      -7.414  15.666  69.430  1.00  0.00    -0.221 A  
HETATM    7  N   UNL     1      -7.953  16.708  68.780  1.00  0.00    -0.230 NA 
HETATM    8  N   UNL     1      -9.254  16.372  68.729  1.00  0.00    -0.230 NA 
HETATM    9  C   UNL     1      -9.460  15.135  69.250  1.00  0.00    -0.212 A  
HETATM   10  N   UNL     1      -8.331  14.664  69.718  1.00  0.00     0.246 NA 
BRANCH   8  11
HETATM   11  C1* UNL     1     -10.258  17.241  68.148  1.00  0.00    -0.343 C  
HETATM   12  O4* UNL     1     -11.183  16.425  67.392  1.00  0.00    -0.135 OA 
HETATM   13  C4* UNL     1     -10.816  16.503  65.997  1.00  0.00    -0.069 C  
HETATM   14  C3* UNL     1     -10.115  17.849  65.802  1.00  0.00    -0.049 C  
HETATM   15  H2* UNL     1     -10.082  20.248  66.951  1.00  0.00     0.000 HD 
HETATM   16  C2* UNL     1      -9.743  18.331  67.207  1.00  0.00    -0.297 C  
HETATM   17  H3* UNL     1     -10.554  19.658  65.077  1.00  0.00     0.000 HD 
HETATM   18  O3* UNL     1     -10.989  18.823  65.198  1.00  0.00    -0.514 OA 
HETATM   19  O2* UNL     1     -10.403  19.570  67.535  1.00  0.00    -0.387 OA 
BRANCH  13  20
HETATM   20  C5* UNL     1      -9.947  15.294  65.631  1.00  0.00    -0.364 C  
HETATM   21  O5* UNL     1      -8.600  15.534  66.042  1.00  0.00    -0.392 OA 
HETATM   22  H5* UNL     1      -8.062  14.785  65.816  1.00  0.00     0.000 HD 
ENDBRANCH  13  20
ENDBRANCH   8  11
ENDBRANCH   2   6
TORSDOF 3
ENDMDL
MODEL      173
REMARK 921   NORMALIZED FREE ENERGY PREDICTED BY IDOCK:   -2.78 KCAL/MOL
REMARK 922        TOTAL FREE ENERGY PREDICTED BY IDOCK:   -4.20 KCAL/MOL
REMARK 923 INTER-LIGAND FREE ENERGY PREDICTED BY IDOCK:   -3.59 KCAL/MOL
REMARK 924 INTRA-LIGAND FREE ENERGY PREDICTED BY IDOCK:   -0.61 KCAL/MOL
REMARK 927      BINDING AFFINITY PREDICTED BY RF-SCORE:    0.00 PKD
ROOT
HETATM    1  N   UNL     1      -8.174  19.464  69.067  1.00  0.00    -0.308 N  
HETATM    2  C   UNL     1      -9.509  19.319  68.787  1.00  0.00    -0.402 C  
HETATM    3  H2  UNL     1      -7.838  20.333  69.483  1.00  0.00     0.000 HD 
HETATM    4  H1  UNL     1      -7.513  18.715  68.864  1.00  0.00     0.000 HD 
HETATM    5  O   UNL     1     -10.306  20.223  69.031  1.00  0.00    -0.294 OA 
ENDROOT
BRANCH   2   6
HETATM    6  C   UNL     1      -9.860  18.013  68.199  1.00  0.00    -0.340 A  
HETATM    7  N   UNL     1      -9.572  16.832  68.768  1.00  0.00    -0.253 NA 
HETATM    8  N   UNL     1      -9.996  15.956  67.841  1.00  0.00    -0.220 NA 
HETATM    9  C   UNL     1     -10.594  16.595  66.802  1.00  0.00    -0.214 A  
HETATM   10  N   UNL     1     -10.514  17.890  66.980  1.00  0.00    -0.358 NA 
BRANCH   8  11
HETATM   11  C1* UNL     1      -9.842  14.524  67.998  1.00  0.00    -0.222 C  
HETATM   12  O4* UNL     1      -8.742  14.281  68.905  1.00  0.00    -0.134 OA 
HETATM   13  C4* UNL     1      -7.572  13.965  68.120  1.00  0.00    -0.134 C  
HETATM   14  C3* UNL     1      -8.073  13.363  66.806  1.00  0.00     0.274 C  
HETATM   15  H2* UNL     1     -10.219  12.069  65.914  1.00  0.00     0.000 HD 
HETATM   16  C2* UNL     1      -9.557  13.732  66.719  1.00  0.00    -0.279 C  
HETATM   17  H3* UNL     1      -8.267  11.554  65.982  1.00  0.00     0.000 HD 
HETATM   18  O3* UNL     1      -7.955  11.927  66.798  1.00  0.00    -0.153 OA 
HETATM   19  O2* UNL     1     -10.396  12.560  66.708  1.00  0.00    -0.224 OA 
BRANCH  13  20
HETATM   20  C5* UNL     1      -6.725  15.230  67.938  1.00  0.00    -0.151 C  
HETATM   21  O5* UNL     1      -7.180  15.947  66.789  1.00  0.00    -0.184 OA 
HETATM   22  H5* UNL     1      -6.655  16.731  66.676  1.00  0.00     0.000 HD 
ENDBRANCH  13  20
ENDBRANCH   8  11
ENDBRANCH   2   6
TORSDOF 3
ENDMDL
MODEL      174
REMARK 921   NORMALIZED FREE ENERGY PREDICTED BY IDOCK:   -2.78 KCAL/MOL
REMARK 922        TOTAL FREE ENERGY PREDICTED BY IDOCK:   -4.20 KCAL/MOL
REMARK 923 INTER-LIGAND FREE ENERGY PREDICTED BY IDOCK:   -3.73 KCAL/MOL
REMARK 924 INTRA-LIGAND FREE ENERGY PREDICTED BY IDOCK:   -0.47 KCAL/MOL
REMARK 927      BINDING AFFINITY PREDICTED BY RF-SCORE:    0.00 PKD
ROOT
HETATM    1  N   UNL     1     -10.539  10.978  64.274  1.00  0.00    -0.362 N  
HETATM    2  C   UNL     1     -11.149  11.684  65.280  1.00  0.00    -0.236 C  
HETATM    3  H2  UNL     1     -10.914  11.024  63.327  1.00  0.00     0.000 HD 
HETATM    4  H1  UNL     1      -9.713  10.409  64.462  1.00  0.00     0.000 HD 
HETATM    5  O   UNL     1     -12.144  12.370  65.054  1.00  0.00    -0.412 OA 
ENDROOT
BRANCH   2   6
HETATM    6  C   UNL     1     -10.498  11.539  66.595  1.00  0.00    -0.238 A  
HETATM    7  N   UNL     1     -10.902  10.679  67.542  1.00  0.00    -0.276 NA 
HETATM    8  N   UNL     1     -10.079  10.971  68.564  1.00  0.00    -0.183 NA 
HETATM    9  C   UNL     1      -9.163  11.906  68.203  1.00  0.00    -0.187 A  
HETATM   10  N   UNL     1      -9.402  12.302  66.978  1.00  0.00    -0.198 NA 
BRANCH   8  11
HETATM   11  C1* UNL     1     -10.178  10.314  69.853  1.00  0.00    -0.202 C  
HETATM   12  O4* UNL     1      -8.881   9.768  70.186  1.00  0.00    -0.218 OA 
HETATM   13  C4* UNL     1      -8.890   8.360  69.863  1.00  0.00    -0.137 C  
HETATM   14  C3* UNL     1     -10.344   7.894  69.963  1.00  0.00    -0.221 C  
HETATM   15  H2* UNL     1     -12.568   8.613  71.232  1.00  0.00     0.000 HD 
HETATM   16  C2* UNL     1     -11.190   9.170  69.950  1.00  0.00    -0.102 C  
HETATM   17  H3* UNL     1     -11.497   6.900  71.257  1.00  0.00     0.000 HD 
HETATM   18  O3* UNL     1     -10.594   7.189  71.194  1.00  0.00    -0.221 OA 
HETATM   19  O2* UNL     1     -11.940   9.323  71.172  1.00  0.00    -0.293 OA 
BRANCH  13  20
HETATM   20  C5* UNL     1      -8.267   8.152  68.478  1.00  0.00    -0.125 C  
HETATM   21  O5* UNL     1      -8.267   6.759  68.160  1.00  0.00    -0.113 OA 
HETATM   22  H5* UNL     1      -7.882   6.630  67.301  1.00  0.00     0.000 HD 
ENDBRANCH  13  20
ENDBRANCH   8  11
ENDBRANCH   2   6
TORSDOF 3
ENDMDL
MODEL      175
REMARK 921   NORMALIZED FREE ENERGY PREDICTED BY IDOCK:   -2.78 KCAL/MOL
REMARK 922        TOTAL FREE ENERGY PREDICTED BY IDOCK:   -4.20 KCAL/MOL
REMARK 923 INTER-LIGAND FREE ENERGY PREDICTED BY IDOCK:   -4.05 KCAL/MOL
REMARK 924 INTRA-LIGAND FREE ENERGY PREDICTED BY IDOCK:   -0.15 KCAL/MOL
REMARK 927      BINDING AFFINITY PREDICTED BY RF-SCORE:    0.00 PKD
ROOT
HETATM    1  N   UNL     1     -11.461  16.140  70.045  1.00  0.00    -0.341 N  
HETATM    2  C   UNL     1     -12.015  14.921  70.339  1.00  0.00    -0.314 C  
HETATM    3  H2  UNL     1     -11.573  16.915  70.698  1.00  0.00     0.000 HD 
HETATM    4  H1  UNL     1     -10.938  16.282  69.180  1.00  0.00     0.000 HD 
HETATM    5  O   UNL     1     -12.646  14.751  71.380  1.00  0.00    -0.290 OA 
ENDROOT
BRANCH   2   6
HETATM    6  C   UNL     1     -11.769  13.888  69.316  1.00  0.00    -0.334 A  
HETATM    7  N   UNL     1     -11.051  12.775  69.531  1.00  0.00    -0.058 NA 
HETATM    8  N   UNL     1     -11.030  12.207  68.312  1.00  0.00    -0.220 NA 
HETATM    9  C   UNL     1     -11.785  12.913  67.431  1.00  0.00    -0.372 A  
HETATM   10  N   UNL     1     -12.253  13.987  68.018  1.00  0.00    -0.255 NA 
BRANCH   8  11
HETATM   11  C1* UNL     1     -10.310  10.980  68.040  1.00  0.00    -0.185 C  
HETATM   12  O4* UNL     1     -11.229   9.872  68.179  1.00  0.00    -0.207 OA 
HETATM   13  C4* UNL     1     -11.031   9.284  69.483  1.00  0.00    -0.151 C  
HETATM   14  C3* UNL     1      -9.582   9.574  69.881  1.00  0.00    -0.223 C  
HETATM   15  H2* UNL     1      -7.263  10.076  68.679  1.00  0.00     0.000 HD 
HETATM   16  C2* UNL     1      -9.109  10.688  68.943  1.00  0.00    -0.176 C  
HETATM   17  H3* UNL     1      -7.837   8.604  69.938  1.00  0.00     0.000 HD 
HETATM   18  O3* UNL     1      -8.736   8.423  69.691  1.00  0.00    -0.131 OA 
HETATM   19  O2* UNL     1      -8.008  10.256  68.118  1.00  0.00    -0.106 OA 
BRANCH  13  20
HETATM   20  C5* UNL     1     -12.067   9.851  70.460  1.00  0.00    -0.207 C  
HETATM   21  O5* UNL     1     -13.012   8.834  70.796  1.00  0.00    -0.481 OA 
HETATM   22  H5* UNL     1     -13.654   9.186  71.402  1.00  0.00     0.000 HD 
ENDBRANCH  13  20
ENDBRANCH   8  11
ENDBRANCH   2   6
TORSDOF 3
ENDMDL
MODEL      176
REMARK 921   NORMALIZED FREE ENERGY PREDICTED BY IDOCK:   -2.77 KCAL/MOL
REMARK 922        TOTAL FREE ENERGY PREDICTED BY IDOCK:   -4.19 KCAL/MOL
REMARK 923 INTER-LIGAND FREE ENERGY PREDICTED BY IDOCK:   -3.41 KCAL/MOL
REMARK 924 INTRA-LIGAND FREE ENERGY PREDICTED BY IDOCK:   -0.78 KCAL/MOL
REMARK 927      BINDING AFFINITY PREDICTED BY RF-SCORE:    0.00 PKD
ROOT
HETATM    1  N   UNL     1     -10.357  11.807  69.235  1.00  0.00    -0.425 N  
HETATM    2  C   UNL     1     -11.142  10.838  68.664  1.00  0.00    -0.259 C  
HETATM    3  H2  UNL     1     -10.448  12.775  68.926  1.00  0.00     0.000 HD 
HETATM    4  H1  UNL     1      -9.683  11.572  69.964  1.00  0.00     0.000 HD 
HETATM    5  O   UNL     1     -11.953  11.121  67.785  1.00  0.00    -0.630 OA 
ENDROOT
BRANCH   2   6
HETATM    6  C   UNL     1     -10.917   9.486  69.209  1.00  0.00    -0.145 A  
HETATM    7  N   UNL     1     -10.449   8.455  68.490  1.00  0.00    -0.194 NA 
HETATM    8  N   UNL     1     -10.502   7.442  69.372  1.00  0.00    -0.214 NA 
HETATM    9  C   UNL     1     -10.901   7.879  70.595  1.00  0.00    -0.237 A  
HETATM   10  N   UNL     1     -11.189   9.156  70.530  1.00  0.00    -0.258 NA 
BRANCH   8  11
HETATM   11  C1* UNL     1     -10.133   6.085  69.020  1.00  0.00    -0.176 C  
HETATM   12  O4* UNL     1      -9.093   5.647  69.926  1.00  0.00    -0.132 OA 
HETATM   13  C4* UNL     1      -7.823   5.791  69.255  1.00  0.00    -0.090 C  
HETATM   14  C3* UNL     1      -8.102   5.677  67.755  1.00  0.00    -0.101 C  
HETATM   15  H2* UNL     1      -9.923   4.577  66.159  1.00  0.00     0.000 HD 
HETATM   16  C2* UNL     1      -9.612   5.876  67.597  1.00  0.00    -0.111 C  
HETATM   17  H3* UNL     1      -7.927   4.305  66.313  1.00  0.00     0.000 HD 
HETATM   18  O3* UNL     1      -7.754   4.376  67.244  1.00  0.00    -0.087 OA 
HETATM   19  O2* UNL     1     -10.247   4.706  67.043  1.00  0.00    -0.196 OA 
BRANCH  13  20
HETATM   20  C5* UNL     1      -7.178   7.120  69.665  1.00  0.00    -0.076 C  
HETATM   21  O5* UNL     1      -7.264   8.046  68.581  1.00  0.00    -0.077 OA 
HETATM   22  H5* UNL     1      -6.864   8.870  68.835  1.00  0.00     0.000 HD 
ENDBRANCH  13  20
ENDBRANCH   8  11
ENDBRANCH   2   6
TORSDOF 3
ENDMDL
MODEL      177
REMARK 921   NORMALIZED FREE ENERGY PREDICTED BY IDOCK:   -2.76 KCAL/MOL
REMARK 922        TOTAL FREE ENERGY PREDICTED BY IDOCK:   -4.18 KCAL/MOL
REMARK 923 INTER-LIGAND FREE ENERGY PREDICTED BY IDOCK:   -3.73 KCAL/MOL
REMARK 924 INTRA-LIGAND FREE ENERGY PREDICTED BY IDOCK:   -0.45 KCAL/MOL
REMARK 927      BINDING AFFINITY PREDICTED BY RF-SCORE:    0.00 PKD
ROOT
HETATM    1  N   UNL     1     -13.295   8.615  72.627  1.00  0.00    -0.657 N  
HETATM    2  C   UNL     1     -12.826   9.614  71.812  1.00  0.00    -0.421 C  
HETATM    3  H2  UNL     1     -14.026   8.822  73.308  1.00  0.00     0.000 HD 
HETATM    4  H1  UNL     1     -12.921   7.668  72.562  1.00  0.00     0.000 HD 
HETATM    5  O   UNL     1     -13.276  10.755  71.891  1.00  0.00    -0.469 OA 
ENDROOT
BRANCH   2   6
HETATM    6  C   UNL     1     -11.780   9.176  70.869  1.00  0.00    -0.284 A  
HETATM    7  N   UNL     1     -11.375   7.904  70.734  1.00  0.00    -0.275 NA 
HETATM    8  N   UNL     1     -10.370   8.015  69.848  1.00  0.00    -0.216 NA 
HETATM    9  C   UNL     1     -10.245   9.294  69.408  1.00  0.00    -0.210 A  
HETATM   10  N   UNL     1     -11.102  10.059  70.038  1.00  0.00    -0.275 NA 
BRANCH   8  11
HETATM   11  C1* UNL     1      -9.579   6.877  69.425  1.00  0.00    -0.147 C  
HETATM   12  O4* UNL     1      -9.201   6.123  70.601  1.00  0.00    -0.152 OA 
HETATM   13  C4* UNL     1      -7.849   6.485  70.953  1.00  0.00    -0.106 C  
HETATM   14  C3* UNL     1      -7.163   6.934  69.660  1.00  0.00    -0.080 C  
HETATM   15  H2* UNL     1      -7.408   6.521  67.045  1.00  0.00     0.000 HD 
HETATM   16  C2* UNL     1      -8.293   7.197  68.661  1.00  0.00    -0.125 C  
HETATM   17  H3* UNL     1      -5.882   6.184  68.324  1.00  0.00     0.000 HD 
HETATM   18  O3* UNL     1      -6.307   5.906  69.126  1.00  0.00    -0.037 OA 
HETATM   19  O2* UNL     1      -8.207   6.321  67.519  1.00  0.00    -0.112 OA 
BRANCH  13  20
HETATM   20  C5* UNL     1      -7.877   7.562  72.044  1.00  0.00    -0.090 C  
HETATM   21  O5* UNL     1      -7.210   7.077  73.210  1.00  0.00    -0.074 OA 
HETATM   22  H5* UNL     1      -7.228   7.744  73.886  1.00  0.00     0.000 HD 
ENDBRANCH  13  20
ENDBRANCH   8  11
ENDBRANCH   2   6
TORSDOF 3
ENDMDL
MODEL      178
REMARK 921   NORMALIZED FREE ENERGY PREDICTED BY IDOCK:   -2.75 KCAL/MOL
REMARK 922        TOTAL FREE ENERGY PREDICTED BY IDOCK:   -4.17 KCAL/MOL
REMARK 923 INTER-LIGAND FREE ENERGY PREDICTED BY IDOCK:   -3.50 KCAL/MOL
REMARK 924 INTRA-LIGAND FREE ENERGY PREDICTED BY IDOCK:   -0.67 KCAL/MOL
REMARK 927      BINDING AFFINITY PREDICTED BY RF-SCORE:    0.00 PKD
ROOT
HETATM    1  N   UNL     1     -14.152   7.635  70.806  1.00  0.00    -0.376 N  
HETATM    2  C   UNL     1     -13.444   8.390  71.706  1.00  0.00    -0.364 C  
HETATM    3  H2  UNL     1     -15.166   7.566  70.893  1.00  0.00     0.000 HD 
HETATM    4  H1  UNL     1     -13.677   7.141  70.050  1.00  0.00     0.000 HD 
HETATM    5  O   UNL     1     -14.016   8.984  72.617  1.00  0.00    -0.463 OA 
ENDROOT
BRANCH   2   6
HETATM    6  C   UNL     1     -11.990   8.411  71.458  1.00  0.00    -0.299 A  
HETATM    7  N   UNL     1     -11.107   7.635  72.103  1.00  0.00    -0.251 NA 
HETATM    8  N   UNL     1      -9.933   8.069  71.613  1.00  0.00    -0.177 NA 
HETATM    9  C   UNL     1     -10.121   9.005  70.647  1.00  0.00    -0.229 A  
HETATM   10  N   UNL     1     -11.400   9.262  70.531  1.00  0.00    -0.257 NA 
BRANCH   8  11
HETATM   11  C1* UNL     1      -8.660   7.544  72.067  1.00  0.00    -0.107 C  
HETATM   12  O4* UNL     1      -8.067   6.790  70.984  1.00  0.00    -0.112 OA 
HETATM   13  C4* UNL     1      -8.327   5.389  71.216  1.00  0.00    -0.125 C  
HETATM   14  C3* UNL     1      -8.484   5.214  72.728  1.00  0.00    -0.113 C  
HETATM   15  H2* UNL     1      -7.687   6.435  74.953  1.00  0.00     0.000 HD 
HETATM   16  C2* UNL     1      -8.708   6.622  73.287  1.00  0.00    -0.123 C  
HETATM   17  H3* UNL     1      -7.391   4.558  74.266  1.00  0.00     0.000 HD 
HETATM   18  O3* UNL     1      -7.294   4.666  73.328  1.00  0.00    -0.078 OA 
HETATM   19  O2* UNL     1      -7.657   7.007  74.195  1.00  0.00    -0.104 OA 
BRANCH  13  20
HETATM   20  C5* UNL     1      -9.561   4.961  70.413  1.00  0.00    -0.190 C  
HETATM   21  O5* UNL     1      -9.738   5.845  69.305  1.00  0.00    -0.136 OA 
HETATM   22  H5* UNL     1     -10.503   5.580  68.807  1.00  0.00     0.000 HD 
ENDBRANCH  13  20
ENDBRANCH   8  11
ENDBRANCH   2   6
TORSDOF 3
ENDMDL
MODEL      179
REMARK 921   NORMALIZED FREE ENERGY PREDICTED BY IDOCK:   -2.75 KCAL/MOL
REMARK 922        TOTAL FREE ENERGY PREDICTED BY IDOCK:   -4.16 KCAL/MOL
REMARK 923 INTER-LIGAND FREE ENERGY PREDICTED BY IDOCK:   -3.60 KCAL/MOL
REMARK 924 INTRA-LIGAND FREE ENERGY PREDICTED BY IDOCK:   -0.56 KCAL/MOL
REMARK 927      BINDING AFFINITY PREDICTED BY RF-SCORE:    0.00 PKD
ROOT
HETATM    1  N   UNL     1     -12.235  14.445  65.228  1.00  0.00    -0.392 N  
HETATM    2  C   UNL     1     -11.812  13.843  66.386  1.00  0.00    -0.411 C  
HETATM    3  H2  UNL     1     -13.041  15.068  65.249  1.00  0.00     0.000 HD 
HETATM    4  H1  UNL     1     -11.752  14.277  64.345  1.00  0.00     0.000 HD 
HETATM    5  O   UNL     1     -12.394  14.046  67.449  1.00  0.00    -0.322 OA 
ENDROOT
BRANCH   2   6
HETATM    6  C   UNL     1     -10.631  12.978  66.215  1.00  0.00    -0.271 A  
HETATM    7  N   UNL     1     -10.432  12.179  65.156  1.00  0.00    -0.272 NA 
HETATM    8  N   UNL     1      -9.297  11.539  65.488  1.00  0.00    -0.214 NA 
HETATM    9  C   UNL     1      -8.795  12.009  66.659  1.00  0.00    -0.191 A  
HETATM   10  N   UNL     1      -9.613  12.903  67.158  1.00  0.00    -0.219 NA 
BRANCH   8  11
HETATM   11  C1* UNL     1      -8.709  10.514  64.648  1.00  0.00    -0.183 C  
HETATM   12  O4* UNL     1      -9.508   9.313  64.770  1.00  0.00    -0.136 OA 
HETATM   13  C4* UNL     1      -8.851   8.429  65.703  1.00  0.00    -0.156 C  
HETATM   14  C3* UNL     1      -7.359   8.763  65.650  1.00  0.00    -0.085 C  
HETATM   15  H2* UNL     1      -5.627   9.817  63.929  1.00  0.00     0.000 HD 
HETATM   16  C2* UNL     1      -7.263  10.130  64.967  1.00  0.00    -0.139 C  
HETATM   17  H3* UNL     1      -5.699   8.011  64.832  1.00  0.00     0.000 HD 
HETATM   18  O3* UNL     1      -6.624   7.804  64.865  1.00  0.00    -0.047 OA 
HETATM   19  O2* UNL     1      -6.525  10.055  63.730  1.00  0.00    -0.122 OA 
BRANCH  13  20
HETATM   20  C5* UNL     1      -9.475   8.601  67.093  1.00  0.00    -0.160 C  
HETATM   21  O5* UNL     1     -10.836   9.011  66.956  1.00  0.00    -0.279 OA 
HETATM   22  H5* UNL     1     -11.223   9.117  67.817  1.00  0.00     0.000 HD 
ENDBRANCH  13  20
ENDBRANCH   8  11
ENDBRANCH   2   6
TORSDOF 3
ENDMDL
MODEL      180
REMARK 921   NORMALIZED FREE ENERGY PREDICTED BY IDOCK:   -2.74 KCAL/MOL
REMARK 922        TOTAL FREE ENERGY PREDICTED BY IDOCK:   -4.15 KCAL/MOL
REMARK 923 INTER-LIGAND FREE ENERGY PREDICTED BY IDOCK:   -4.37 KCAL/MOL
REMARK 924 INTRA-LIGAND FREE ENERGY PREDICTED BY IDOCK:    0.22 KCAL/MOL
REMARK 927      BINDING AFFINITY PREDICTED BY RF-SCORE:    0.00 PKD
ROOT
HETATM    1  N   UNL     1      -9.488  10.075  69.394  1.00  0.00    -0.211 N  
HETATM    2  C   UNL     1     -10.632  10.430  70.062  1.00  0.00    -0.229 C  
HETATM    3  H2  UNL     1      -9.135  10.672  68.646  1.00  0.00     0.000 HD 
HETATM    4  H1  UNL     1      -8.985   9.221  69.636  1.00  0.00     0.000 HD 
HETATM    5  O   UNL     1     -11.238  11.459  69.770  1.00  0.00    -0.251 OA 
ENDROOT
BRANCH   2   6
HETATM    6  C   UNL     1     -11.023   9.486  71.125  1.00  0.00    -0.368 A  
HETATM    7  N   UNL     1     -10.157   8.907  71.971  1.00  0.00    -0.329 NA 
HETATM    8  N   UNL     1     -10.952   8.083  72.675  1.00  0.00    -0.362 NA 
HETATM    9  C   UNL     1     -12.254   8.236  72.319  1.00  0.00    -0.370 A  
HETATM   10  N   UNL     1     -12.340   9.096  71.335  1.00  0.00    -0.320 NA 
BRANCH   8  11
HETATM   11  C1* UNL     1     -10.437   7.193  73.697  1.00  0.00    -0.370 C  
HETATM   12  O4* UNL     1      -9.126   7.661  74.089  1.00  0.00    -0.246 OA 
HETATM   13  C4* UNL     1      -8.139   6.865  73.398  1.00  0.00    -0.101 C  
HETATM   14  C3* UNL     1      -8.788   5.510  73.111  1.00  0.00    -0.119 C  
HETATM   15  H2* UNL     1     -10.726   3.992  74.119  1.00  0.00     0.000 HD 
HETATM   16  C2* UNL     1     -10.293   5.723  73.299  1.00  0.00    -0.214 C  
HETATM   17  H3* UNL     1      -8.750   3.659  73.861  1.00  0.00     0.000 HD 
HETATM   18  O3* UNL     1      -8.346   4.500  74.039  1.00  0.00    -0.102 OA 
HETATM   19  O2* UNL     1     -10.815   4.905  74.366  1.00  0.00    -0.346 OA 
BRANCH  13  20
HETATM   20  C5* UNL     1      -7.677   7.609  72.139  1.00  0.00    -0.089 C  
HETATM   21  O5* UNL     1      -7.367   8.963  72.472  1.00  0.00    -0.341 OA 
HETATM   22  H5* UNL     1      -7.081   9.424  71.692  1.00  0.00     0.000 HD 
ENDBRANCH  13  20
ENDBRANCH   8  11
ENDBRANCH   2   6
TORSDOF 3
ENDMDL
MODEL      181
REMARK 921   NORMALIZED FREE ENERGY PREDICTED BY IDOCK:   -2.73 KCAL/MOL
REMARK 922        TOTAL FREE ENERGY PREDICTED BY IDOCK:   -4.14 KCAL/MOL
REMARK 923 INTER-LIGAND FREE ENERGY PREDICTED BY IDOCK:   -3.59 KCAL/MOL
REMARK 924 INTRA-LIGAND FREE ENERGY PREDICTED BY IDOCK:   -0.54 KCAL/MOL
REMARK 927      BINDING AFFINITY PREDICTED BY RF-SCORE:    0.00 PKD
ROOT
HETATM    1  N   UNL     1     -11.206   9.655  68.229  1.00  0.00    -0.513 N  
HETATM    2  C   UNL     1     -11.142   9.761  69.595  1.00  0.00    -0.217 C  
HETATM    3  H2  UNL     1     -11.102  10.490  67.654  1.00  0.00     0.000 HD 
HETATM    4  H1  UNL     1     -11.358   8.750  67.782  1.00  0.00     0.000 HD 
HETATM    5  O   UNL     1     -10.960  10.850  70.134  1.00  0.00    -0.230 OA 
ENDROOT
BRANCH   2   6
HETATM    6  C   UNL     1     -11.298   8.477  70.304  1.00  0.00    -0.130 A  
HETATM    7  N   UNL     1     -10.350   7.529  70.357  1.00  0.00    -0.210 NA 
HETATM    8  N   UNL     1     -10.973   6.538  71.018  1.00  0.00    -0.252 NA 
HETATM    9  C   UNL     1     -12.213   6.921  71.420  1.00  0.00    -0.372 A  
HETATM   10  N   UNL     1     -12.463   8.128  70.976  1.00  0.00    -0.173 NA 
BRANCH   8  11
HETATM   11  C1* UNL     1     -10.342   5.258  71.273  1.00  0.00    -0.222 C  
HETATM   12  O4* UNL     1     -10.297   5.050  72.704  1.00  0.00    -0.184 OA 
HETATM   13  C4* UNL     1      -8.974   5.397  73.167  1.00  0.00    -0.118 C  
HETATM   14  C3* UNL     1      -8.023   5.178  71.988  1.00  0.00    -0.112 C  
HETATM   15  H2* UNL     1      -7.922   3.707  69.775  1.00  0.00     0.000 HD 
HETATM   16  C2* UNL     1      -8.915   5.094  70.746  1.00  0.00    -0.134 C  
HETATM   17  H3* UNL     1      -6.702   3.808  71.382  1.00  0.00     0.000 HD 
HETATM   18  O3* UNL     1      -7.292   3.943  72.114  1.00  0.00    -0.053 OA 
HETATM   19  O2* UNL     1      -8.808   3.808  70.102  1.00  0.00    -0.068 OA 
BRANCH  13  20
HETATM   20  C5* UNL     1      -8.981   6.835  73.698  1.00  0.00    -0.141 C  
HETATM   21  O5* UNL     1     -10.129   7.032  74.525  1.00  0.00    -0.466 OA 
HETATM   22  H5* UNL     1     -10.134   7.923  74.854  1.00  0.00     0.000 HD 
ENDBRANCH  13  20
ENDBRANCH   8  11
ENDBRANCH   2   6
TORSDOF 3
ENDMDL
MODEL      182
REMARK 921   NORMALIZED FREE ENERGY PREDICTED BY IDOCK:   -2.71 KCAL/MOL
REMARK 922        TOTAL FREE ENERGY PREDICTED BY IDOCK:   -4.12 KCAL/MOL
REMARK 923 INTER-LIGAND FREE ENERGY PREDICTED BY IDOCK:   -3.28 KCAL/MOL
REMARK 924 INTRA-LIGAND FREE ENERGY PREDICTED BY IDOCK:   -0.84 KCAL/MOL
REMARK 927      BINDING AFFINITY PREDICTED BY RF-SCORE:    0.00 PKD
ROOT
HETATM    1  N   UNL     1     -11.271   7.294  68.772  1.00  0.00    -0.447 N  
HETATM    2  C   UNL     1     -10.969   8.266  69.692  1.00  0.00    -0.086 C  
HETATM    3  H2  UNL     1     -11.449   7.556  67.803  1.00  0.00     0.000 HD 
HETATM    4  H1  UNL     1     -11.320   6.312  69.046  1.00  0.00     0.000 HD 
HETATM    5  O   UNL     1     -10.911   9.449  69.363  1.00  0.00    -0.228 OA 
ENDROOT
BRANCH   2   6
HETATM    6  C   UNL     1     -10.723   7.749  71.051  1.00  0.00    -0.228 A  
HETATM    7  N   UNL     1     -10.728   6.447  71.371  1.00  0.00    -0.237 NA 
HETATM    8  N   UNL     1     -10.552   6.478  72.704  1.00  0.00    -0.212 NA 
HETATM    9  C   UNL     1     -10.360   7.749  73.142  1.00  0.00    -0.340 A  
HETATM   10  N   UNL     1     -10.478   8.580  72.137  1.00  0.00    -0.325 NA 
BRANCH   8  11
HETATM   11  C1* UNL     1     -10.541   5.276  73.514  1.00  0.00    -0.270 C  
HETATM   12  O4* UNL     1      -9.386   5.324  74.383  1.00  0.00    -0.126 OA 
HETATM   13  C4* UNL     1      -8.346   4.513  73.795  1.00  0.00    -0.104 C  
HETATM   14  C3* UNL     1      -9.046   3.451  72.944  1.00  0.00    -0.088 C  
HETATM   15  H2* UNL     1     -11.402   2.221  72.858  1.00  0.00     0.000 HD 
HETATM   16  C2* UNL     1     -10.480   3.950  72.753  1.00  0.00    -0.153 C  
HETATM   17  H3* UNL     1      -9.522   1.516  73.084  1.00  0.00     0.000 HD 
HETATM   18  O3* UNL     1      -9.088   2.175  73.612  1.00  0.00    -0.071 OA 
HETATM   19  O2* UNL     1     -11.440   3.044  73.332  1.00  0.00    -0.174 OA 
BRANCH  13  20
HETATM   20  C5* UNL     1      -7.389   5.410  73.001  1.00  0.00    -0.092 C  
HETATM   21  O5* UNL     1      -7.777   5.422  71.627  1.00  0.00    -0.100 OA 
HETATM   22  H5* UNL     1      -7.184   5.978  71.135  1.00  0.00     0.000 HD 
ENDBRANCH  13  20
ENDBRANCH   8  11
ENDBRANCH   2   6
TORSDOF 3
ENDMDL
MODEL      183
REMARK 921   NORMALIZED FREE ENERGY PREDICTED BY IDOCK:   -2.71 KCAL/MOL
REMARK 922        TOTAL FREE ENERGY PREDICTED BY IDOCK:   -4.12 KCAL/MOL
REMARK 923 INTER-LIGAND FREE ENERGY PREDICTED BY IDOCK:   -3.67 KCAL/MOL
REMARK 924 INTRA-LIGAND FREE ENERGY PREDICTED BY IDOCK:   -0.45 KCAL/MOL
REMARK 927      BINDING AFFINITY PREDICTED BY RF-SCORE:    0.00 PKD
ROOT
HETATM    1  N   UNL     1     -11.371   5.955  66.393  1.00  0.00    -0.669 N  
HETATM    2  C   UNL     1     -10.193   5.364  66.774  1.00  0.00    -0.241 C  
HETATM    3  H2  UNL     1     -11.590   6.050  65.402  1.00  0.00     0.000 HD 
HETATM    4  H1  UNL     1     -12.031   6.302  67.090  1.00  0.00     0.000 HD 
HETATM    5  O   UNL     1      -9.398   4.946  65.934  1.00  0.00    -0.147 OA 
ENDROOT
BRANCH   2   6
HETATM    6  C   UNL     1     -10.008   5.281  68.234  1.00  0.00    -0.156 A  
HETATM    7  N   UNL     1     -10.760   5.945  69.125  1.00  0.00    -0.304 NA 
HETATM    8  N   UNL     1     -10.168   5.632  70.291  1.00  0.00    -0.222 NA 
HETATM    9  C   UNL     1      -9.159   4.743  70.103  1.00  0.00    -0.104 A  
HETATM   10  N   UNL     1      -9.014   4.510  68.822  1.00  0.00    -0.105 NA 
BRANCH   8  11
HETATM   11  C1* UNL     1     -10.615   6.174  71.559  1.00  0.00    -0.239 C  
HETATM   12  O4* UNL     1     -10.728   7.610  71.426  1.00  0.00    -0.222 OA 
HETATM   13  C4* UNL     1      -9.541   8.208  71.990  1.00  0.00    -0.219 C  
HETATM   14  C3* UNL     1      -9.017   7.234  73.047  1.00  0.00    -0.138 C  
HETATM   15  H2* UNL     1      -9.978   5.315  74.619  1.00  0.00     0.000 HD 
HETATM   16  C2* UNL     1      -9.713   5.900  72.764  1.00  0.00    -0.156 C  
HETATM   17  H3* UNL     1      -9.036   7.053  75.037  1.00  0.00     0.000 HD 
HETATM   18  O3* UNL     1      -9.361   7.658  74.381  1.00  0.00    -0.061 OA 
HETATM   19  O2* UNL     1     -10.538   5.486  73.871  1.00  0.00    -0.261 OA 
BRANCH  13  20
HETATM   20  C5* UNL     1      -8.538   8.503  70.869  1.00  0.00    -0.158 C  
HETATM   21  O5* UNL     1      -8.803   9.795  70.320  1.00  0.00    -0.264 OA 
HETATM   22  H5* UNL     1      -8.181   9.978  69.625  1.00  0.00     0.000 HD 
ENDBRANCH  13  20
ENDBRANCH   8  11
ENDBRANCH   2   6
TORSDOF 3
ENDMDL
MODEL      184
REMARK 921   NORMALIZED FREE ENERGY PREDICTED BY IDOCK:   -2.70 KCAL/MOL
REMARK 922        TOTAL FREE ENERGY PREDICTED BY IDOCK:   -4.11 KCAL/MOL
REMARK 923 INTER-LIGAND FREE ENERGY PREDICTED BY IDOCK:   -3.24 KCAL/MOL
REMARK 924 INTRA-LIGAND FREE ENERGY PREDICTED BY IDOCK:   -0.86 KCAL/MOL
REMARK 927      BINDING AFFINITY PREDICTED BY RF-SCORE:    0.00 PKD
ROOT
HETATM    1  N   UNL     1      -7.956   4.047  66.214  1.00  0.00    -0.097 N  
HETATM    2  C   UNL     1      -8.294   5.341  65.907  1.00  0.00    -0.120 C  
HETATM    3  H2  UNL     1      -7.360   3.518  65.578  1.00  0.00     0.000 HD 
HETATM    4  H1  UNL     1      -8.293   3.609  67.071  1.00  0.00     0.000 HD 
HETATM    5  O   UNL     1      -7.889   5.869  64.874  1.00  0.00    -0.094 OA 
ENDROOT
BRANCH   2   6
HETATM    6  C   UNL     1      -9.149   5.992  66.916  1.00  0.00    -0.125 A  
HETATM    7  N   UNL     1      -8.679   6.690  67.961  1.00  0.00    -0.118 NA 
HETATM    8  N   UNL     1      -9.804   7.002  68.627  1.00  0.00    -0.145 NA 
HETATM    9  C   UNL     1     -10.905   6.581  67.952  1.00  0.00    -0.304 A  
HETATM   10  N   UNL     1     -10.537   5.926  66.879  1.00  0.00    -0.286 NA 
BRANCH   8  11
HETATM   11  C1* UNL     1      -9.787   7.727  69.882  1.00  0.00    -0.177 C  
HETATM   12  O4* UNL     1      -9.006   6.970  70.835  1.00  0.00    -0.150 OA 
HETATM   13  C4* UNL     1      -9.917   6.233  71.679  1.00  0.00    -0.179 C  
HETATM   14  C3* UNL     1     -11.229   7.020  71.703  1.00  0.00    -0.245 C  
HETATM   15  H2* UNL     1     -12.036   9.532  71.363  1.00  0.00     0.000 HD 
HETATM   16  C2* UNL     1     -11.150   7.994  70.524  1.00  0.00    -0.251 C  
HETATM   17  H3* UNL     1     -12.188   8.269  72.933  1.00  0.00     0.000 HD 
HETATM   18  O3* UNL     1     -11.374   7.780  72.919  1.00  0.00    -0.387 OA 
HETATM   19  O2* UNL     1     -11.189   9.366  70.965  1.00  0.00    -0.283 OA 
BRANCH  13  20
HETATM   20  C5* UNL     1     -10.063   4.804  71.145  1.00  0.00    -0.191 C  
HETATM   21  O5* UNL     1      -8.920   4.471  70.356  1.00  0.00    -0.087 OA 
HETATM   22  H5* UNL     1      -9.009   3.585  70.025  1.00  0.00     0.000 HD 
ENDBRANCH  13  20
ENDBRANCH   8  11
ENDBRANCH   2   6
TORSDOF 3
ENDMDL
MODEL      185
REMARK 921   NORMALIZED FREE ENERGY PREDICTED BY IDOCK:   -2.68 KCAL/MOL
REMARK 922        TOTAL FREE ENERGY PREDICTED BY IDOCK:   -4.08 KCAL/MOL
REMARK 923 INTER-LIGAND FREE ENERGY PREDICTED BY IDOCK:   -3.24 KCAL/MOL
REMARK 924 INTRA-LIGAND FREE ENERGY PREDICTED BY IDOCK:   -0.83 KCAL/MOL
REMARK 927      BINDING AFFINITY PREDICTED BY RF-SCORE:    0.00 PKD
ROOT
HETATM    1  N   UNL     1      -9.223  14.252  68.807  1.00  0.00    -0.330 N  
HETATM    2  C   UNL     1      -8.474  13.767  67.765  1.00  0.00    -0.181 C  
HETATM    3  H2  UNL     1      -9.486  15.237  68.822  1.00  0.00     0.000 HD 
HETATM    4  H1  UNL     1      -9.520  13.639  69.567  1.00  0.00     0.000 HD 
HETATM    5  O   UNL     1      -8.116  14.505  66.850  1.00  0.00    -0.151 OA 
ENDROOT
BRANCH   2   6
HETATM    6  C   UNL     1      -8.175  12.326  67.861  1.00  0.00    -0.161 A  
HETATM    7  N   UNL     1      -8.602  11.536  68.857  1.00  0.00    -0.039 NA 
HETATM    8  N   UNL     1      -8.015  10.362  68.565  1.00  0.00    -0.108 NA 
HETATM    9  C   UNL     1      -7.338  10.434  67.389  1.00  0.00    -0.093 A  
HETATM   10  N   UNL     1      -7.399  11.657  66.923  1.00  0.00    -0.143 NA 
BRANCH   8  11
HETATM   11  C1* UNL     1      -8.150   9.194  69.411  1.00  0.00    -0.102 C  
HETATM   12  O4* UNL     1      -8.508   8.067  68.577  1.00  0.00    -0.126 OA 
HETATM   13  C4* UNL     1      -9.935   7.869  68.678  1.00  0.00    -0.191 C  
HETATM   14  C3* UNL     1     -10.360   8.412  70.044  1.00  0.00    -0.211 C  
HETATM   15  H2* UNL     1      -9.268   8.832  72.432  1.00  0.00     0.000 HD 
HETATM   16  C2* UNL     1      -9.197   9.285  70.524  1.00  0.00    -0.261 C  
HETATM   17  H3* UNL     1     -10.828   7.690  71.847  1.00  0.00     0.000 HD 
HETATM   18  O3* UNL     1     -10.565   7.353  70.999  1.00  0.00    -0.222 OA 
HETATM   19  O2* UNL     1      -8.618   8.775  71.742  1.00  0.00    -0.240 OA 
BRANCH  13  20
HETATM   20  C5* UNL     1     -10.629   8.556  67.496  1.00  0.00    -0.214 C  
HETATM   21  O5* UNL     1     -11.111   9.837  67.905  1.00  0.00    -0.471 OA 
HETATM   22  H5* UNL     1     -11.541  10.263  67.173  1.00  0.00     0.000 HD 
ENDBRANCH  13  20
ENDBRANCH   8  11
ENDBRANCH   2   6
TORSDOF 3
ENDMDL
MODEL      186
REMARK 921   NORMALIZED FREE ENERGY PREDICTED BY IDOCK:   -2.66 KCAL/MOL
REMARK 922        TOTAL FREE ENERGY PREDICTED BY IDOCK:   -4.06 KCAL/MOL
REMARK 923 INTER-LIGAND FREE ENERGY PREDICTED BY IDOCK:   -3.63 KCAL/MOL
REMARK 924 INTRA-LIGAND FREE ENERGY PREDICTED BY IDOCK:   -0.43 KCAL/MOL
REMARK 927      BINDING AFFINITY PREDICTED BY RF-SCORE:    0.00 PKD
ROOT
HETATM    1  N   UNL     1      -8.908   7.633  65.283  1.00  0.00    -0.373 N  
HETATM    2  C   UNL     1      -8.291   6.771  66.153  1.00  0.00    -0.130 C  
HETATM    3  H2  UNL     1      -8.432   7.910  64.425  1.00  0.00     0.000 HD 
HETATM    4  H1  UNL     1      -9.838   8.002  65.484  1.00  0.00     0.000 HD 
HETATM    5  O   UNL     1      -7.170   6.328  65.911  1.00  0.00    -0.071 OA 
ENDROOT
BRANCH   2   6
HETATM    6  C   UNL     1      -9.094   6.446  67.346  1.00  0.00    -0.111 A  
HETATM    7  N   UNL     1      -9.944   7.301  67.935  1.00  0.00    -0.151 NA 
HETATM    8  N   UNL     1     -10.359   6.602  69.005  1.00  0.00    -0.180 NA 
HETATM    9  C   UNL     1      -9.842   5.345  69.000  1.00  0.00    -0.168 A  
HETATM   10  N   UNL     1      -9.027   5.213  67.983  1.00  0.00    -0.109 NA 
BRANCH   8  11
HETATM   11  C1* UNL     1     -11.270   7.154  69.988  1.00  0.00    -0.238 C  
HETATM   12  O4* UNL     1     -10.974   8.562  70.142  1.00  0.00    -0.241 OA 
HETATM   13  C4* UNL     1     -10.161   8.723  71.325  1.00  0.00    -0.262 C  
HETATM   14  C3* UNL     1     -10.500   7.557  72.255  1.00  0.00    -0.230 C  
HETATM   15  H2* UNL     1     -12.538   5.908  72.698  1.00  0.00     0.000 HD 
HETATM   16  C2* UNL     1     -11.220   6.525  71.382  1.00  0.00    -0.283 C  
HETATM   17  H3* UNL     1     -11.597   7.237  73.893  1.00  0.00     0.000 HD 
HETATM   18  O3* UNL     1     -11.387   7.961  73.316  1.00  0.00    -0.312 OA 
HETATM   19  O2* UNL     1     -12.570   6.298  71.833  1.00  0.00    -0.251 OA 
BRANCH  13  20
HETATM   20  C5* UNL     1      -8.683   8.784  70.921  1.00  0.00    -0.194 C  
HETATM   21  O5* UNL     1      -7.893   9.138  72.057  1.00  0.00    -0.325 OA 
HETATM   22  H5* UNL     1      -6.977   9.175  71.808  1.00  0.00     0.000 HD 
ENDBRANCH  13  20
ENDBRANCH   8  11
ENDBRANCH   2   6
TORSDOF 3
ENDMDL
MODEL      187
REMARK 921   NORMALIZED FREE ENERGY PREDICTED BY IDOCK:   -2.66 KCAL/MOL
REMARK 922        TOTAL FREE ENERGY PREDICTED BY IDOCK:   -4.06 KCAL/MOL
REMARK 923 INTER-LIGAND FREE ENERGY PREDICTED BY IDOCK:   -3.43 KCAL/MOL
REMARK 924 INTRA-LIGAND FREE ENERGY PREDICTED BY IDOCK:   -0.62 KCAL/MOL
REMARK 927      BINDING AFFINITY PREDICTED BY RF-SCORE:    0.00 PKD
ROOT
HETATM    1  N   UNL     1      -8.202   8.247  74.089  1.00  0.00    -0.246 N  
HETATM    2  C   UNL     1      -8.599   7.134  73.392  1.00  0.00    -0.134 C  
HETATM    3  H2  UNL     1      -7.912   8.154  75.063  1.00  0.00     0.000 HD 
HETATM    4  H1  UNL     1      -8.192   9.166  73.646  1.00  0.00     0.000 HD 
HETATM    5  O   UNL     1      -8.611   6.027  73.927  1.00  0.00    -0.120 OA 
ENDROOT
BRANCH   2   6
HETATM    6  C   UNL     1      -8.981   7.408  71.994  1.00  0.00    -0.124 A  
HETATM    7  N   UNL     1      -8.722   8.559  71.357  1.00  0.00    -0.168 NA 
HETATM    8  N   UNL     1      -9.326   8.373  70.171  1.00  0.00    -0.162 NA 
HETATM    9  C   UNL     1      -9.846   7.121  70.078  1.00  0.00    -0.178 A  
HETATM   10  N   UNL     1      -9.665   6.488  71.210  1.00  0.00    -0.174 NA 
BRANCH   8  11
HETATM   11  C1* UNL     1      -9.357   9.397  69.146  1.00  0.00    -0.159 C  
HETATM   12  O4* UNL     1      -9.555  10.678  69.788  1.00  0.00    -0.052 OA 
HETATM   13  C4* UNL     1     -10.953  11.025  69.679  1.00  0.00    -0.225 C  
HETATM   14  C3* UNL     1     -11.484  10.322  68.428  1.00  0.00    -0.091 C  
HETATM   15  H2* UNL     1     -10.532   9.394  66.125  1.00  0.00     0.000 HD 
HETATM   16  C2* UNL     1     -10.446   9.252  68.080  1.00  0.00    -0.215 C  
HETATM   17  H3* UNL     1     -11.930  10.793  66.539  1.00  0.00     0.000 HD 
HETATM   18  O3* UNL     1     -11.600  11.229  67.315  1.00  0.00    -0.527 OA 
HETATM   19  O2* UNL     1      -9.856   9.485  66.786  1.00  0.00    -0.187 OA 
BRANCH  13  20
HETATM   20  C5* UNL     1     -11.678  10.625  70.969  1.00  0.00    -0.233 C  
HETATM   21  O5* UNL     1     -12.373   9.394  70.763  1.00  0.00    -0.440 OA 
HETATM   22  H5* UNL     1     -12.822   9.146  71.563  1.00  0.00     0.000 HD 
ENDBRANCH  13  20
ENDBRANCH   8  11
ENDBRANCH   2   6
TORSDOF 3
ENDMDL
MODEL      188
REMARK 921   NORMALIZED FREE ENERGY PREDICTED BY IDOCK:   -2.65 KCAL/MOL
REMARK 922        TOTAL FREE ENERGY PREDICTED BY IDOCK:   -4.05 KCAL/MOL
REMARK 923 INTER-LIGAND FREE ENERGY PREDICTED BY IDOCK:   -3.25 KCAL/MOL
REMARK 924 INTRA-LIGAND FREE ENERGY PREDICTED BY IDOCK:   -0.80 KCAL/MOL
REMARK 927      BINDING AFFINITY PREDICTED BY RF-SCORE:    0.00 PKD
ROOT
HETATM    1  N   UNL     1      -5.213  16.745  68.551  1.00  0.00    -0.117 N  
HETATM    2  C   UNL     1      -6.040  16.408  67.510  1.00  0.00    -0.155 C  
HETATM    3  H2  UNL     1      -4.481  17.440  68.408  1.00  0.00     0.000 HD 
HETATM    4  H1  UNL     1      -5.321  16.310  69.467  1.00  0.00     0.000 HD 
HETATM    5  O   UNL     1      -5.909  16.932  66.406  1.00  0.00    -0.320 OA 
ENDROOT
BRANCH   2   6
HETATM    6  C   UNL     1      -7.060  15.401  67.857  1.00  0.00    -0.140 A  
HETATM    7  N   UNL     1      -8.156  15.663  68.584  1.00  0.00    -0.148 NA 
HETATM    8  N   UNL     1      -8.715  14.446  68.709  1.00  0.00    -0.163 NA 
HETATM    9  C   UNL     1      -8.022  13.515  68.004  1.00  0.00    -0.151 A  
HETATM   10  N   UNL     1      -6.964  14.071  67.468  1.00  0.00    -0.179 NA 
BRANCH   8  11
HETATM   11  C1* UNL     1      -9.923  14.222  69.478  1.00  0.00     0.302 C  
HETATM   12  O4* UNL     1     -10.907  13.611  68.611  1.00  0.00    -0.250 OA 
HETATM   13  C4* UNL     1     -11.810  14.643  68.158  1.00  0.00    -0.298 C  
HETATM   14  C3* UNL     1     -11.808  15.732  69.232  1.00  0.00    -0.346 C  
HETATM   15  H2* UNL     1     -11.331  15.938  71.840  1.00  0.00     0.000 HD 
HETATM   16  C2* UNL     1     -10.571  15.464  70.093  1.00  0.00    -0.295 C  
HETATM   17  H3* UNL     1     -12.976  16.333  70.736  1.00  0.00     0.000 HD 
HETATM   18  O3* UNL     1     -12.978  15.657  70.070  1.00  0.00    -0.167 OA 
HETATM   19  O2* UNL     1     -10.929  15.167  71.458  1.00  0.00    -0.270 OA 
BRANCH  13  20
HETATM   20  C5* UNL     1     -11.366  15.135  66.775  1.00  0.00    -0.248 C  
HETATM   21  O5* UNL     1     -10.450  16.220  66.928  1.00  0.00    -0.306 OA 
HETATM   22  H5* UNL     1     -10.174  16.526  66.072  1.00  0.00     0.000 HD 
ENDBRANCH  13  20
ENDBRANCH   8  11
ENDBRANCH   2   6
TORSDOF 3
ENDMDL
MODEL      189
REMARK 921   NORMALIZED FREE ENERGY PREDICTED BY IDOCK:   -2.63 KCAL/MOL
REMARK 922        TOTAL FREE ENERGY PREDICTED BY IDOCK:   -4.03 KCAL/MOL
REMARK 923 INTER-LIGAND FREE ENERGY PREDICTED BY IDOCK:   -3.19 KCAL/MOL
REMARK 924 INTRA-LIGAND FREE ENERGY PREDICTED BY IDOCK:   -0.84 KCAL/MOL
REMARK 927      BINDING AFFINITY PREDICTED BY RF-SCORE:    0.00 PKD
ROOT
HETATM    1  N   UNL     1     -11.292   4.644  65.215  1.00  0.00    -0.982 N  
HETATM    2  C   UNL     1     -10.048   4.289  65.669  1.00  0.00    -0.219 C  
HETATM    3  H2  UNL     1     -11.686   4.171  64.402  1.00  0.00     0.000 HD 
HETATM    4  H1  UNL     1     -11.829   5.376  65.681  1.00  0.00     0.000 HD 
HETATM    5  O   UNL     1      -9.401   3.407  65.108  1.00  0.00    -0.147 OA 
ENDROOT
BRANCH   2   6
HETATM    6  C   UNL     1      -9.605   5.044  66.856  1.00  0.00    -0.154 A  
HETATM    7  N   UNL     1      -8.912   6.191  66.801  1.00  0.00    -0.120 NA 
HETATM    8  N   UNL     1      -8.667   6.441  68.099  1.00  0.00    -0.117 NA 
HETATM    9  C   UNL     1      -9.272   5.523  68.897  1.00  0.00    -0.119 A  
HETATM   10  N   UNL     1      -9.857   4.617  68.154  1.00  0.00    -0.136 NA 
BRANCH   8  11
HETATM   11  C1* UNL     1      -7.884   7.580  68.536  1.00  0.00    -0.122 C  
HETATM   12  O4* UNL     1      -8.697   8.374  69.432  1.00  0.00    -0.135 OA 
HETATM   13  C4* UNL     1      -9.240   9.483  68.682  1.00  0.00    -0.135 C  
HETATM   14  C3* UNL     1      -8.265   9.760  67.537  1.00  0.00    -0.114 C  
HETATM   15  H2* UNL     1      -5.683   9.403  67.006  1.00  0.00     0.000 HD 
HETATM   16  C2* UNL     1      -7.380   8.515  67.434  1.00  0.00    -0.089 C  
HETATM   17  H3* UNL     1      -6.820  11.070  67.103  1.00  0.00     0.000 HD 
HETATM   18  O3* UNL     1      -7.426  10.898  67.814  1.00  0.00    -0.091 OA 
HETATM   19  O2* UNL     1      -5.996   8.823  67.691  1.00  0.00    -0.046 OA 
BRANCH  13  20
HETATM   20  C5* UNL     1     -10.659   9.135  68.217  1.00  0.00    -0.174 C  
HETATM   21  O5* UNL     1     -10.619   8.687  66.861  1.00  0.00    -0.287 OA 
HETATM   22  H5* UNL     1     -11.498   8.472  66.572  1.00  0.00     0.000 HD 
ENDBRANCH  13  20
ENDBRANCH   8  11
ENDBRANCH   2   6
TORSDOF 3
ENDMDL
MODEL      190
REMARK 921   NORMALIZED FREE ENERGY PREDICTED BY IDOCK:   -2.63 KCAL/MOL
REMARK 922        TOTAL FREE ENERGY PREDICTED BY IDOCK:   -4.02 KCAL/MOL
REMARK 923 INTER-LIGAND FREE ENERGY PREDICTED BY IDOCK:   -3.74 KCAL/MOL
REMARK 924 INTRA-LIGAND FREE ENERGY PREDICTED BY IDOCK:   -0.28 KCAL/MOL
REMARK 927      BINDING AFFINITY PREDICTED BY RF-SCORE:    0.00 PKD
ROOT
HETATM    1  N   UNL     1     -11.305  15.133  66.660  1.00  0.00    -0.286 N  
HETATM    2  C   UNL     1     -11.952  13.972  66.320  1.00  0.00    -0.432 C  
HETATM    3  H2  UNL     1     -11.796  16.024  66.587  1.00  0.00     0.000 HD 
HETATM    4  H1  UNL     1     -10.338  15.117  66.986  1.00  0.00     0.000 HD 
HETATM    5  O   UNL     1     -13.116  13.992  65.927  1.00  0.00    -0.411 OA 
ENDROOT
BRANCH   2   6
HETATM    6  C   UNL     1     -11.130  12.759  66.482  1.00  0.00    -0.286 A  
HETATM    7  N   UNL     1      -9.789  12.754  66.483  1.00  0.00    -0.252 NA 
HETATM    8  N   UNL     1      -9.506  11.443  66.566  1.00  0.00    -0.195 NA 
HETATM    9  C   UNL     1     -10.639  10.705  66.701  1.00  0.00    -0.214 A  
HETATM   10  N   UNL     1     -11.683  11.493  66.636  1.00  0.00    -0.445 NA 
BRANCH   8  11
HETATM   11  C1* UNL     1      -8.147  10.939  66.547  1.00  0.00    -0.154 C  
HETATM   12  O4* UNL     1      -8.117   9.683  67.266  1.00  0.00    -0.109 OA 
HETATM   13  C4* UNL     1      -7.628   9.940  68.600  1.00  0.00    -0.080 C  
HETATM   14  C3* UNL     1      -6.742  11.184  68.512  1.00  0.00    -0.062 C  
HETATM   15  H2* UNL     1      -5.281  12.447  66.682  1.00  0.00     0.000 HD 
HETATM   16  C2* UNL     1      -7.084  11.844  67.173  1.00  0.00    -0.142 C  
HETATM   17  H3* UNL     1      -4.792  11.615  68.457  1.00  0.00     0.000 HD 
HETATM   18  O3* UNL     1      -5.342  10.843  68.512  1.00  0.00    -0.041 OA 
HETATM   19  O2* UNL     1      -5.941  11.885  66.294  1.00  0.00    -0.112 OA 
BRANCH  13  20
HETATM   20  C5* UNL     1      -8.816  10.094  69.557  1.00  0.00    -0.182 C  
HETATM   21  O5* UNL     1      -8.431   9.671  70.866  1.00  0.00    -0.339 OA 
HETATM   22  H5* UNL     1      -9.167   9.766  71.459  1.00  0.00     0.000 HD 
ENDBRANCH  13  20
ENDBRANCH   8  11
ENDBRANCH   2   6
TORSDOF 3
ENDMDL
MODEL      191
REMARK 921   NORMALIZED FREE ENERGY PREDICTED BY IDOCK:   -2.62 KCAL/MOL
REMARK 922        TOTAL FREE ENERGY PREDICTED BY IDOCK:   -4.01 KCAL/MOL
REMARK 923 INTER-LIGAND FREE ENERGY PREDICTED BY IDOCK:   -3.17 KCAL/MOL
REMARK 924 INTRA-LIGAND FREE ENERGY PREDICTED BY IDOCK:   -0.84 KCAL/MOL
REMARK 927      BINDING AFFINITY PREDICTED BY RF-SCORE:    0.00 PKD
ROOT
HETATM    1  N   UNL     1      -8.944  14.281  68.859  1.00  0.00    -0.361 N  
HETATM    2  C   UNL     1      -7.897  14.178  67.979  1.00  0.00    -0.146 C  
HETATM    3  H2  UNL     1      -9.245  15.201  69.179  1.00  0.00     0.000 HD 
HETATM    4  H1  UNL     1      -9.426  13.448  69.198  1.00  0.00     0.000 HD 
HETATM    5  O   UNL     1      -7.316  15.181  67.572  1.00  0.00    -0.163 OA 
ENDROOT
BRANCH   2   6
HETATM    6  C   UNL     1      -7.574  12.792  67.591  1.00  0.00    -0.152 A  
HETATM    7  N   UNL     1      -8.369  11.740  67.835  1.00  0.00    -0.141 NA 
HETATM    8  N   UNL     1      -7.627  10.711  67.391  1.00  0.00    -0.094 NA 
HETATM    9  C   UNL     1      -6.473  11.149  66.823  1.00  0.00    -0.127 A  
HETATM   10  N   UNL     1      -6.393  12.450  66.944  1.00  0.00    -0.152 NA 
BRANCH   8  11
HETATM   11  C1* UNL     1      -8.066   9.333  67.497  1.00  0.00    -0.107 C  
HETATM   12  O4* UNL     1      -8.045   8.746  66.175  1.00  0.00    -0.103 OA 
HETATM   13  C4* UNL     1      -9.392   8.766  65.653  1.00  0.00    -0.150 C  
HETATM   14  C3* UNL     1     -10.332   8.738  66.860  1.00  0.00    -0.274 C  
HETATM   15  H2* UNL     1     -10.283   7.913  69.388  1.00  0.00     0.000 HD 
HETATM   16  C2* UNL     1      -9.469   9.116  68.067  1.00  0.00    -0.141 C  
HETATM   17  H3* UNL     1     -11.464   7.407  67.828  1.00  0.00     0.000 HD 
HETATM   18  O3* UNL     1     -10.880   7.424  67.079  1.00  0.00    -0.354 OA 
HETATM   19  O2* UNL     1      -9.412   8.048  69.034  1.00  0.00    -0.151 OA 
BRANCH  13  20
HETATM   20  C5* UNL     1      -9.572   9.996  64.756  1.00  0.00    -0.308 C  
HETATM   21  O5* UNL     1     -10.243  11.024  65.486  1.00  0.00    -0.248 OA 
HETATM   22  H5* UNL     1     -10.354  11.787  64.931  1.00  0.00     0.000 HD 
ENDBRANCH  13  20
ENDBRANCH   8  11
ENDBRANCH   2   6
TORSDOF 3
ENDMDL
MODEL      192
REMARK 921   NORMALIZED FREE ENERGY PREDICTED BY IDOCK:   -2.61 KCAL/MOL
REMARK 922        TOTAL FREE ENERGY PREDICTED BY IDOCK:   -4.00 KCAL/MOL
REMARK 923 INTER-LIGAND FREE ENERGY PREDICTED BY IDOCK:   -3.16 KCAL/MOL
REMARK 924 INTRA-LIGAND FREE ENERGY PREDICTED BY IDOCK:   -0.85 KCAL/MOL
REMARK 927      BINDING AFFINITY PREDICTED BY RF-SCORE:    0.00 PKD
ROOT
HETATM    1  N   UNL     1      -8.915   2.604  65.584  1.00  0.00    -0.134 N  
HETATM    2  C   UNL     1      -9.487   3.822  65.317  1.00  0.00    -0.168 C  
HETATM    3  H2  UNL     1      -9.242   1.774  65.089  1.00  0.00     0.000 HD 
HETATM    4  H1  UNL     1      -8.166   2.518  66.272  1.00  0.00     0.000 HD 
HETATM    5  O   UNL     1     -10.390   3.925  64.489  1.00  0.00    -0.227 OA 
ENDROOT
BRANCH   2   6
HETATM    6  C   UNL     1      -8.914   4.937  66.093  1.00  0.00    -0.125 A  
HETATM    7  N   UNL     1      -9.416   6.180  66.103  1.00  0.00    -0.115 NA 
HETATM    8  N   UNL     1      -8.524   6.844  66.860  1.00  0.00    -0.114 NA 
HETATM    9  C   UNL     1      -7.579   6.002  67.352  1.00  0.00    -0.093 A  
HETATM   10  N   UNL     1      -7.778   4.797  66.880  1.00  0.00    -0.091 NA 
BRANCH   8  11
HETATM   11  C1* UNL     1      -8.628   8.267  67.114  1.00  0.00    -0.123 C  
HETATM   12  O4* UNL     1      -8.609   8.476  68.545  1.00  0.00    -0.136 OA 
HETATM   13  C4* UNL     1      -9.970   8.656  68.991  1.00  0.00    -0.192 C  
HETATM   14  C3* UNL     1     -10.753   9.218  67.803  1.00  0.00    -0.207 C  
HETATM   15  H2* UNL     1     -10.262  10.619  65.596  1.00  0.00     0.000 HD 
HETATM   16  C2* UNL     1      -9.880   8.959  66.572  1.00  0.00    -0.274 C  
HETATM   17  H3* UNL     1     -11.449  10.986  67.189  1.00  0.00     0.000 HD 
HETATM   18  O3* UNL     1     -10.964  10.638  67.927  1.00  0.00    -0.250 OA 
HETATM   19  O2* UNL     1      -9.484  10.190  65.933  1.00  0.00    -0.172 OA 
BRANCH  13  20
HETATM   20  C5* UNL     1     -10.514   7.321  69.515  1.00  0.00    -0.230 C  
HETATM   21  O5* UNL     1     -11.231   6.657  68.473  1.00  0.00    -0.505 OA 
HETATM   22  H5* UNL     1     -11.568   5.830  68.797  1.00  0.00     0.000 HD 
ENDBRANCH  13  20
ENDBRANCH   8  11
ENDBRANCH   2   6
TORSDOF 3
ENDMDL
MODEL      193
REMARK 921   NORMALIZED FREE ENERGY PREDICTED BY IDOCK:   -2.54 KCAL/MOL
REMARK 922        TOTAL FREE ENERGY PREDICTED BY IDOCK:   -3.91 KCAL/MOL
REMARK 923 INTER-LIGAND FREE ENERGY PREDICTED BY IDOCK:   -3.21 KCAL/MOL
REMARK 924 INTRA-LIGAND FREE ENERGY PREDICTED BY IDOCK:   -0.70 KCAL/MOL
REMARK 927      BINDING AFFINITY PREDICTED BY RF-SCORE:    0.00 PKD
ROOT
HETATM    1  N   UNL     1      -7.096  10.664  70.098  1.00  0.00    -0.291 N  
HETATM    2  C   UNL     1      -7.330   9.769  71.111  1.00  0.00     0.419 C  
HETATM    3  H2  UNL     1      -6.228  11.198  70.089  1.00  0.00     0.000 HD 
HETATM    4  H1  UNL     1      -7.781  10.803  69.354  1.00  0.00     0.000 HD 
HETATM    5  O   UNL     1      -6.506   9.602  72.007  1.00  0.00    -0.291 OA 
ENDROOT
BRANCH   2   6
HETATM    6  C   UNL     1      -8.617   9.058  70.996  1.00  0.00    -0.210 A  
HETATM    7  N   UNL     1      -8.745   7.724  71.055  1.00  0.00    -0.134 NA 
HETATM    8  N   UNL     1     -10.056   7.551  70.816  1.00  0.00    -0.193 NA 
HETATM    9  C   UNL     1     -10.696   8.744  70.709  1.00  0.00    -0.228 A  
HETATM   10  N   UNL     1      -9.824   9.717  70.800  1.00  0.00    -0.227 NA 
BRANCH   8  11
HETATM   11  C1* UNL     1     -10.664   6.237  70.729  1.00  0.00    -0.256 C  
HETATM   12  O4* UNL     1     -11.494   6.042  71.897  1.00  0.00    -0.287 OA 
HETATM   13  C4* UNL     1     -10.752   5.248  72.849  1.00  0.00    -0.253 C  
HETATM   14  C3* UNL     1      -9.764   4.404  72.042  1.00  0.00    -0.166 C  
HETATM   15  H2* UNL     1      -9.554   3.416  69.582  1.00  0.00     0.000 HD 
HETATM   16  C2* UNL     1      -9.698   5.052  70.657  1.00  0.00    -0.198 C  
HETATM   17  H3* UNL     1      -9.607   2.521  71.393  1.00  0.00     0.000 HD 
HETATM   18  O3* UNL     1     -10.220   3.045  71.894  1.00  0.00    -0.126 OA 
HETATM   19  O2* UNL     1     -10.153   4.151  69.627  1.00  0.00    -0.121 OA 
BRANCH  13  20
HETATM   20  C5* UNL     1     -10.084   6.174  73.872  1.00  0.00    -0.257 C  
HETATM   21  O5* UNL     1     -10.676   7.472  73.799  1.00  0.00    -0.391 OA 
HETATM   22  H5* UNL     1     -10.263   8.046  74.433  1.00  0.00     0.000 HD 
ENDBRANCH  13  20
ENDBRANCH   8  11
ENDBRANCH   2   6
TORSDOF 3
ENDMDL
MODEL      194
REMARK 921   NORMALIZED FREE ENERGY PREDICTED BY IDOCK:   -2.49 KCAL/MOL
REMARK 922        TOTAL FREE ENERGY PREDICTED BY IDOCK:   -3.86 KCAL/MOL
REMARK 923 INTER-LIGAND FREE ENERGY PREDICTED BY IDOCK:   -2.94 KCAL/MOL
REMARK 924 INTRA-LIGAND FREE ENERGY PREDICTED BY IDOCK:   -0.92 KCAL/MOL
REMARK 927      BINDING AFFINITY PREDICTED BY RF-SCORE:    0.00 PKD
ROOT
HETATM    1  N   UNL     1      -7.234   8.315  74.277  1.00  0.00    -0.173 N  
HETATM    2  C   UNL     1      -8.433   7.832  73.819  1.00  0.00    -0.236 C  
HETATM    3  H2  UNL     1      -6.962   8.154  75.246  1.00  0.00     0.000 HD 
HETATM    4  H1  UNL     1      -6.609   8.834  73.659  1.00  0.00     0.000 HD 
HETATM    5  O   UNL     1      -9.185   7.207  74.563  1.00  0.00    -0.206 OA 
ENDROOT
BRANCH   2   6
HETATM    6  C   UNL     1      -8.695   8.126  72.398  1.00  0.00    -0.189 A  
HETATM    7  N   UNL     1      -9.522   7.408  71.623  1.00  0.00    -0.150 NA 
HETATM    8  N   UNL     1      -9.364   7.989  70.421  1.00  0.00    -0.158 NA 
HETATM    9  C   UNL     1      -8.543   9.067  70.502  1.00  0.00    -0.201 A  
HETATM   10  N   UNL     1      -8.086   9.178  71.725  1.00  0.00    -0.309 NA 
BRANCH   8  11
HETATM   11  C1* UNL     1     -10.038   7.506  69.231  1.00  0.00    -0.188 C  
HETATM   12  O4* UNL     1      -9.974   6.061  69.226  1.00  0.00    -0.148 OA 
HETATM   13  C4* UNL     1      -8.897   5.662  68.350  1.00  0.00    -0.108 C  
HETATM   14  C3* UNL     1      -8.733   6.779  67.318  1.00  0.00    -0.119 C  
HETATM   15  H2* UNL     1     -10.218   8.693  66.220  1.00  0.00     0.000 HD 
HETATM   16  C2* UNL     1      -9.472   7.989  67.894  1.00  0.00    -0.145 C  
HETATM   17  H3* UNL     1      -9.232   7.124  65.414  1.00  0.00     0.000 HD 
HETATM   18  O3* UNL     1      -9.334   6.431  66.055  1.00  0.00    -0.125 OA 
HETATM   19  O2* UNL     1     -10.569   8.392  67.050  1.00  0.00    -0.314 OA 
BRANCH  13  20
HETATM   20  C5* UNL     1      -7.636   5.397  69.181  1.00  0.00    -0.085 C  
HETATM   21  O5* UNL     1      -8.007   5.119  70.533  1.00  0.00    -0.086 OA 
HETATM   22  H5* UNL     1      -7.226   4.954  71.048  1.00  0.00     0.000 HD 
ENDBRANCH  13  20
ENDBRANCH   8  11
ENDBRANCH   2   6
TORSDOF 3
ENDMDL
MODEL      195
REMARK 921   NORMALIZED FREE ENERGY PREDICTED BY IDOCK:   -2.49 KCAL/MOL
REMARK 922        TOTAL FREE ENERGY PREDICTED BY IDOCK:   -3.85 KCAL/MOL
REMARK 923 INTER-LIGAND FREE ENERGY PREDICTED BY IDOCK:   -3.35 KCAL/MOL
REMARK 924 INTRA-LIGAND FREE ENERGY PREDICTED BY IDOCK:   -0.50 KCAL/MOL
REMARK 927      BINDING AFFINITY PREDICTED BY RF-SCORE:    0.00 PKD
ROOT
HETATM    1  N   UNL     1     -10.873   8.359  67.550  1.00  0.00    -0.496 N  
HETATM    2  C   UNL     1     -10.555   9.343  68.450  1.00  0.00    -0.204 C  
HETATM    3  H2  UNL     1     -11.211   8.614  66.622  1.00  0.00     0.000 HD 
HETATM    4  H1  UNL     1     -10.774   7.374  67.796  1.00  0.00     0.000 HD 
HETATM    5  O   UNL     1     -10.674  10.530  68.153  1.00  0.00    -0.198 OA 
ENDROOT
BRANCH   2   6
HETATM    6  C   UNL     1     -10.068   8.836  69.746  1.00  0.00    -0.196 A  
HETATM    7  N   UNL     1     -10.501   7.703  70.319  1.00  0.00    -0.219 NA 
HETATM    8  N   UNL     1      -9.852   7.711  71.496  1.00  0.00    -0.166 NA 
HETATM    9  C   UNL     1      -8.998   8.764  71.577  1.00  0.00    -0.236 A  
HETATM   10  N   UNL     1      -9.116   9.506  70.504  1.00  0.00    -0.250 NA 
BRANCH   8  11
HETATM   11  C1* UNL     1     -10.049   6.682  72.499  1.00  0.00    -0.172 C  
HETATM   12  O4* UNL     1      -8.755   6.150  72.865  1.00  0.00    -0.124 OA 
HETATM   13  C4* UNL     1      -8.556   4.915  72.145  1.00  0.00    -0.124 C  
HETATM   14  C3* UNL     1      -9.946   4.342  71.861  1.00  0.00    -0.185 C  
HETATM   15  H2* UNL     1     -12.391   4.477  72.900  1.00  0.00     0.000 HD 
HETATM   16  C2* UNL     1     -10.925   5.498  72.086  1.00  0.00    -0.231 C  
HETATM   17  H3* UNL     1     -11.142   2.919  72.594  1.00  0.00     0.000 HD 
HETATM   18  O3* UNL     1     -10.279   3.274  72.770  1.00  0.00    -0.150 OA 
HETATM   19  O2* UNL     1     -11.847   5.213  73.157  1.00  0.00    -0.263 OA 
BRANCH  13  20
HETATM   20  C5* UNL     1      -7.730   5.189  70.882  1.00  0.00    -0.088 C  
HETATM   21  O5* UNL     1      -7.956   4.148  69.930  1.00  0.00    -0.055 OA 
HETATM   22  H5* UNL     1      -7.445   4.318  69.147  1.00  0.00     0.000 HD 
ENDBRANCH  13  20
ENDBRANCH   8  11
ENDBRANCH   2   6
TORSDOF 3
ENDMDL
MODEL      196
REMARK 921   NORMALIZED FREE ENERGY PREDICTED BY IDOCK:   -2.47 KCAL/MOL
REMARK 922        TOTAL FREE ENERGY PREDICTED BY IDOCK:   -3.84 KCAL/MOL
REMARK 923 INTER-LIGAND FREE ENERGY PREDICTED BY IDOCK:   -3.27 KCAL/MOL
REMARK 924 INTRA-LIGAND FREE ENERGY PREDICTED BY IDOCK:   -0.57 KCAL/MOL
REMARK 927      BINDING AFFINITY PREDICTED BY RF-SCORE:    0.00 PKD
ROOT
HETATM    1  N   UNL     1      -9.576  11.829  64.219  1.00  0.00    -0.442 N  
HETATM    2  C   UNL     1     -10.360  11.294  65.209  1.00  0.00    -0.280 C  
HETATM    3  H2  UNL     1      -9.850  12.706  63.777  1.00  0.00     0.000 HD 
HETATM    4  H1  UNL     1      -8.720  11.360  63.919  1.00  0.00     0.000 HD 
HETATM    5  O   UNL     1     -11.391  11.859  65.570  1.00  0.00    -0.322 OA 
ENDROOT
BRANCH   2   6
HETATM    6  C   UNL     1      -9.842  10.032  65.768  1.00  0.00    -0.278 A  
HETATM    7  N   UNL     1     -10.543   9.227  66.581  1.00  0.00    -0.153 NA 
HETATM    8  N   UNL     1      -9.643   8.278  66.891  1.00  0.00    -0.189 NA 
HETATM    9  C   UNL     1      -8.480   8.467  66.215  1.00  0.00    -0.127 A  
HETATM   10  N   UNL     1      -8.558   9.569  65.511  1.00  0.00    -0.139 NA 
BRANCH   8  11
HETATM   11  C1* UNL     1      -9.941   7.195  67.807  1.00  0.00    -0.155 C  
HETATM   12  O4* UNL     1     -10.622   7.747  68.958  1.00  0.00    -0.216 OA 
HETATM   13  C4* UNL     1      -9.655   7.907  70.019  1.00  0.00    -0.168 C  
HETATM   14  C3* UNL     1      -8.560   6.867  69.777  1.00  0.00    -0.141 C  
HETATM   15  H2* UNL     1      -8.304   4.506  68.578  1.00  0.00     0.000 HD 
HETATM   16  C2* UNL     1      -8.740   6.403  68.328  1.00  0.00    -0.116 C  
HETATM   17  H3* UNL     1      -8.026   5.081  70.495  1.00  0.00     0.000 HD 
HETATM   18  O3* UNL     1      -8.706   5.727  70.646  1.00  0.00    -0.132 OA 
HETATM   19  O2* UNL     1      -9.050   4.997  68.255  1.00  0.00    -0.109 OA 
BRANCH  13  20
HETATM   20  C5* UNL     1      -9.144   9.353  70.027  1.00  0.00    -0.220 C  
HETATM   21  O5* UNL     1      -7.723   9.357  69.885  1.00  0.00    -0.085 OA 
HETATM   22  H5* UNL     1      -7.406  10.252  69.891  1.00  0.00     0.000 HD 
ENDBRANCH  13  20
ENDBRANCH   8  11
ENDBRANCH   2   6
TORSDOF 3
ENDMDL
MODEL      197
REMARK 921   NORMALIZED FREE ENERGY PREDICTED BY IDOCK:   -2.45 KCAL/MOL
REMARK 922        TOTAL FREE ENERGY PREDICTED BY IDOCK:   -3.82 KCAL/MOL
REMARK 923 INTER-LIGAND FREE ENERGY PREDICTED BY IDOCK:   -3.80 KCAL/MOL
REMARK 924 INTRA-LIGAND FREE ENERGY PREDICTED BY IDOCK:   -0.02 KCAL/MOL
REMARK 927      BINDING AFFINITY PREDICTED BY RF-SCORE:    0.00 PKD
ROOT
HETATM    1  N   UNL     1     -10.307  15.362  69.489  1.00  0.00    -0.250 N  
HETATM    2  C   UNL     1      -9.920  15.296  68.174  1.00  0.00    -0.221 C  
HETATM    3  H2  UNL     1     -10.429  16.271  69.933  1.00  0.00     0.000 HD 
HETATM    4  H1  UNL     1     -10.474  14.511  70.027  1.00  0.00     0.000 HD 
HETATM    5  O   UNL     1      -9.718  16.321  67.526  1.00  0.00    -0.230 OA 
ENDROOT
BRANCH   2   6
HETATM    6  C   UNL     1      -9.792  13.922  67.655  1.00  0.00    -0.236 A  
HETATM    7  N   UNL     1     -10.372  13.490  66.525  1.00  0.00    -0.277 NA 
HETATM    8  N   UNL     1     -10.050  12.185  66.519  1.00  0.00    -0.206 NA 
HETATM    9  C   UNL     1      -9.234  11.877  67.560  1.00  0.00    -0.177 A  
HETATM   10  N   UNL     1      -9.061  12.938  68.309  1.00  0.00    -0.199 NA 
BRANCH   8  11
HETATM   11  C1* UNL     1     -10.512  11.276  65.489  1.00  0.00    -0.265 C  
HETATM   12  O4* UNL     1      -9.763  10.043  65.600  1.00  0.00    -0.230 OA 
HETATM   13  C4* UNL     1      -8.710  10.066  64.612  1.00  0.00    -0.191 C  
HETATM   14  C3* UNL     1      -9.194  10.966  63.474  1.00  0.00    -0.245 C  
HETATM   15  H2* UNL     1     -11.507  11.785  62.446  1.00  0.00     0.000 HD 
HETATM   16  C2* UNL     1     -10.369  11.764  64.046  1.00  0.00    -0.356 C  
HETATM   17  H3* UNL     1      -9.965  10.756  61.643  1.00  0.00     0.000 HD 
HETATM   18  O3* UNL     1      -9.664  10.198  62.349  1.00  0.00    -0.222 OA 
HETATM   19  O2* UNL     1     -11.596  11.482  63.342  1.00  0.00    -0.363 OA 
BRANCH  13  20
HETATM   20  C5* UNL     1      -7.409  10.543  65.268  1.00  0.00    -0.059 C  
HETATM   21  O5* UNL     1      -6.578   9.417  65.552  1.00  0.00    -0.068 OA 
HETATM   22  H5* UNL     1      -5.771   9.712  65.958  1.00  0.00     0.000 HD 
ENDBRANCH  13  20
ENDBRANCH   8  11
ENDBRANCH   2   6
TORSDOF 3
ENDMDL
MODEL      198
REMARK 921   NORMALIZED FREE ENERGY PREDICTED BY IDOCK:   -2.45 KCAL/MOL
REMARK 922        TOTAL FREE ENERGY PREDICTED BY IDOCK:   -3.81 KCAL/MOL
REMARK 923 INTER-LIGAND FREE ENERGY PREDICTED BY IDOCK:   -4.26 KCAL/MOL
REMARK 924 INTRA-LIGAND FREE ENERGY PREDICTED BY IDOCK:    0.45 KCAL/MOL
REMARK 927      BINDING AFFINITY PREDICTED BY RF-SCORE:    0.00 PKD
ROOT
HETATM    1  N   UNL     1     -11.683  14.196  65.532  1.00  0.00    -0.334 N  
HETATM    2  C   UNL     1     -12.259  12.954  65.453  1.00  0.00    -0.478 C  
HETATM    3  H2  UNL     1     -12.197  15.012  65.199  1.00  0.00     0.000 HD 
HETATM    4  H1  UNL     1     -10.747  14.315  65.919  1.00  0.00     0.000 HD 
HETATM    5  O   UNL     1     -13.387  12.811  64.986  1.00  0.00    -0.678 OA 
ENDROOT
BRANCH   2   6
HETATM    6  C   UNL     1     -11.413  11.867  65.978  1.00  0.00    -0.281 A  
HETATM    7  N   UNL     1     -11.468  11.416  67.240  1.00  0.00    -0.504 NA 
HETATM    8  N   UNL     1     -10.473  10.512  67.266  1.00  0.00    -0.235 NA 
HETATM    9  C   UNL     1      -9.910  10.370  66.038  1.00  0.00    -0.232 A  
HETATM   10  N   UNL     1     -10.460  11.216  65.204  1.00  0.00    -0.283 NA 
BRANCH   8  11
HETATM   11  C1* UNL     1     -10.114   9.786  68.468  1.00  0.00    -0.166 C  
HETATM   12  O4* UNL     1      -8.800  10.221  68.888  1.00  0.00    -0.138 OA 
HETATM   13  C4* UNL     1      -7.837   9.245  68.435  1.00  0.00    -0.094 C  
HETATM   14  C3* UNL     1      -8.579   7.910  68.331  1.00  0.00    -0.128 C  
HETATM   15  H2* UNL     1     -10.710   6.742  69.411  1.00  0.00     0.000 HD 
HETATM   16  C2* UNL     1     -10.069   8.261  68.346  1.00  0.00    -0.201 C  
HETATM   17  H3* UNL     1      -8.757   6.226  69.390  1.00  0.00     0.000 HD 
HETATM   18  O3* UNL     1      -8.296   7.054  69.455  1.00  0.00    -0.130 OA 
HETATM   19  O2* UNL     1     -10.738   7.689  69.487  1.00  0.00    -0.238 OA 
BRANCH  13  20
HETATM   20  C5* UNL     1      -7.221   9.714  67.112  1.00  0.00    -0.087 C  
HETATM   21  O5* UNL     1      -5.796   9.675  67.210  1.00  0.00    -0.050 OA 
HETATM   22  H5* UNL     1      -5.414   9.966  66.391  1.00  0.00     0.000 HD 
ENDBRANCH  13  20
ENDBRANCH   8  11
ENDBRANCH   2   6
TORSDOF 3
ENDMDL
MODEL      199
REMARK 921   NORMALIZED FREE ENERGY PREDICTED BY IDOCK:   -2.43 KCAL/MOL
REMARK 922        TOTAL FREE ENERGY PREDICTED BY IDOCK:   -3.78 KCAL/MOL
REMARK 923 INTER-LIGAND FREE ENERGY PREDICTED BY IDOCK:   -3.17 KCAL/MOL
REMARK 924 INTRA-LIGAND FREE ENERGY PREDICTED BY IDOCK:   -0.62 KCAL/MOL
REMARK 927      BINDING AFFINITY PREDICTED BY RF-SCORE:    0.00 PKD
ROOT
HETATM    1  N   UNL     1     -11.351   5.734  66.347  1.00  0.00    -0.649 N  
HETATM    2  C   UNL     1     -10.833   6.408  67.423  1.00  0.00    -0.375 C  
HETATM    3  H2  UNL     1     -12.161   5.128  66.474  1.00  0.00     0.000 HD 
HETATM    4  H1  UNL     1     -10.935   5.830  65.420  1.00  0.00     0.000 HD 
HETATM    5  O   UNL     1     -11.333   6.291  68.540  1.00  0.00    -0.324 OA 
ENDROOT
BRANCH   2   6
HETATM    6  C   UNL     1      -9.671   7.256  67.097  1.00  0.00    -0.168 A  
HETATM    7  N   UNL     1      -9.081   8.088  67.968  1.00  0.00    -0.130 NA 
HETATM    8  N   UNL     1      -8.155   8.693  67.204  1.00  0.00    -0.100 NA 
HETATM    9  C   UNL     1      -8.138   8.172  65.950  1.00  0.00    -0.115 A  
HETATM   10  N   UNL     1      -9.089   7.277  65.836  1.00  0.00    -0.082 NA 
BRANCH   8  11
HETATM   11  C1* UNL     1      -7.287   9.736  67.715  1.00  0.00    -0.089 C  
HETATM   12  O4* UNL     1      -7.963  10.393  68.812  1.00  0.00    -0.106 OA 
HETATM   13  C4* UNL     1      -8.549  11.615  68.312  1.00  0.00    -0.162 C  
HETATM   14  C3* UNL     1      -7.702  12.051  67.116  1.00  0.00    -0.161 C  
HETATM   15  H2* UNL     1      -5.212  11.738  66.234  1.00  0.00     0.000 HD 
HETATM   16  C2* UNL     1      -6.880  10.822  66.718  1.00  0.00    -0.115 C  
HETATM   17  H3* UNL     1      -6.271  13.388  66.721  1.00  0.00     0.000 HD 
HETATM   18  O3* UNL     1      -6.797  13.117  67.463  1.00  0.00    -0.152 OA 
HETATM   19  O2* UNL     1      -5.465  11.063  66.854  1.00  0.00    -0.053 OA 
BRANCH  13  20
HETATM   20  C5* UNL     1     -10.024  11.369  67.970  1.00  0.00    -0.182 C  
HETATM   21  O5* UNL     1     -10.126  10.867  66.637  1.00  0.00    -0.204 OA 
HETATM   22  H5* UNL     1     -11.039  10.715  66.425  1.00  0.00     0.000 HD 
ENDBRANCH  13  20
ENDBRANCH   8  11
ENDBRANCH   2   6
TORSDOF 3
ENDMDL
MODEL      200
REMARK 921   NORMALIZED FREE ENERGY PREDICTED BY IDOCK:   -2.42 KCAL/MOL
REMARK 922        TOTAL FREE ENERGY PREDICTED BY IDOCK:   -3.78 KCAL/MOL
REMARK 923 INTER-LIGAND FREE ENERGY PREDICTED BY IDOCK:   -3.22 KCAL/MOL
REMARK 924 INTRA-LIGAND FREE ENERGY PREDICTED BY IDOCK:   -0.56 KCAL/MOL
REMARK 927      BINDING AFFINITY PREDICTED BY RF-SCORE:    0.00 PKD
ROOT
HETATM    1  N   UNL     1      -9.789   8.955  67.482  1.00  0.00    -0.173 N  
HETATM    2  C   UNL     1      -9.233   9.834  68.378  1.00  0.00    -0.130 C  
HETATM    3  H2  UNL     1     -10.124   8.049  67.807  1.00  0.00     0.000 HD 
HETATM    4  H1  UNL     1      -9.871   9.198  66.494  1.00  0.00     0.000 HD 
HETATM    5  O   UNL     1      -9.134   9.541  69.567  1.00  0.00    -0.160 OA 
ENDROOT
BRANCH   2   6
HETATM    6  C   UNL     1      -8.802  11.109  67.777  1.00  0.00    -0.135 A  
HETATM    7  N   UNL     1      -9.637  12.106  67.452  1.00  0.00    -0.176 NA 
HETATM    8  N   UNL     1      -8.812  12.994  66.870  1.00  0.00    -0.206 NA 
HETATM    9  C   UNL     1      -7.521  12.575  66.931  1.00  0.00     0.101 A  
HETATM   10  N   UNL     1      -7.474  11.386  67.479  1.00  0.00    -0.106 NA 
BRANCH   8  11
HETATM   11  C1* UNL     1      -9.288  14.239  66.299  1.00  0.00    -0.208 C  
HETATM   12  O4* UNL     1      -8.257  15.240  66.468  1.00  0.00    -0.192 OA 
HETATM   13  C4* UNL     1      -8.597  16.046  67.617  1.00  0.00    -0.166 C  
HETATM   14  C3* UNL     1     -10.119  15.993  67.757  1.00  0.00    -0.243 C  
HETATM   15  H2* UNL     1     -12.236  15.582  66.201  1.00  0.00     0.000 HD 
HETATM   16  C2* UNL     1     -10.574  14.808  66.902  1.00  0.00    -0.294 C  
HETATM   17  H3* UNL     1     -11.688  17.158  67.341  1.00  0.00     0.000 HD 
HETATM   18  O3* UNL     1     -10.743  17.190  67.254  1.00  0.00    -0.302 OA 
HETATM   19  O2* UNL     1     -11.438  15.229  65.827  1.00  0.00    -0.247 OA 
BRANCH  13  20
HETATM   20  C5* UNL     1      -7.843  15.523  68.846  1.00  0.00    -0.182 C  
HETATM   21  O5* UNL     1      -8.712  14.696  69.621  1.00  0.00    -0.399 OA 
HETATM   22  H5* UNL     1      -8.246  14.371  70.382  1.00  0.00     0.000 HD 
ENDBRANCH  13  20
ENDBRANCH   8  11
ENDBRANCH   2   6
TORSDOF 3
ENDMDL
MODEL      201
REMARK 921   NORMALIZED FREE ENERGY PREDICTED BY IDOCK:   -2.42 KCAL/MOL
REMARK 922        TOTAL FREE ENERGY PREDICTED BY IDOCK:   -3.77 KCAL/MOL
REMARK 923 INTER-LIGAND FREE ENERGY PREDICTED BY IDOCK:   -3.26 KCAL/MOL
REMARK 924 INTRA-LIGAND FREE ENERGY PREDICTED BY IDOCK:   -0.51 KCAL/MOL
REMARK 927      BINDING AFFINITY PREDICTED BY RF-SCORE:    0.00 PKD
ROOT
HETATM    1  N   UNL     1      -7.819   8.730  63.181  1.00  0.00    -0.141 N  
HETATM    2  C   UNL     1      -8.812   9.647  63.419  1.00  0.00    -0.232 C  
HETATM    3  H2  UNL     1      -7.775   8.259  62.277  1.00  0.00     0.000 HD 
HETATM    4  H1  UNL     1      -7.125   8.514  63.896  1.00  0.00     0.000 HD 
HETATM    5  O   UNL     1      -9.648   9.907  62.557  1.00  0.00    -0.235 OA 
ENDROOT
BRANCH   2   6
HETATM    6  C   UNL     1      -8.752  10.260  64.759  1.00  0.00    -0.188 A  
HETATM    7  N   UNL     1      -9.767  10.247  65.635  1.00  0.00    -0.228 NA 
HETATM    8  N   UNL     1      -9.283  10.989  66.646  1.00  0.00    -0.164 NA 
HETATM    9  C   UNL     1      -7.994  11.350  66.414  1.00  0.00    -0.088 A  
HETATM   10  N   UNL     1      -7.629  10.927  65.229  1.00  0.00     0.090 NA 
BRANCH   8  11
HETATM   11  C1* UNL     1     -10.065  11.300  67.826  1.00  0.00    -0.179 C  
HETATM   12  O4* UNL     1      -9.187  11.271  68.975  1.00  0.00    -0.111 OA 
HETATM   13  C4* UNL     1      -9.352   9.997  69.635  1.00  0.00    -0.220 C  
HETATM   14  C3* UNL     1     -10.768   9.515  69.313  1.00  0.00    -0.222 C  
HETATM   15  H2* UNL     1     -13.115  10.574  68.648  1.00  0.00     0.000 HD 
HETATM   16  C2* UNL     1     -11.235  10.361  68.126  1.00  0.00    -0.268 C  
HETATM   17  H3* UNL     1     -12.548   9.434  70.217  1.00  0.00     0.000 HD 
HETATM   18  O3* UNL     1     -11.669   9.733  70.416  1.00  0.00    -0.261 OA 
HETATM   19  O2* UNL     1     -12.389  11.157  68.463  1.00  0.00    -0.561 OA 
BRANCH  13  20
HETATM   20  C5* UNL     1      -8.251   9.037  69.169  1.00  0.00    -0.121 C  
HETATM   21  O5* UNL     1      -8.846   7.857  68.627  1.00  0.00    -0.135 OA 
HETATM   22  H5* UNL     1      -8.164   7.262  68.338  1.00  0.00     0.000 HD 
ENDBRANCH  13  20
ENDBRANCH   8  11
ENDBRANCH   2   6
TORSDOF 3
ENDMDL
MODEL      202
REMARK 921   NORMALIZED FREE ENERGY PREDICTED BY IDOCK:   -2.40 KCAL/MOL
REMARK 922        TOTAL FREE ENERGY PREDICTED BY IDOCK:   -3.76 KCAL/MOL
REMARK 923 INTER-LIGAND FREE ENERGY PREDICTED BY IDOCK:   -3.53 KCAL/MOL
REMARK 924 INTRA-LIGAND FREE ENERGY PREDICTED BY IDOCK:   -0.23 KCAL/MOL
REMARK 927      BINDING AFFINITY PREDICTED BY RF-SCORE:    0.00 PKD
ROOT
HETATM    1  N   UNL     1      -6.297   7.158  73.878  1.00  0.00    -0.066 N  
HETATM    2  C   UNL     1      -6.839   7.115  72.619  1.00  0.00    -0.068 C  
HETATM    3  H2  UNL     1      -5.308   6.946  74.009  1.00  0.00     0.000 HD 
HETATM    4  H1  UNL     1      -6.871   7.399  74.687  1.00  0.00     0.000 HD 
HETATM    5  O   UNL     1      -6.148   6.823  71.646  1.00  0.00    -0.037 OA 
ENDROOT
BRANCH   2   6
HETATM    6  C   UNL     1      -8.274   7.452  72.572  1.00  0.00    -0.105 A  
HETATM    7  N   UNL     1      -8.954   7.682  71.439  1.00  0.00    -0.132 NA 
HETATM    8  N   UNL     1     -10.168   8.031  71.899  1.00  0.00    -0.201 NA 
HETATM    9  C   UNL     1     -10.228   7.923  73.252  1.00  0.00    -0.229 A  
HETATM   10  N   UNL     1      -9.053   7.579  73.715  1.00  0.00    -0.240 NA 
BRANCH   8  11
HETATM   11  C1* UNL     1     -11.249   8.427  71.017  1.00  0.00    -0.266 C  
HETATM   12  O4* UNL     1     -10.742   8.460  69.663  1.00  0.00    -0.232 OA 
HETATM   13  C4* UNL     1     -10.438   9.831  69.329  1.00  0.00    -0.219 C  
HETATM   14  C3* UNL     1     -11.354  10.706  70.188  1.00  0.00    -0.323 C  
HETATM   15  H2* UNL     1     -13.707  10.502  71.411  1.00  0.00     0.000 HD 
HETATM   16  C2* UNL     1     -11.881   9.792  71.297  1.00  0.00    -0.399 C  
HETATM   17  H3* UNL     1     -13.044  11.749  69.966  1.00  0.00     0.000 HD 
HETATM   18  O3* UNL     1     -12.475  11.206  69.433  1.00  0.00    -0.323 OA 
HETATM   19  O2* UNL     1     -13.315   9.655  71.236  1.00  0.00    -0.373 OA 
BRANCH  13  20
HETATM   20  C5* UNL     1      -8.944  10.092  69.555  1.00  0.00    -0.205 C  
HETATM   21  O5* UNL     1      -8.184   9.026  68.984  1.00  0.00    -0.114 OA 
HETATM   22  H5* UNL     1      -7.258   9.187  69.123  1.00  0.00     0.000 HD 
ENDBRANCH  13  20
ENDBRANCH   8  11
ENDBRANCH   2   6
TORSDOF 3
ENDMDL
MODEL      203
REMARK 921   NORMALIZED FREE ENERGY PREDICTED BY IDOCK:   -2.40 KCAL/MOL
REMARK 922        TOTAL FREE ENERGY PREDICTED BY IDOCK:   -3.75 KCAL/MOL
REMARK 923 INTER-LIGAND FREE ENERGY PREDICTED BY IDOCK:   -3.39 KCAL/MOL
REMARK 924 INTRA-LIGAND FREE ENERGY PREDICTED BY IDOCK:   -0.36 KCAL/MOL
REMARK 927      BINDING AFFINITY PREDICTED BY RF-SCORE:    0.00 PKD
ROOT
HETATM    1  N   UNL     1      -7.403   9.590  69.141  1.00  0.00    -0.070 N  
HETATM    2  C   UNL     1      -6.937  10.843  69.448  1.00  0.00    -0.125 C  
HETATM    3  H2  UNL     1      -7.033   8.779  69.636  1.00  0.00     0.000 HD 
HETATM    4  H1  UNL     1      -8.116   9.460  68.422  1.00  0.00     0.000 HD 
HETATM    5  O   UNL     1      -6.078  11.000  70.314  1.00  0.00    -0.123 OA 
ENDROOT
BRANCH   2   6
HETATM    6  C   UNL     1      -7.564  11.925  68.667  1.00  0.00    -0.119 A  
HETATM    7  N   UNL     1      -7.115  13.188  68.640  1.00  0.00    -0.100 NA 
HETATM    8  N   UNL     1      -8.041  13.806  67.885  1.00  0.00    -0.151 NA 
HETATM    9  C   UNL     1      -8.954  12.920  67.410  1.00  0.00    -0.199 A  
HETATM   10  N   UNL     1      -8.700  11.729  67.892  1.00  0.00    -0.157 NA 
BRANCH   8  11
HETATM   11  C1* UNL     1      -8.000  15.230  67.616  1.00  0.00    -0.160 C  
HETATM   12  O4* UNL     1      -8.469  15.929  68.793  1.00  0.00    -0.177 OA 
HETATM   13  C4* UNL     1      -9.852  16.286  68.581  1.00  0.00    -0.230 C  
HETATM   14  C3* UNL     1     -10.048  16.413  67.069  1.00  0.00    -0.272 C  
HETATM   15  H2* UNL     1      -8.572  16.935  64.920  1.00  0.00     0.000 HD 
HETATM   16  C2* UNL     1      -8.841  15.716  66.435  1.00  0.00    -0.330 C  
HETATM   17  H3* UNL     1     -10.181  17.868  65.708  1.00  0.00     0.000 HD 
HETATM   18  O3* UNL     1     -10.060  17.790  66.646  1.00  0.00    -0.317 OA 
HETATM   19  O2* UNL     1      -8.049  16.633  65.654  1.00  0.00    -0.133 OA 
BRANCH  13  20
HETATM   20  C5* UNL     1     -10.756  15.235  69.237  1.00  0.00    -0.252 C  
HETATM   21  O5* UNL     1     -10.244  14.907  70.529  1.00  0.00    -0.476 OA 
HETATM   22  H5* UNL     1     -10.804  14.256  70.936  1.00  0.00     0.000 HD 
ENDBRANCH  13  20
ENDBRANCH   8  11
ENDBRANCH   2   6
TORSDOF 3
ENDMDL
MODEL      204
REMARK 921   NORMALIZED FREE ENERGY PREDICTED BY IDOCK:   -2.39 KCAL/MOL
REMARK 922        TOTAL FREE ENERGY PREDICTED BY IDOCK:   -3.74 KCAL/MOL
REMARK 923 INTER-LIGAND FREE ENERGY PREDICTED BY IDOCK:   -2.91 KCAL/MOL
REMARK 924 INTRA-LIGAND FREE ENERGY PREDICTED BY IDOCK:   -0.83 KCAL/MOL
REMARK 927      BINDING AFFINITY PREDICTED BY RF-SCORE:    0.00 PKD
ROOT
HETATM    1  N   UNL     1      -6.614  18.226  69.159  1.00  0.00    -0.258 N  
HETATM    2  C   UNL     1      -7.245  17.856  67.999  1.00  0.00    -0.220 C  
HETATM    3  H2  UNL     1      -6.188  19.150  69.228  1.00  0.00     0.000 HD 
HETATM    4  H1  UNL     1      -6.563  17.588  69.954  1.00  0.00     0.000 HD 
HETATM    5  O   UNL     1      -7.305  18.625  67.042  1.00  0.00    -0.207 OA 
ENDROOT
BRANCH   2   6
HETATM    6  C   UNL     1      -7.824  16.500  68.038  1.00  0.00    -0.157 A  
HETATM    7  N   UNL     1      -9.132  16.239  67.897  1.00  0.00    -0.195 NA 
HETATM    8  N   UNL     1      -9.182  14.910  68.092  1.00  0.00    -0.181 NA 
HETATM    9  C   UNL     1      -7.936  14.392  68.253  1.00  0.00    -0.140 A  
HETATM   10  N   UNL     1      -7.055  15.362  68.244  1.00  0.00    -0.109 NA 
BRANCH   8  11
HETATM   11  C1* UNL     1     -10.428  14.169  68.085  1.00  0.00    -0.244 C  
HETATM   12  O4* UNL     1     -10.261  13.006  67.240  1.00  0.00    -0.235 OA 
HETATM   13  C4* UNL     1     -10.838  13.302  65.950  1.00  0.00    -0.277 C  
HETATM   14  C3* UNL     1     -11.927  14.350  66.183  1.00  0.00    -0.369 C  
HETATM   15  H2* UNL     1     -13.519  15.142  68.162  1.00  0.00     0.000 HD 
HETATM   16  C2* UNL     1     -11.658  14.925  67.577  1.00  0.00    -0.339 C  
HETATM   17  H3* UNL     1     -13.919  14.415  66.320  1.00  0.00     0.000 HD 
HETATM   18  O3* UNL     1     -13.243  13.764  66.174  1.00  0.00    -0.093 OA 
HETATM   19  O2* UNL     1     -12.755  14.672  68.477  1.00  0.00     0.265 OA 
BRANCH  13  20
HETATM   20  C5* UNL     1      -9.732  13.760  64.991  1.00  0.00     0.114 C  
HETATM   21  O5* UNL     1      -9.610  15.182  65.051  1.00  0.00    -0.261 OA 
HETATM   22  H5* UNL     1      -8.925  15.467  64.457  1.00  0.00     0.000 HD 
ENDBRANCH  13  20
ENDBRANCH   8  11
ENDBRANCH   2   6
TORSDOF 3
ENDMDL
MODEL      205
REMARK 921   NORMALIZED FREE ENERGY PREDICTED BY IDOCK:   -2.39 KCAL/MOL
REMARK 922        TOTAL FREE ENERGY PREDICTED BY IDOCK:   -3.74 KCAL/MOL
REMARK 923 INTER-LIGAND FREE ENERGY PREDICTED BY IDOCK:   -3.18 KCAL/MOL
REMARK 924 INTRA-LIGAND FREE ENERGY PREDICTED BY IDOCK:   -0.56 KCAL/MOL
REMARK 927      BINDING AFFINITY PREDICTED BY RF-SCORE:    0.00 PKD
ROOT
HETATM    1  N   UNL     1      -6.553   7.997  74.146  1.00  0.00    -0.109 N  
HETATM    2  C   UNL     1      -6.760   8.419  72.857  1.00  0.00    -0.084 C  
HETATM    3  H2  UNL     1      -5.610   8.001  74.532  1.00  0.00     0.000 HD 
HETATM    4  H1  UNL     1      -7.332   7.679  74.723  1.00  0.00     0.000 HD 
HETATM    5  O   UNL     1      -5.821   8.802  72.162  1.00  0.00    -0.058 OA 
ENDROOT
BRANCH   2   6
HETATM    6  C   UNL     1      -8.170   8.373  72.430  1.00  0.00    -0.139 A  
HETATM    7  N   UNL     1      -8.566   8.364  71.148  1.00  0.00    -0.140 NA 
HETATM    8  N   UNL     1      -9.905   8.409  71.261  1.00  0.00    -0.185 NA 
HETATM    9  C   UNL     1     -10.288   8.355  72.564  1.00  0.00    -0.301 A  
HETATM   10  N   UNL     1      -9.227   8.349  73.331  1.00  0.00    -0.154 NA 
BRANCH   8  11
HETATM   11  C1* UNL     1     -10.781   8.470  70.107  1.00  0.00    -0.235 C  
HETATM   12  O4* UNL     1     -11.742   7.393  70.209  1.00  0.00    -0.196 OA 
HETATM   13  C4* UNL     1     -11.291   6.308  69.368  1.00  0.00    -0.378 C  
HETATM   14  C3* UNL     1     -10.445   6.934  68.258  1.00  0.00    -0.206 C  
HETATM   15  H2* UNL     1     -10.228   9.277  67.017  1.00  0.00     0.000 HD 
HETATM   16  C2* UNL     1     -10.104   8.346  68.741  1.00  0.00    -0.196 C  
HETATM   17  H3* UNL     1     -10.654   7.424  66.332  1.00  0.00     0.000 HD 
HETATM   18  O3* UNL     1     -11.179   7.036  67.021  1.00  0.00    -0.328 OA 
HETATM   19  O2* UNL     1     -10.649   9.353  67.866  1.00  0.00    -0.237 OA 
BRANCH  13  20
HETATM   20  C5* UNL     1     -10.533   5.285  70.222  1.00  0.00    -0.261 C  
HETATM   21  O5* UNL     1     -11.187   5.139  71.483  1.00  0.00     0.030 OA 
HETATM   22  H5* UNL     1     -10.718   4.504  72.012  1.00  0.00     0.000 HD 
ENDBRANCH  13  20
ENDBRANCH   8  11
ENDBRANCH   2   6
TORSDOF 3
ENDMDL
MODEL      206
REMARK 921   NORMALIZED FREE ENERGY PREDICTED BY IDOCK:   -2.38 KCAL/MOL
REMARK 922        TOTAL FREE ENERGY PREDICTED BY IDOCK:   -3.73 KCAL/MOL
REMARK 923 INTER-LIGAND FREE ENERGY PREDICTED BY IDOCK:   -3.22 KCAL/MOL
REMARK 924 INTRA-LIGAND FREE ENERGY PREDICTED BY IDOCK:   -0.51 KCAL/MOL
REMARK 927      BINDING AFFINITY PREDICTED BY RF-SCORE:    0.00 PKD
ROOT
HETATM    1  N   UNL     1      -8.746   6.161  69.878  1.00  0.00    -0.135 N  
HETATM    2  C   UNL     1      -8.026   6.190  68.711  1.00  0.00    -0.101 C  
HETATM    3  H2  UNL     1      -8.937   5.266  70.330  1.00  0.00     0.000 HD 
HETATM    4  H1  UNL     1      -9.094   7.022  70.300  1.00  0.00     0.000 HD 
HETATM    5  O   UNL     1      -7.608   5.152  68.202  1.00  0.00    -0.078 OA 
ENDROOT
BRANCH   2   6
HETATM    6  C   UNL     1      -7.814   7.546  68.172  1.00  0.00    -0.122 A  
HETATM    7  N   UNL     1      -8.495   8.057  67.135  1.00  0.00    -0.123 NA 
HETATM    8  N   UNL     1      -7.901   9.250  66.961  1.00  0.00    -0.098 NA 
HETATM    9  C   UNL     1      -6.963   9.474  67.918  1.00  0.00    -0.079 A  
HETATM   10  N   UNL     1      -6.865   8.419  68.689  1.00  0.00    -0.062 NA 
BRANCH   8  11
HETATM   11  C1* UNL     1      -8.278  10.158  65.896  1.00  0.00    -0.138 C  
HETATM   12  O4* UNL     1      -8.607  11.438  66.484  1.00  0.00    -0.169 OA 
HETATM   13  C4* UNL     1     -10.044  11.529  66.591  1.00  0.00    -0.210 C  
HETATM   14  C3* UNL     1     -10.624  10.636  65.493  1.00  0.00    -0.110 C  
HETATM   15  H2* UNL     1      -9.886   9.683  63.122  1.00  0.00     0.000 HD 
HETATM   16  C2* UNL     1      -9.474   9.733  65.040  1.00  0.00    -0.272 C  
HETATM   17  H3* UNL     1     -11.436  10.852  63.680  1.00  0.00     0.000 HD 
HETATM   18  O3* UNL     1     -11.077  11.406  64.362  1.00  0.00    -0.329 OA 
HETATM   19  O2* UNL     1      -9.144   9.947  63.653  1.00  0.00    -0.241 OA 
BRANCH  13  20
HETATM   20  C5* UNL     1     -10.475  11.128  68.007  1.00  0.00    -0.188 C  
HETATM   21  O5* UNL     1     -11.794  10.583  67.967  1.00  0.00    -0.765 OA 
HETATM   22  H5* UNL     1     -12.062  10.334  68.844  1.00  0.00     0.000 HD 
ENDBRANCH  13  20
ENDBRANCH   8  11
ENDBRANCH   2   6
TORSDOF 3
ENDMDL
MODEL      207
REMARK 921   NORMALIZED FREE ENERGY PREDICTED BY IDOCK:   -2.37 KCAL/MOL
REMARK 922        TOTAL FREE ENERGY PREDICTED BY IDOCK:   -3.72 KCAL/MOL
REMARK 923 INTER-LIGAND FREE ENERGY PREDICTED BY IDOCK:   -3.00 KCAL/MOL
REMARK 924 INTRA-LIGAND FREE ENERGY PREDICTED BY IDOCK:   -0.72 KCAL/MOL
REMARK 927      BINDING AFFINITY PREDICTED BY RF-SCORE:    0.00 PKD
ROOT
HETATM    1  N   UNL     1      -9.475   2.003  73.311  1.00  0.00    -0.075 N  
HETATM    2  C   UNL     1      -8.571   2.979  72.978  1.00  0.00    -0.080 C  
HETATM    3  H2  UNL     1      -9.260   1.026  73.110  1.00  0.00     0.000 HD 
HETATM    4  H1  UNL     1     -10.362   2.241  73.757  1.00  0.00     0.000 HD 
HETATM    5  O   UNL     1      -7.504   2.691  72.441  1.00  0.00    -0.048 OA 
ENDROOT
BRANCH   2   6
HETATM    6  C   UNL     1      -9.003   4.343  73.333  1.00  0.00    -0.111 A  
HETATM    7  N   UNL     1      -8.423   5.459  72.869  1.00  0.00    -0.119 NA 
HETATM    8  N   UNL     1      -9.088   6.424  73.528  1.00  0.00    -0.124 NA 
HETATM    9  C   UNL     1     -10.086   5.900  74.286  1.00  0.00    -0.284 A  
HETATM   10  N   UNL     1     -10.055   4.593  74.206  1.00  0.00    -0.189 NA 
BRANCH   8  11
HETATM   11  C1* UNL     1      -8.763   7.829  73.382  1.00  0.00    -0.227 C  
HETATM   12  O4* UNL     1      -9.758   8.439  72.527  1.00  0.00    -0.277 OA 
HETATM   13  C4* UNL     1      -9.208   8.537  71.196  1.00  0.00    -0.197 C  
HETATM   14  C3* UNL     1      -7.688   8.615  71.352  1.00  0.00    -0.122 C  
HETATM   15  H2* UNL     1      -5.925   9.382  73.189  1.00  0.00     0.000 HD 
HETATM   16  C2* UNL     1      -7.393   8.146  72.779  1.00  0.00    -0.119 C  
HETATM   17  H3* UNL     1      -6.261  10.011  71.299  1.00  0.00     0.000 HD 
HETATM   18  O3* UNL     1      -7.205   9.963  71.202  1.00  0.00    -0.305 OA 
HETATM   19  O2* UNL     1      -6.776   9.186  73.563  1.00  0.00    -0.320 OA 
BRANCH  13  20
HETATM   20  C5* UNL     1      -9.685   7.343  70.360  1.00  0.00    -0.175 C  
HETATM   21  O5* UNL     1     -10.811   6.736  70.995  1.00  0.00    -0.230 OA 
HETATM   22  H5* UNL     1     -11.106   5.996  70.477  1.00  0.00     0.000 HD 
ENDBRANCH  13  20
ENDBRANCH   8  11
ENDBRANCH   2   6
TORSDOF 3
ENDMDL
MODEL      208
REMARK 921   NORMALIZED FREE ENERGY PREDICTED BY IDOCK:   -2.36 KCAL/MOL
REMARK 922        TOTAL FREE ENERGY PREDICTED BY IDOCK:   -3.71 KCAL/MOL
REMARK 923 INTER-LIGAND FREE ENERGY PREDICTED BY IDOCK:   -2.80 KCAL/MOL
REMARK 924 INTRA-LIGAND FREE ENERGY PREDICTED BY IDOCK:   -0.91 KCAL/MOL
REMARK 927      BINDING AFFINITY PREDICTED BY RF-SCORE:    0.00 PKD
ROOT
HETATM    1  N   UNL     1      -5.481   9.456  71.725  1.00  0.00    -0.070 N  
HETATM    2  C   UNL     1      -6.803   9.309  71.390  1.00  0.00     0.021 C  
HETATM    3  H2  UNL     1      -5.145   9.101  72.621  1.00  0.00     0.000 HD 
HETATM    4  H1  UNL     1      -4.828   9.916  71.090  1.00  0.00     0.000 HD 
HETATM    5  O   UNL     1      -7.588   8.755  72.157  1.00  0.00    -0.304 OA 
ENDROOT
BRANCH   2   6
HETATM    6  C   UNL     1      -7.150   9.855  70.066  1.00  0.00    -0.127 A  
HETATM    7  N   UNL     1      -8.361  10.333  69.745  1.00  0.00    -0.137 NA 
HETATM    8  N   UNL     1      -8.220  10.623  68.440  1.00  0.00    -0.119 NA 
HETATM    9  C   UNL     1      -6.944  10.408  68.027  1.00  0.00    -0.078 A  
HETATM   10  N   UNL     1      -6.243   9.908  69.015  1.00  0.00    -0.040 NA 
BRANCH   8  11
HETATM   11  C1* UNL     1      -9.312  11.131  67.634  1.00  0.00    -0.165 C  
HETATM   12  O4* UNL     1     -10.398  10.177  67.685  1.00  0.00    -0.190 OA 
HETATM   13  C4* UNL     1     -10.350   9.377  66.483  1.00  0.00    -0.198 C  
HETATM   14  C3* UNL     1      -9.685  10.239  65.407  1.00  0.00    -0.278 C  
HETATM   15  H2* UNL     1      -9.351  12.822  64.869  1.00  0.00     0.000 HD 
HETATM   16  C2* UNL     1      -8.999  11.384  66.158  1.00  0.00    -0.201 C  
HETATM   17  H3* UNL     1     -10.240  11.334  63.832  1.00  0.00     0.000 HD 
HETATM   18  O3* UNL     1     -10.653  10.799  64.499  1.00  0.00    -0.336 OA 
HETATM   19  O2* UNL     1      -9.545  12.665  65.786  1.00  0.00    -0.215 OA 
BRANCH  13  20
HETATM   20  C5* UNL     1      -9.608   8.067  66.772  1.00  0.00    -0.216 C  
HETATM   21  O5* UNL     1      -9.545   7.857  68.184  1.00  0.00    -0.148 OA 
HETATM   22  H5* UNL     1      -9.086   7.045  68.363  1.00  0.00     0.000 HD 
ENDBRANCH  13  20
ENDBRANCH   8  11
ENDBRANCH   2   6
TORSDOF 3
ENDMDL
MODEL      209
REMARK 921   NORMALIZED FREE ENERGY PREDICTED BY IDOCK:   -2.35 KCAL/MOL
REMARK 922        TOTAL FREE ENERGY PREDICTED BY IDOCK:   -3.70 KCAL/MOL
REMARK 923 INTER-LIGAND FREE ENERGY PREDICTED BY IDOCK:   -3.05 KCAL/MOL
REMARK 924 INTRA-LIGAND FREE ENERGY PREDICTED BY IDOCK:   -0.65 KCAL/MOL
REMARK 927      BINDING AFFINITY PREDICTED BY RF-SCORE:    0.00 PKD
ROOT
HETATM    1  N   UNL     1      -9.668   2.534  65.187  1.00  0.00    -0.358 N  
HETATM    2  C   UNL     1     -10.297   3.745  65.046  1.00  0.00    -0.036 C  
HETATM    3  H2  UNL     1      -9.948   1.749  64.599  1.00  0.00     0.000 HD 
HETATM    4  H1  UNL     1      -8.922   2.409  65.871  1.00  0.00     0.000 HD 
HETATM    5  O   UNL     1     -11.196   3.895  64.221  1.00  0.00    -0.335 OA 
ENDROOT
BRANCH   2   6
HETATM    6  C   UNL     1      -9.787   4.794  65.947  1.00  0.00    -0.211 A  
HETATM    7  N   UNL     1     -10.275   5.033  67.174  1.00  0.00    -0.199 NA 
HETATM    8  N   UNL     1      -9.570   6.111  67.558  1.00  0.00    -0.111 NA 
HETATM    9  C   UNL     1      -8.636   6.442  66.629  1.00  0.00    -0.121 A  
HETATM   10  N   UNL     1      -8.751   5.649  65.592  1.00  0.00    -0.150 NA 
BRANCH   8  11
HETATM   11  C1* UNL     1      -9.794   6.773  68.828  1.00  0.00    -0.143 C  
HETATM   12  O4* UNL     1      -8.553   6.763  69.572  1.00  0.00    -0.131 OA 
HETATM   13  C4* UNL     1      -8.611   5.681  70.527  1.00  0.00    -0.129 C  
HETATM   14  C3* UNL     1     -10.090   5.450  70.842  1.00  0.00    -0.219 C  
HETATM   15  H2* UNL     1     -12.360   6.836  70.808  1.00  0.00     0.000 HD 
HETATM   16  C2* UNL     1     -10.867   6.158  69.729  1.00  0.00    -0.353 C  
HETATM   17  H3* UNL     1     -11.382   5.890  72.301  1.00  0.00     0.000 HD 
HETATM   18  O3* UNL     1     -10.464   6.033  72.106  1.00  0.00    -0.196 OA 
HETATM   19  O2* UNL     1     -11.693   7.219  70.249  1.00  0.00    -0.229 OA 
BRANCH  13  20
HETATM   20  C5* UNL     1      -7.903   4.451  69.947  1.00  0.00    -0.053 C  
HETATM   21  O5* UNL     1      -8.849   3.396  69.770  1.00  0.00    -0.075 OA 
HETATM   22  H5* UNL     1      -8.410   2.634  69.410  1.00  0.00     0.000 HD 
ENDBRANCH  13  20
ENDBRANCH   8  11
ENDBRANCH   2   6
TORSDOF 3
ENDMDL
MODEL      210
REMARK 921   NORMALIZED FREE ENERGY PREDICTED BY IDOCK:   -2.34 KCAL/MOL
REMARK 922        TOTAL FREE ENERGY PREDICTED BY IDOCK:   -3.68 KCAL/MOL
REMARK 923 INTER-LIGAND FREE ENERGY PREDICTED BY IDOCK:   -2.83 KCAL/MOL
REMARK 924 INTRA-LIGAND FREE ENERGY PREDICTED BY IDOCK:   -0.85 KCAL/MOL
REMARK 927      BINDING AFFINITY PREDICTED BY RF-SCORE:    0.00 PKD
ROOT
HETATM    1  N   UNL     1      -9.158   2.698  73.841  1.00  0.00    -0.077 N  
HETATM    2  C   UNL     1      -9.606   3.073  72.600  1.00  0.00    -0.116 C  
HETATM    3  H2  UNL     1      -9.374   1.766  74.194  1.00  0.00     0.000 HD 
HETATM    4  H1  UNL     1      -8.612   3.340  74.416  1.00  0.00     0.000 HD 
HETATM    5  O   UNL     1     -10.265   2.300  71.908  1.00  0.00    -0.157 OA 
ENDROOT
BRANCH   2   6
HETATM    6  C   UNL     1      -9.214   4.440  72.209  1.00  0.00    -0.122 A  
HETATM    7  N   UNL     1      -9.402   4.954  70.984  1.00  0.00    -0.146 NA 
HETATM    8  N   UNL     1      -8.816   6.159  71.085  1.00  0.00    -0.139 NA 
HETATM    9  C   UNL     1      -8.377   6.385  72.351  1.00  0.00    -0.106 A  
HETATM   10  N   UNL     1      -8.592   5.321  73.084  1.00  0.00    -0.117 NA 
BRANCH   8  11
HETATM   11  C1* UNL     1      -8.725   7.075  69.965  1.00  0.00    -0.142 C  
HETATM   12  O4* UNL     1      -9.357   8.320  70.343  1.00  0.00    -0.156 OA 
HETATM   13  C4* UNL     1     -10.691   8.333  69.790  1.00  0.00    -0.221 C  
HETATM   14  C3* UNL     1     -10.661   7.442  68.547  1.00  0.00    -0.153 C  
HETATM   15  H2* UNL     1      -8.880   6.594  66.764  1.00  0.00     0.000 HD 
HETATM   16  C2* UNL     1      -9.379   6.612  68.662  1.00  0.00    -0.129 C  
HETATM   17  H3* UNL     1     -10.580   7.666  66.564  1.00  0.00     0.000 HD 
HETATM   18  O3* UNL     1     -10.599   8.219  67.335  1.00  0.00    -0.284 OA 
HETATM   19  O2* UNL     1      -8.473   6.881  67.573  1.00  0.00    -0.121 OA 
BRANCH  13  20
HETATM   20  C5* UNL     1     -11.689   7.872  70.859  1.00  0.00    -0.257 C  
HETATM   21  O5* UNL     1     -12.007   6.495  70.651  1.00  0.00    -0.386 OA 
HETATM   22  H5* UNL     1     -12.626   6.209  71.312  1.00  0.00     0.000 HD 
ENDBRANCH  13  20
ENDBRANCH   8  11
ENDBRANCH   2   6
TORSDOF 3
ENDMDL
MODEL      211
REMARK 921   NORMALIZED FREE ENERGY PREDICTED BY IDOCK:   -2.33 KCAL/MOL
REMARK 922        TOTAL FREE ENERGY PREDICTED BY IDOCK:   -3.67 KCAL/MOL
REMARK 923 INTER-LIGAND FREE ENERGY PREDICTED BY IDOCK:   -2.96 KCAL/MOL
REMARK 924 INTRA-LIGAND FREE ENERGY PREDICTED BY IDOCK:   -0.70 KCAL/MOL
REMARK 927      BINDING AFFINITY PREDICTED BY RF-SCORE:    0.00 PKD
ROOT
HETATM    1  N   UNL     1     -10.931   6.105  66.677  1.00  0.00    -0.705 N  
HETATM    2  C   UNL     1     -10.573   6.284  67.990  1.00  0.00    -0.262 C  
HETATM    3  H2  UNL     1     -11.884   5.824  66.449  1.00  0.00     0.000 HD 
HETATM    4  H1  UNL     1     -10.255   6.251  65.927  1.00  0.00     0.000 HD 
HETATM    5  O   UNL     1     -11.387   6.109  68.894  1.00  0.00    -0.367 OA 
ENDROOT
BRANCH   2   6
HETATM    6  C   UNL     1      -9.171   6.701  68.177  1.00  0.00    -0.117 A  
HETATM    7  N   UNL     1      -8.718   7.342  69.264  1.00  0.00    -0.137 NA 
HETATM    8  N   UNL     1      -7.435   7.584  68.942  1.00  0.00    -0.094 NA 
HETATM    9  C   UNL     1      -7.119   7.025  67.744  1.00  0.00    -0.085 A  
HETATM   10  N   UNL     1      -8.187   6.475  67.223  1.00  0.00    -0.113 NA 
BRANCH   8  11
HETATM   11  C1* UNL     1      -6.540   8.319  69.813  1.00  0.00    -0.039 C  
HETATM   12  O4* UNL     1      -5.709   7.367  70.519  1.00  0.00    -0.026 OA 
HETATM   13  C4* UNL     1      -6.266   7.176  71.837  1.00  0.00    -0.040 C  
HETATM   14  C3* UNL     1      -7.017   8.461  72.189  1.00  0.00    -0.090 C  
HETATM   15  H2* UNL     1      -6.947  11.037  71.530  1.00  0.00     0.000 HD 
HETATM   16  C2* UNL     1      -7.204   9.209  70.866  1.00  0.00    -0.111 C  
HETATM   17  H3* UNL     1      -6.723  10.094  73.303  1.00  0.00     0.000 HD 
HETATM   18  O3* UNL     1      -6.257   9.296  73.085  1.00  0.00    -0.308 OA 
HETATM   19  O2* UNL     1      -6.534  10.485  70.877  1.00  0.00    -0.344 OA 
BRANCH  13  20
HETATM   20  C5* UNL     1      -7.149   5.923  71.840  1.00  0.00    -0.083 C  
HETATM   21  O5* UNL     1      -6.880   5.148  70.670  1.00  0.00    -0.041 OA 
HETATM   22  H5* UNL     1      -7.427   4.371  70.671  1.00  0.00     0.000 HD 
ENDBRANCH  13  20
ENDBRANCH   8  11
ENDBRANCH   2   6
TORSDOF 3
ENDMDL
MODEL      212
REMARK 921   NORMALIZED FREE ENERGY PREDICTED BY IDOCK:   -2.32 KCAL/MOL
REMARK 922        TOTAL FREE ENERGY PREDICTED BY IDOCK:   -3.66 KCAL/MOL
REMARK 923 INTER-LIGAND FREE ENERGY PREDICTED BY IDOCK:   -3.12 KCAL/MOL
REMARK 924 INTRA-LIGAND FREE ENERGY PREDICTED BY IDOCK:   -0.55 KCAL/MOL
REMARK 927      BINDING AFFINITY PREDICTED BY RF-SCORE:    0.00 PKD
ROOT
HETATM    1  N   UNL     1      -7.848   4.681  73.061  1.00  0.00    -0.094 N  
HETATM    2  C   UNL     1      -9.070   5.280  73.236  1.00  0.00    -0.128 C  
HETATM    3  H2  UNL     1      -7.351   4.306  73.868  1.00  0.00     0.000 HD 
HETATM    4  H1  UNL     1      -7.431   4.607  72.133  1.00  0.00     0.000 HD 
HETATM    5  O   UNL     1      -9.573   5.369  74.354  1.00  0.00    -0.134 OA 
ENDROOT
BRANCH   2   6
HETATM    6  C   UNL     1      -9.683   5.767  71.987  1.00  0.00    -0.154 A  
HETATM    7  N   UNL     1      -9.838   7.065  71.684  1.00  0.00    -0.164 NA 
HETATM    8  N   UNL     1     -10.508   7.010  70.520  1.00  0.00    -0.205 NA 
HETATM    9  C   UNL     1     -10.664   5.725  70.105  1.00  0.00    -0.320 A  
HETATM   10  N   UNL     1     -10.175   4.912  71.008  1.00  0.00    -0.213 NA 
BRANCH   8  11
HETATM   11  C1* UNL     1     -10.951   8.200  69.821  1.00  0.00    -0.132 C  
HETATM   12  O4* UNL     1     -10.491   8.122  68.452  1.00  0.00    -0.207 OA 
HETATM   13  C4* UNL     1      -9.297   8.924  68.332  1.00  0.00    -0.136 C  
HETATM   14  C3* UNL     1      -9.386  10.009  69.408  1.00  0.00    -0.223 C  
HETATM   15  H2* UNL     1     -11.273  11.277  70.787  1.00  0.00     0.000 HD 
HETATM   16  C2* UNL     1     -10.463   9.535  70.387  1.00  0.00    -0.278 C  
HETATM   17  H3* UNL     1      -9.847  11.949  69.523  1.00  0.00     0.000 HD 
HETATM   18  O3* UNL     1      -9.792  11.276  68.856  1.00  0.00    -0.198 OA 
HETATM   19  O2* UNL     1     -11.577  10.449  70.435  1.00  0.00    -0.287 OA 
BRANCH  13  20
HETATM   20  C5* UNL     1      -8.063   8.023  68.462  1.00  0.00    -0.125 C  
HETATM   21  O5* UNL     1      -8.259   6.834  67.696  1.00  0.00    -0.117 OA 
HETATM   22  H5* UNL     1      -7.495   6.275  67.777  1.00  0.00     0.000 HD 
ENDBRANCH  13  20
ENDBRANCH   8  11
ENDBRANCH   2   6
TORSDOF 3
ENDMDL
MODEL      213
REMARK 921   NORMALIZED FREE ENERGY PREDICTED BY IDOCK:   -2.32 KCAL/MOL
REMARK 922        TOTAL FREE ENERGY PREDICTED BY IDOCK:   -3.66 KCAL/MOL
REMARK 923 INTER-LIGAND FREE ENERGY PREDICTED BY IDOCK:   -2.75 KCAL/MOL
REMARK 924 INTRA-LIGAND FREE ENERGY PREDICTED BY IDOCK:   -0.91 KCAL/MOL
REMARK 927      BINDING AFFINITY PREDICTED BY RF-SCORE:    0.00 PKD
ROOT
HETATM    1  N   UNL     1     -11.180  10.836  67.162  1.00  0.00    -0.231 N  
HETATM    2  C   UNL     1      -9.979  10.615  66.536  1.00  0.00    -0.215 C  
HETATM    3  H2  UNL     1     -11.478  11.792  67.357  1.00  0.00     0.000 HD 
HETATM    4  H1  UNL     1     -11.779  10.057  67.434  1.00  0.00     0.000 HD 
HETATM    5  O   UNL     1      -9.258  11.555  66.209  1.00  0.00    -0.201 OA 
ENDROOT
BRANCH   2   6
HETATM    6  C   UNL     1      -9.677   9.191  66.305  1.00  0.00    -0.274 A  
HETATM    7  N   UNL     1     -10.394   8.179  66.816  1.00  0.00    -0.321 NA 
HETATM    8  N   UNL     1      -9.697   7.102  66.415  1.00  0.00    -0.123 NA 
HETATM    9  C   UNL     1      -8.657   7.461  65.619  1.00  0.00    -0.112 A  
HETATM   10  N   UNL     1      -8.599   8.767  65.539  1.00  0.00    -0.164 NA 
BRANCH   8  11
HETATM   11  C1* UNL     1     -10.074   5.751  66.782  1.00  0.00    -0.196 C  
HETATM   12  O4* UNL     1     -10.199   5.690  68.222  1.00  0.00    -0.160 OA 
HETATM   13  C4* UNL     1      -8.985   5.119  68.755  1.00  0.00    -0.101 C  
HETATM   14  C3* UNL     1      -8.399   4.228  67.658  1.00  0.00    -0.098 C  
HETATM   15  H2* UNL     1      -9.263   2.869  65.542  1.00  0.00     0.000 HD 
HETATM   16  C2* UNL     1      -9.104   4.644  66.365  1.00  0.00    -0.120 C  
HETATM   17  H3* UNL     1      -8.305   2.281  67.221  1.00  0.00     0.000 HD 
HETATM   18  O3* UNL     1      -8.669   2.834  67.902  1.00  0.00    -0.086 OA 
HETATM   19  O2* UNL     1      -9.865   3.556  65.801  1.00  0.00    -0.104 OA 
BRANCH  13  20
HETATM   20  C5* UNL     1      -8.047   6.246  69.204  1.00  0.00    -0.110 C  
HETATM   21  O5* UNL     1      -8.808   7.428  69.453  1.00  0.00    -0.137 OA 
HETATM   22  H5* UNL     1      -8.227   8.127  69.731  1.00  0.00     0.000 HD 
ENDBRANCH  13  20
ENDBRANCH   8  11
ENDBRANCH   2   6
TORSDOF 3
ENDMDL
MODEL      214
REMARK 921   NORMALIZED FREE ENERGY PREDICTED BY IDOCK:   -2.32 KCAL/MOL
REMARK 922        TOTAL FREE ENERGY PREDICTED BY IDOCK:   -3.66 KCAL/MOL
REMARK 923 INTER-LIGAND FREE ENERGY PREDICTED BY IDOCK:   -2.85 KCAL/MOL
REMARK 924 INTRA-LIGAND FREE ENERGY PREDICTED BY IDOCK:   -0.81 KCAL/MOL
REMARK 927      BINDING AFFINITY PREDICTED BY RF-SCORE:    0.00 PKD
ROOT
HETATM    1  N   UNL     1     -11.330   6.522  66.857  1.00  0.00    -0.817 N  
HETATM    2  C   UNL     1     -10.364   6.309  67.808  1.00  0.00    -0.195 C  
HETATM    3  H2  UNL     1     -11.634   5.748  66.266  1.00  0.00     0.000 HD 
HETATM    4  H1  UNL     1     -11.747   7.444  66.733  1.00  0.00     0.000 HD 
HETATM    5  O   UNL     1      -9.861   5.197  67.956  1.00  0.00    -0.140 OA 
ENDROOT
BRANCH   2   6
HETATM    6  C   UNL     1     -10.026   7.507  68.597  1.00  0.00    -0.172 A  
HETATM    7  N   UNL     1      -9.217   8.487  68.166  1.00  0.00    -0.138 NA 
HETATM    8  N   UNL     1      -9.143   9.291  69.241  1.00  0.00    -0.147 NA 
HETATM    9  C   UNL     1      -9.951   8.850  70.239  1.00  0.00    -0.186 A  
HETATM   10  N   UNL     1     -10.511   7.721  69.881  1.00  0.00    -0.227 NA 
BRANCH   8  11
HETATM   11  C1* UNL     1      -8.319  10.484  69.263  1.00  0.00    -0.137 C  
HETATM   12  O4* UNL     1      -9.186  11.633  69.413  1.00  0.00     0.370 OA 
HETATM   13  C4* UNL     1      -9.383  12.220  68.108  1.00  0.00    -0.205 C  
HETATM   14  C3* UNL     1      -8.149  11.869  67.276  1.00  0.00    -0.171 C  
HETATM   15  H2* UNL     1      -5.594  11.256  67.687  1.00  0.00     0.000 HD 
HETATM   16  C2* UNL     1      -7.454  10.728  68.025  1.00  0.00    -0.090 C  
HETATM   17  H3* UNL     1      -6.470  12.761  66.663  1.00  0.00     0.000 HD 
HETATM   18  O3* UNL     1      -7.236  12.979  67.179  1.00  0.00    -0.095 OA 
HETATM   19  O2* UNL     1      -6.131  11.105  68.456  1.00  0.00    -0.043 OA 
BRANCH  13  20
HETATM   20  C5* UNL     1     -10.699  11.706  67.512  1.00  0.00    -0.215 C  
HETATM   21  O5* UNL     1     -10.420  10.698  66.540  1.00  0.00    -0.239 OA 
HETATM   22  H5* UNL     1     -11.235  10.379  66.171  1.00  0.00     0.000 HD 
ENDBRANCH  13  20
ENDBRANCH   8  11
ENDBRANCH   2   6
TORSDOF 3
ENDMDL
MODEL      215
REMARK 921   NORMALIZED FREE ENERGY PREDICTED BY IDOCK:   -2.32 KCAL/MOL
REMARK 922        TOTAL FREE ENERGY PREDICTED BY IDOCK:   -3.66 KCAL/MOL
REMARK 923 INTER-LIGAND FREE ENERGY PREDICTED BY IDOCK:   -2.82 KCAL/MOL
REMARK 924 INTRA-LIGAND FREE ENERGY PREDICTED BY IDOCK:   -0.84 KCAL/MOL
REMARK 927      BINDING AFFINITY PREDICTED BY RF-SCORE:    0.00 PKD
ROOT
HETATM    1  N   UNL     1     -10.205   8.666  71.752  1.00  0.00    -0.279 N  
HETATM    2  C   UNL     1     -10.839   8.012  70.726  1.00  0.00    -0.232 C  
HETATM    3  H2  UNL     1     -10.390   8.392  72.716  1.00  0.00     0.000 HD 
HETATM    4  H1  UNL     1      -9.549   9.425  71.562  1.00  0.00     0.000 HD 
HETATM    5  O   UNL     1     -11.629   7.099  70.956  1.00  0.00    -0.282 OA 
ENDROOT
BRANCH   2   6
HETATM    6  C   UNL     1     -10.471   8.501  69.385  1.00  0.00    -0.218 A  
HETATM    7  N   UNL     1      -9.787   9.633  69.160  1.00  0.00    -0.178 NA 
HETATM    8  N   UNL     1      -9.776   9.699  67.817  1.00  0.00    -0.143 NA 
HETATM    9  C   UNL     1     -10.355   8.600  67.268  1.00  0.00    -0.296 A  
HETATM   10  N   UNL     1     -10.821   7.830  68.220  1.00  0.00    -0.019 NA 
BRANCH   8  11
HETATM   11  C1* UNL     1      -9.178  10.807  67.099  1.00  0.00    -0.147 C  
HETATM   12  O4* UNL     1      -8.316  10.270  66.070  1.00  0.00    -0.132 OA 
HETATM   13  C4* UNL     1      -6.956  10.310  66.556  1.00  0.00    -0.107 C  
HETATM   14  C3* UNL     1      -6.885  11.452  67.571  1.00  0.00    -0.086 C  
HETATM   15  H2* UNL     1      -8.167  13.725  68.085  1.00  0.00     0.000 HD 
HETATM   16  C2* UNL     1      -8.337  11.776  67.934  1.00  0.00    -0.149 C  
HETATM   17  H3* UNL     1      -6.235  13.340  67.637  1.00  0.00     0.000 HD 
HETATM   18  O3* UNL     1      -6.278  12.631  67.007  1.00  0.00    -0.250 OA 
HETATM   19  O2* UNL     1      -8.689  13.124  67.566  1.00  0.00    -0.178 OA 
BRANCH  13  20
HETATM   20  C5* UNL     1      -6.583   8.941  67.136  1.00  0.00    -0.062 C  
HETATM   21  O5* UNL     1      -6.819   8.941  68.545  1.00  0.00    -0.062 OA 
HETATM   22  H5* UNL     1      -6.587   8.093  68.906  1.00  0.00     0.000 HD 
ENDBRANCH  13  20
ENDBRANCH   8  11
ENDBRANCH   2   6
TORSDOF 3
ENDMDL
MODEL      216
REMARK 921   NORMALIZED FREE ENERGY PREDICTED BY IDOCK:   -2.28 KCAL/MOL
REMARK 922        TOTAL FREE ENERGY PREDICTED BY IDOCK:   -3.61 KCAL/MOL
REMARK 923 INTER-LIGAND FREE ENERGY PREDICTED BY IDOCK:   -2.86 KCAL/MOL
REMARK 924 INTRA-LIGAND FREE ENERGY PREDICTED BY IDOCK:   -0.76 KCAL/MOL
REMARK 927      BINDING AFFINITY PREDICTED BY RF-SCORE:    0.00 PKD
ROOT
HETATM    1  N   UNL     1      -9.598   1.648  74.474  1.00  0.00    -0.068 N  
HETATM    2  C   UNL     1      -8.920   2.497  73.636  1.00  0.00    -0.077 C  
HETATM    3  H2  UNL     1      -9.326   0.666  74.524  1.00  0.00     0.000 HD 
HETATM    4  H1  UNL     1     -10.370   1.986  75.048  1.00  0.00     0.000 HD 
HETATM    5  O   UNL     1      -7.989   2.089  72.945  1.00  0.00    -0.050 OA 
ENDROOT
BRANCH   2   6
HETATM    6  C   UNL     1      -9.408   3.888  73.669  1.00  0.00    -0.103 A  
HETATM    7  N   UNL     1     -10.391   4.357  72.887  1.00  0.00    -0.171 NA 
HETATM    8  N   UNL     1     -10.415   5.662  73.208  1.00  0.00    -0.214 NA 
HETATM    9  C   UNL     1      -9.538   5.936  74.209  1.00  0.00    -0.180 A  
HETATM   10  N   UNL     1      -8.873   4.851  74.516  1.00  0.00    -0.111 NA 
BRANCH   8  11
HETATM   11  C1* UNL     1     -11.307   6.605  72.562  1.00  0.00    -0.253 C  
HETATM   12  O4* UNL     1     -11.462   6.211  71.179  1.00  0.00    -0.302 OA 
HETATM   13  C4* UNL     1     -10.586   7.032  70.377  1.00  0.00    -0.223 C  
HETATM   14  C3* UNL     1     -10.396   8.346  71.137  1.00  0.00    -0.212 C  
HETATM   15  H2* UNL     1     -11.711   9.800  72.935  1.00  0.00     0.000 HD 
HETATM   16  C2* UNL     1     -10.861   8.069  72.569  1.00  0.00    -0.349 C  
HETATM   17  H3* UNL     1     -11.089  10.218  71.058  1.00  0.00     0.000 HD 
HETATM   18  O3* UNL     1     -11.207   9.402  70.587  1.00  0.00    -0.249 OA 
HETATM   19  O2* UNL     1     -11.988   8.891  72.930  1.00  0.00     0.007 OA 
BRANCH  13  20
HETATM   20  C5* UNL     1      -9.279   6.274  70.114  1.00  0.00    -0.157 C  
HETATM   21  O5* UNL     1      -9.480   4.881  70.353  1.00  0.00    -0.142 OA 
HETATM   22  H5* UNL     1      -8.670   4.411  70.190  1.00  0.00     0.000 HD 
ENDBRANCH  13  20
ENDBRANCH   8  11
ENDBRANCH   2   6
TORSDOF 3
ENDMDL
MODEL      217
REMARK 921   NORMALIZED FREE ENERGY PREDICTED BY IDOCK:   -2.28 KCAL/MOL
REMARK 922        TOTAL FREE ENERGY PREDICTED BY IDOCK:   -3.61 KCAL/MOL
REMARK 923 INTER-LIGAND FREE ENERGY PREDICTED BY IDOCK:   -3.13 KCAL/MOL
REMARK 924 INTRA-LIGAND FREE ENERGY PREDICTED BY IDOCK:   -0.48 KCAL/MOL
REMARK 927      BINDING AFFINITY PREDICTED BY RF-SCORE:    0.00 PKD
ROOT
HETATM    1  N   UNL     1     -10.889  14.982  65.491  1.00  0.00    -0.331 N  
HETATM    2  C   UNL     1     -10.701  13.717  64.996  1.00  0.00    -0.367 C  
HETATM    3  H2  UNL     1     -11.368  15.680  64.923  1.00  0.00     0.000 HD 
HETATM    4  H1  UNL     1     -10.556  15.233  66.422  1.00  0.00     0.000 HD 
HETATM    5  O   UNL     1     -11.103  13.414  63.874  1.00  0.00    -0.321 OA 
ENDROOT
BRANCH   2   6
HETATM    6  C   UNL     1     -10.006  12.806  65.924  1.00  0.00    -0.266 A  
HETATM    7  N   UNL     1      -9.708  11.530  65.640  1.00  0.00    -0.227 NA 
HETATM    8  N   UNL     1      -9.176  11.096  66.796  1.00  0.00    -0.168 NA 
HETATM    9  C   UNL     1      -9.081  12.105  67.701  1.00  0.00    -0.181 A  
HETATM   10  N   UNL     1      -9.609  13.193  67.197  1.00  0.00    -0.228 NA 
BRANCH   8  11
HETATM   11  C1* UNL     1      -8.743   9.725  66.986  1.00  0.00    -0.135 C  
HETATM   12  O4* UNL     1      -7.321   9.731  67.252  1.00  0.00    -0.086 OA 
HETATM   13  C4* UNL     1      -6.633   9.406  66.025  1.00  0.00    -0.073 C  
HETATM   14  C3* UNL     1      -7.597   8.563  65.189  1.00  0.00    -0.094 C  
HETATM   15  H2* UNL     1      -9.675   6.953  65.590  1.00  0.00     0.000 HD 
HETATM   16  C2* UNL     1      -8.980   8.775  65.811  1.00  0.00    -0.206 C  
HETATM   17  H3* UNL     1      -7.873   6.637  64.735  1.00  0.00     0.000 HD 
HETATM   18  O3* UNL     1      -7.274   7.161  65.253  1.00  0.00    -0.068 OA 
HETATM   19  O2* UNL     1      -9.528   7.542  66.321  1.00  0.00    -0.169 OA 
BRANCH  13  20
HETATM   20  C5* UNL     1      -6.185  10.701  65.335  1.00  0.00    -0.071 C  
HETATM   21  O5* UNL     1      -5.748  10.406  64.008  1.00  0.00    -0.138 OA 
HETATM   22  H5* UNL     1      -5.471  11.208  63.580  1.00  0.00     0.000 HD 
ENDBRANCH  13  20
ENDBRANCH   8  11
ENDBRANCH   2   6
TORSDOF 3
ENDMDL
MODEL      218
REMARK 921   NORMALIZED FREE ENERGY PREDICTED BY IDOCK:   -2.26 KCAL/MOL
REMARK 922        TOTAL FREE ENERGY PREDICTED BY IDOCK:   -3.59 KCAL/MOL
REMARK 923 INTER-LIGAND FREE ENERGY PREDICTED BY IDOCK:   -3.15 KCAL/MOL
REMARK 924 INTRA-LIGAND FREE ENERGY PREDICTED BY IDOCK:   -0.44 KCAL/MOL
REMARK 927      BINDING AFFINITY PREDICTED BY RF-SCORE:    0.00 PKD
ROOT
HETATM    1  N   UNL     1      -7.840   5.096  70.164  1.00  0.00    -0.077 N  
HETATM    2  C   UNL     1      -8.099   6.051  71.114  1.00  0.00    -0.121 C  
HETATM    3  H2  UNL     1      -7.524   4.170  70.453  1.00  0.00     0.000 HD 
HETATM    4  H1  UNL     1      -7.960   5.300  69.171  1.00  0.00     0.000 HD 
HETATM    5  O   UNL     1      -7.954   5.805  72.309  1.00  0.00    -0.105 OA 
ENDROOT
BRANCH   2   6
HETATM    6  C   UNL     1      -8.558   7.338  70.560  1.00  0.00    -0.143 A  
HETATM    7  N   UNL     1      -9.693   7.493  69.862  1.00  0.00    -0.171 NA 
HETATM    8  N   UNL     1      -9.634   8.787  69.502  1.00  0.00    -0.165 NA 
HETATM    9  C   UNL     1      -8.548   9.397  70.044  1.00  0.00    -0.203 A  
HETATM   10  N   UNL     1      -7.836   8.516  70.702  1.00  0.00    -0.082 NA 
BRANCH   8  11
HETATM   11  C1* UNL     1     -10.646   9.408  68.671  1.00  0.00    -0.200 C  
HETATM   12  O4* UNL     1     -10.819   8.601  67.483  1.00  0.00    -0.202 OA 
HETATM   13  C4* UNL     1     -10.067   9.211  66.411  1.00  0.00    -0.274 C  
HETATM   14  C3* UNL     1      -9.982  10.705  66.729  1.00  0.00    -0.209 C  
HETATM   15  H2* UNL     1     -11.362  12.518  68.101  1.00  0.00     0.000 HD 
HETATM   16  C2* UNL     1     -10.354  10.837  68.208  1.00  0.00    -0.173 C  
HETATM   17  H3* UNL     1     -10.868  12.398  66.146  1.00  0.00     0.000 HD 
HETATM   18  O3* UNL     1     -10.921  11.471  65.949  1.00  0.00    -0.284 OA 
HETATM   19  O2* UNL     1     -11.544  11.630  68.388  1.00  0.00    -0.267 OA 
BRANCH  13  20
HETATM   20  C5* UNL     1      -8.701   8.525  66.292  1.00  0.00    -0.142 C  
HETATM   21  O5* UNL     1      -8.571   7.945  64.993  1.00  0.00    -0.329 OA 
HETATM   22  H5* UNL     1      -7.725   7.520  64.919  1.00  0.00     0.000 HD 
ENDBRANCH  13  20
ENDBRANCH   8  11
ENDBRANCH   2   6
TORSDOF 3
ENDMDL
MODEL      219
REMARK 921   NORMALIZED FREE ENERGY PREDICTED BY IDOCK:   -2.24 KCAL/MOL
REMARK 922        TOTAL FREE ENERGY PREDICTED BY IDOCK:   -3.57 KCAL/MOL
REMARK 923 INTER-LIGAND FREE ENERGY PREDICTED BY IDOCK:   -2.73 KCAL/MOL
REMARK 924 INTRA-LIGAND FREE ENERGY PREDICTED BY IDOCK:   -0.84 KCAL/MOL
REMARK 927      BINDING AFFINITY PREDICTED BY RF-SCORE:    0.00 PKD
ROOT
HETATM    1  N   UNL     1     -10.720   6.429  66.480  1.00  0.00    -0.526 N  
HETATM    2  C   UNL     1      -9.934   5.818  67.423  1.00  0.00    -0.150 C  
HETATM    3  H2  UNL     1     -10.757   6.052  65.533  1.00  0.00     0.000 HD 
HETATM    4  H1  UNL     1     -11.269   7.257  66.714  1.00  0.00     0.000 HD 
HETATM    5  O   UNL     1      -9.272   4.821  67.140  1.00  0.00    -0.118 OA 
ENDROOT
BRANCH   2   6
HETATM    6  C   UNL     1      -9.982   6.457  68.750  1.00  0.00    -0.147 A  
HETATM    7  N   UNL     1      -9.768   5.808  69.904  1.00  0.00    -0.157 NA 
HETATM    8  N   UNL     1     -10.005   6.764  70.819  1.00  0.00    -0.187 NA 
HETATM    9  C   UNL     1     -10.260   7.959  70.224  1.00  0.00    -0.200 A  
HETATM   10  N   UNL     1     -10.273   7.805  68.923  1.00  0.00    -0.207 NA 
BRANCH   8  11
HETATM   11  C1* UNL     1      -9.944   6.508  72.245  1.00  0.00    -0.163 C  
HETATM   12  O4* UNL     1      -8.947   7.382  72.823  1.00  0.00    -0.130 OA 
HETATM   13  C4* UNL     1      -7.729   6.624  72.992  1.00  0.00    -0.095 C  
HETATM   14  C3* UNL     1      -8.141   5.159  73.152  1.00  0.00    -0.105 C  
HETATM   15  H2* UNL     1     -10.264   3.778  73.963  1.00  0.00     0.000 HD 
HETATM   16  C2* UNL     1      -9.587   5.078  72.657  1.00  0.00    -0.141 C  
HETATM   17  H3* UNL     1      -8.357   3.832  74.629  1.00  0.00     0.000 HD 
HETATM   18  O3* UNL     1      -8.102   4.741  74.530  1.00  0.00    -0.094 OA 
HETATM   19  O2* UNL     1     -10.485   4.665  73.707  1.00  0.00    -0.189 OA 
BRANCH  13  20
HETATM   20  C5* UNL     1      -6.801   6.880  71.800  1.00  0.00    -0.065 C  
HETATM   21  O5* UNL     1      -6.882   5.782  70.889  1.00  0.00    -0.054 OA 
HETATM   22  H5* UNL     1      -6.306   5.941  70.150  1.00  0.00     0.000 HD 
ENDBRANCH  13  20
ENDBRANCH   8  11
ENDBRANCH   2   6
TORSDOF 3
ENDMDL
MODEL      220
REMARK 921   NORMALIZED FREE ENERGY PREDICTED BY IDOCK:   -2.24 KCAL/MOL
REMARK 922        TOTAL FREE ENERGY PREDICTED BY IDOCK:   -3.56 KCAL/MOL
REMARK 923 INTER-LIGAND FREE ENERGY PREDICTED BY IDOCK:   -2.84 KCAL/MOL
REMARK 924 INTRA-LIGAND FREE ENERGY PREDICTED BY IDOCK:   -0.72 KCAL/MOL
REMARK 927      BINDING AFFINITY PREDICTED BY RF-SCORE:    0.00 PKD
ROOT
HETATM    1  N   UNL     1      -7.120   5.721  70.186  1.00  0.00    -0.065 N  
HETATM    2  C   UNL     1      -6.871   6.975  70.682  1.00  0.00    -0.054 C  
HETATM    3  H2  UNL     1      -6.357   5.048  70.112  1.00  0.00     0.000 HD 
HETATM    4  H1  UNL     1      -8.059   5.452  69.890  1.00  0.00     0.000 HD 
HETATM    5  O   UNL     1      -5.740   7.299  71.038  1.00  0.00    -0.031 OA 
ENDROOT
BRANCH   2   6
HETATM    6  C   UNL     1      -8.063   7.842  70.745  1.00  0.00    -0.102 A  
HETATM    7  N   UNL     1      -8.887   8.061  69.710  1.00  0.00    -0.143 NA 
HETATM    8  N   UNL     1      -9.746   8.964  70.213  1.00  0.00    -0.175 NA 
HETATM    9  C   UNL     1      -9.492   9.202  71.526  1.00  0.00    -0.169 A  
HETATM   10  N   UNL     1      -8.431   8.529  71.895  1.00  0.00    -0.198 NA 
BRANCH   8  11
HETATM   11  C1* UNL     1     -10.811   9.549  69.421  1.00  0.00    -0.206 C  
HETATM   12  O4* UNL     1     -10.350   9.665  68.055  1.00  0.00    -0.193 OA 
HETATM   13  C4* UNL     1      -9.921  11.026  67.839  1.00  0.00    -0.174 C  
HETATM   14  C3* UNL     1     -10.713  11.898  68.816  1.00  0.00    -0.224 C  
HETATM   15  H2* UNL     1     -13.030  11.806  70.118  1.00  0.00     0.000 HD 
HETATM   16  C2* UNL     1     -11.291  10.935  69.857  1.00  0.00    -0.305 C  
HETATM   17  H3* UNL     1     -12.294  13.118  68.769  1.00  0.00     0.000 HD 
HETATM   18  O3* UNL     1     -11.802  12.577  68.163  1.00  0.00    -0.334 OA 
HETATM   19  O2* UNL     1     -12.732  10.945  69.847  1.00  0.00    -0.240 OA 
BRANCH  13  20
HETATM   20  C5* UNL     1      -8.401  11.116  68.022  1.00  0.00    -0.134 C  
HETATM   21  O5* UNL     1      -7.789   9.934  67.502  1.00  0.00    -0.098 OA 
HETATM   22  H5* UNL     1      -6.847   9.989  67.615  1.00  0.00     0.000 HD 
ENDBRANCH  13  20
ENDBRANCH   8  11
ENDBRANCH   2   6
TORSDOF 3
ENDMDL
MODEL      221
REMARK 921   NORMALIZED FREE ENERGY PREDICTED BY IDOCK:   -2.23 KCAL/MOL
REMARK 922        TOTAL FREE ENERGY PREDICTED BY IDOCK:   -3.56 KCAL/MOL
REMARK 923 INTER-LIGAND FREE ENERGY PREDICTED BY IDOCK:   -3.03 KCAL/MOL
REMARK 924 INTRA-LIGAND FREE ENERGY PREDICTED BY IDOCK:   -0.53 KCAL/MOL
REMARK 927      BINDING AFFINITY PREDICTED BY RF-SCORE:    0.00 PKD
ROOT
HETATM    1  N   UNL     1      -7.772   8.790  63.380  1.00  0.00    -0.125 N  
HETATM    2  C   UNL     1      -8.885   9.590  63.444  1.00  0.00    -0.214 C  
HETATM    3  H2  UNL     1      -7.380   8.545  62.471  1.00  0.00     0.000 HD 
HETATM    4  H1  UNL     1      -7.332   8.438  64.230  1.00  0.00     0.000 HD 
HETATM    5  O   UNL     1      -9.415  10.014  62.420  1.00  0.00    -0.295 OA 
ENDROOT
BRANCH   2   6
HETATM    6  C   UNL     1      -9.340   9.875  64.817  1.00  0.00    -0.278 A  
HETATM    7  N   UNL     1      -9.190   9.030  65.848  1.00  0.00    -0.214 NA 
HETATM    8  N   UNL     1      -9.825   9.675  66.842  1.00  0.00    -0.188 NA 
HETATM    9  C   UNL     1     -10.256  10.898  66.436  1.00  0.00    -0.238 A  
HETATM   10  N   UNL     1      -9.986  11.055  65.164  1.00  0.00    -0.259 NA 
BRANCH   8  11
HETATM   11  C1* UNL     1      -9.971   9.107  68.168  1.00  0.00    -0.176 C  
HETATM   12  O4* UNL     1      -9.782  10.164  69.138  1.00  0.00    -0.192 OA 
HETATM   13  C4* UNL     1      -8.429  10.082  69.636  1.00  0.00    -0.180 C  
HETATM   14  C3* UNL     1      -7.996   8.621  69.495  1.00  0.00    -0.097 C  
HETATM   15  H2* UNL     1      -9.138   6.221  69.385  1.00  0.00     0.000 HD 
HETATM   16  C2* UNL     1      -8.999   7.982  68.530  1.00  0.00    -0.133 C  
HETATM   17  H3* UNL     1      -7.791   7.015  70.665  1.00  0.00     0.000 HD 
HETATM   18  O3* UNL     1      -8.059   7.922  70.753  1.00  0.00    -0.097 OA 
HETATM   19  O2* UNL     1      -9.741   6.920  69.162  1.00  0.00    -0.154 OA 
BRANCH  13  20
HETATM   20  C5* UNL     1      -7.543  11.067  68.865  1.00  0.00    -0.134 C  
HETATM   21  O5* UNL     1      -6.429  10.369  68.306  1.00  0.00    -0.058 OA 
HETATM   22  H5* UNL     1      -5.880  10.979  67.828  1.00  0.00     0.000 HD 
ENDBRANCH  13  20
ENDBRANCH   8  11
ENDBRANCH   2   6
TORSDOF 3
ENDMDL
MODEL      222
REMARK 921   NORMALIZED FREE ENERGY PREDICTED BY IDOCK:   -2.22 KCAL/MOL
REMARK 922        TOTAL FREE ENERGY PREDICTED BY IDOCK:   -3.55 KCAL/MOL
REMARK 923 INTER-LIGAND FREE ENERGY PREDICTED BY IDOCK:   -3.20 KCAL/MOL
REMARK 924 INTRA-LIGAND FREE ENERGY PREDICTED BY IDOCK:   -0.35 KCAL/MOL
REMARK 927      BINDING AFFINITY PREDICTED BY RF-SCORE:    0.00 PKD
ROOT
HETATM    1  N   UNL     1     -12.853  12.791  63.605  1.00  0.00    -0.698 N  
HETATM    2  C   UNL     1     -11.534  12.703  63.968  1.00  0.00    -0.411 C  
HETATM    3  H2  UNL     1     -13.270  12.052  63.038  1.00  0.00     0.000 HD 
HETATM    4  H1  UNL     1     -13.424  13.585  63.895  1.00  0.00     0.000 HD 
HETATM    5  O   UNL     1     -10.846  11.746  63.618  1.00  0.00    -0.369 OA 
ENDROOT
BRANCH   2   6
HETATM    6  C   UNL     1     -11.063  13.829  64.796  1.00  0.00    -0.377 A  
HETATM    7  N   UNL     1     -10.756  13.728  66.097  1.00  0.00    -0.281 NA 
HETATM    8  N   UNL     1     -10.475  15.000  66.426  1.00  0.00    -0.285 NA 
HETATM    9  C   UNL     1     -10.528  15.810  65.337  1.00  0.00    -0.414 A  
HETATM   10  N   UNL     1     -10.912  15.116  64.294  1.00  0.00     0.008 NA 
BRANCH   8  11
HETATM   11  C1* UNL     1     -10.131  15.396  67.778  1.00  0.00    -0.227 C  
HETATM   12  O4* UNL     1      -9.194  16.496  67.705  1.00  0.00    -0.201 OA 
HETATM   13  C4* UNL     1      -7.864  15.968  67.898  1.00  0.00    -0.138 C  
HETATM   14  C3* UNL     1      -8.013  14.696  68.736  1.00  0.00    -0.151 C  
HETATM   15  H2* UNL     1      -9.727  13.675  70.495  1.00  0.00     0.000 HD 
HETATM   16  C2* UNL     1      -9.494  14.315  68.654  1.00  0.00    -0.178 C  
HETATM   17  H3* UNL     1      -7.766  14.136  70.638  1.00  0.00     0.000 HD 
HETATM   18  O3* UNL     1      -7.673  14.925  70.117  1.00  0.00     0.078 OA 
HETATM   19  O2* UNL     1     -10.123  14.346  69.951  1.00  0.00     0.239 OA 
BRANCH  13  20
HETATM   20  C5* UNL     1      -7.206  15.735  66.533  1.00  0.00     0.483 C  
HETATM   21  O5* UNL     1      -6.080  16.603  66.394  1.00  0.00    -0.278 OA 
HETATM   22  H5* UNL     1      -5.672  16.459  65.548  1.00  0.00     0.000 HD 
ENDBRANCH  13  20
ENDBRANCH   8  11
ENDBRANCH   2   6
TORSDOF 3
ENDMDL
MODEL      223
REMARK 921   NORMALIZED FREE ENERGY PREDICTED BY IDOCK:   -2.22 KCAL/MOL
REMARK 922        TOTAL FREE ENERGY PREDICTED BY IDOCK:   -3.54 KCAL/MOL
REMARK 923 INTER-LIGAND FREE ENERGY PREDICTED BY IDOCK:   -3.06 KCAL/MOL
REMARK 924 INTRA-LIGAND FREE ENERGY PREDICTED BY IDOCK:   -0.48 KCAL/MOL
REMARK 927      BINDING AFFINITY PREDICTED BY RF-SCORE:    0.00 PKD
ROOT
HETATM    1  N   UNL     1      -9.219   8.861  65.027  1.00  0.00    -0.437 N  
HETATM    2  C   UNL     1      -9.815   9.027  66.251  1.00  0.00    -0.291 C  
HETATM    3  H2  UNL     1      -9.026   9.677  64.446  1.00  0.00     0.000 HD 
HETATM    4  H1  UNL     1      -8.967   7.932  64.690  1.00  0.00     0.000 HD 
HETATM    5  O   UNL     1     -10.119  10.146  66.657  1.00  0.00    -0.205 OA 
ENDROOT
BRANCH   2   6
HETATM    6  C   UNL     1     -10.026   7.768  66.990  1.00  0.00    -0.244 A  
HETATM    7  N   UNL     1      -9.169   7.280  67.900  1.00  0.00    -0.131 NA 
HETATM    8  N   UNL     1      -9.733   6.102  68.221  1.00  0.00    -0.120 NA 
HETATM    9  C   UNL     1     -10.926   5.943  67.591  1.00  0.00    -0.145 A  
HETATM   10  N   UNL     1     -11.138   6.961  66.794  1.00  0.00    -0.208 NA 
BRANCH   8  11
HETATM   11  C1* UNL     1      -9.121   5.177  69.154  1.00  0.00    -0.102 C  
HETATM   12  O4* UNL     1     -10.017   5.003  70.276  1.00  0.00    -0.214 OA 
HETATM   13  C4* UNL     1      -9.556   5.845  71.355  1.00  0.00    -0.164 C  
HETATM   14  C3* UNL     1      -8.049   6.022  71.162  1.00  0.00    -0.121 C  
HETATM   15  H2* UNL     1      -6.033   4.712  70.024  1.00  0.00     0.000 HD 
HETATM   16  C2* UNL     1      -7.762   5.592  69.721  1.00  0.00    -0.078 C  
HETATM   17  H3* UNL     1      -6.359   5.287  71.933  1.00  0.00     0.000 HD 
HETATM   18  O3* UNL     1      -7.294   5.177  72.053  1.00  0.00    -0.085 OA 
HETATM   19  O2* UNL     1      -6.877   4.454  69.672  1.00  0.00    -0.043 OA 
BRANCH  13  20
HETATM   20  C5* UNL     1     -10.341   7.162  71.343  1.00  0.00    -0.196 C  
HETATM   21  O5* UNL     1     -11.726   6.893  71.562  1.00  0.00    -0.276 OA 
HETATM   22  H5* UNL     1     -12.213   7.709  71.555  1.00  0.00     0.000 HD 
ENDBRANCH  13  20
ENDBRANCH   8  11
ENDBRANCH   2   6
TORSDOF 3
ENDMDL
MODEL      224
REMARK 921   NORMALIZED FREE ENERGY PREDICTED BY IDOCK:   -2.22 KCAL/MOL
REMARK 922        TOTAL FREE ENERGY PREDICTED BY IDOCK:   -3.54 KCAL/MOL
REMARK 923 INTER-LIGAND FREE ENERGY PREDICTED BY IDOCK:   -3.33 KCAL/MOL
REMARK 924 INTRA-LIGAND FREE ENERGY PREDICTED BY IDOCK:   -0.21 KCAL/MOL
REMARK 927      BINDING AFFINITY PREDICTED BY RF-SCORE:    0.00 PKD
ROOT
HETATM    1  N   UNL     1      -7.081   2.924  74.119  1.00  0.00    -0.040 N  
HETATM    2  C   UNL     1      -7.707   2.915  72.898  1.00  0.00    -0.051 C  
HETATM    3  H2  UNL     1      -6.258   2.341  74.267  1.00  0.00     0.000 HD 
HETATM    4  H1  UNL     1      -7.430   3.507  74.880  1.00  0.00     0.000 HD 
HETATM    5  O   UNL     1      -7.287   2.213  71.980  1.00  0.00    -0.037 OA 
ENDROOT
BRANCH   2   6
HETATM    6  C   UNL     1      -8.875   3.811  72.816  1.00  0.00    -0.094 A  
HETATM    7  N   UNL     1      -9.127   4.624  71.780  1.00  0.00    -0.132 NA 
HETATM    8  N   UNL     1     -10.220   5.288  72.195  1.00  0.00    -0.193 NA 
HETATM    9  C   UNL     1     -10.651   4.819  73.395  1.00  0.00    -0.232 A  
HETATM   10  N   UNL     1      -9.823   3.901  73.828  1.00  0.00    -0.107 NA 
BRANCH   8  11
HETATM   11  C1* UNL     1     -10.838   6.336  71.407  1.00  0.00    -0.261 C  
HETATM   12  O4* UNL     1      -9.799   7.225  70.936  1.00  0.00    -0.184 OA 
HETATM   13  C4* UNL     1      -9.770   8.380  71.802  1.00  0.00    -0.237 C  
HETATM   14  C3* UNL     1     -11.179   8.535  72.378  1.00  0.00    -0.329 C  
HETATM   15  H2* UNL     1     -13.670   7.882  71.713  1.00  0.00     0.000 HD 
HETATM   16  C2* UNL     1     -11.879   7.196  72.127  1.00  0.00    -0.277 C  
HETATM   17  H3* UNL     1     -12.794   9.668  72.065  1.00  0.00     0.000 HD 
HETATM   18  O3* UNL     1     -11.919   9.573  71.707  1.00  0.00    -0.370 OA 
HETATM   19  O2* UNL     1     -13.024   7.348  71.265  1.00  0.00    -0.351 OA 
BRANCH  13  20
HETATM   20  C5* UNL     1      -8.683   8.191  72.866  1.00  0.00    -0.224 C  
HETATM   21  O5* UNL     1      -9.164   7.317  73.888  1.00  0.00    -0.208 OA 
HETATM   22  H5* UNL     1      -8.491   7.200  74.548  1.00  0.00     0.000 HD 
ENDBRANCH  13  20
ENDBRANCH   8  11
ENDBRANCH   2   6
TORSDOF 3
ENDMDL
MODEL      225
REMARK 921   NORMALIZED FREE ENERGY PREDICTED BY IDOCK:   -2.19 KCAL/MOL
REMARK 922        TOTAL FREE ENERGY PREDICTED BY IDOCK:   -3.51 KCAL/MOL
REMARK 923 INTER-LIGAND FREE ENERGY PREDICTED BY IDOCK:   -2.89 KCAL/MOL
REMARK 924 INTRA-LIGAND FREE ENERGY PREDICTED BY IDOCK:   -0.61 KCAL/MOL
REMARK 927      BINDING AFFINITY PREDICTED BY RF-SCORE:    0.00 PKD
ROOT
HETATM    1  N   UNL     1      -8.643   9.584  70.248  1.00  0.00    -0.215 N  
HETATM    2  C   UNL     1      -8.889   8.622  71.194  1.00  0.00    -0.199 C  
HETATM    3  H2  UNL     1      -8.501  10.551  70.538  1.00  0.00     0.000 HD 
HETATM    4  H1  UNL     1      -8.602   9.345  69.257  1.00  0.00     0.000 HD 
HETATM    5  O   UNL     1      -8.939   8.910  72.387  1.00  0.00    -0.383 OA 
ENDROOT
BRANCH   2   6
HETATM    6  C   UNL     1      -9.064   7.267  70.639  1.00  0.00    -0.157 A  
HETATM    7  N   UNL     1      -8.176   6.664  69.835  1.00  0.00    -0.125 NA 
HETATM    8  N   UNL     1      -8.802   5.515  69.525  1.00  0.00    -0.106 NA 
HETATM    9  C   UNL     1      -9.979   5.404  70.194  1.00  0.00    -0.232 A  
HETATM   10  N   UNL     1     -10.190   6.493  70.892  1.00  0.00    -0.189 NA 
BRANCH   8  11
HETATM   11  C1* UNL     1      -8.231   4.540  68.617  1.00  0.00    -0.081 C  
HETATM   12  O4* UNL     1      -7.671   5.245  67.485  1.00  0.00    -0.093 OA 
HETATM   13  C4* UNL     1      -8.621   5.178  66.399  1.00  0.00    -0.112 C  
HETATM   14  C3* UNL     1      -9.444   3.906  66.612  1.00  0.00    -0.199 C  
HETATM   15  H2* UNL     1      -9.163   1.544  67.802  1.00  0.00     0.000 HD 
HETATM   16  C2* UNL     1      -9.196   3.489  68.064  1.00  0.00    -0.178 C  
HETATM   17  H3* UNL     1      -9.519   2.049  65.879  1.00  0.00     0.000 HD 
HETATM   18  O3* UNL     1      -9.009   2.839  65.747  1.00  0.00    -0.137 OA 
HETATM   19  O2* UNL     1      -8.563   2.197  68.145  1.00  0.00    -0.067 OA 
BRANCH  13  20
HETATM   20  C5* UNL     1      -9.460   6.461  66.377  1.00  0.00    -0.133 C  
HETATM   21  O5* UNL     1     -10.751   6.196  66.929  1.00  0.00    -0.287 OA 
HETATM   22  H5* UNL     1     -11.271   6.991  66.916  1.00  0.00     0.000 HD 
ENDBRANCH  13  20
ENDBRANCH   8  11
ENDBRANCH   2   6
TORSDOF 3
ENDMDL
MODEL      226
REMARK 921   NORMALIZED FREE ENERGY PREDICTED BY IDOCK:   -2.18 KCAL/MOL
REMARK 922        TOTAL FREE ENERGY PREDICTED BY IDOCK:   -3.50 KCAL/MOL
REMARK 923 INTER-LIGAND FREE ENERGY PREDICTED BY IDOCK:   -2.68 KCAL/MOL
REMARK 924 INTRA-LIGAND FREE ENERGY PREDICTED BY IDOCK:   -0.82 KCAL/MOL
REMARK 927      BINDING AFFINITY PREDICTED BY RF-SCORE:    0.00 PKD
ROOT
HETATM    1  N   UNL     1      -5.911  12.430  69.370  1.00  0.00    -0.091 N  
HETATM    2  C   UNL     1      -6.469  13.102  68.312  1.00  0.00    -0.096 C  
HETATM    3  H2  UNL     1      -5.082  12.809  69.827  1.00  0.00     0.000 HD 
HETATM    4  H1  UNL     1      -6.315  11.555  69.706  1.00  0.00     0.000 HD 
HETATM    5  O   UNL     1      -5.982  14.155  67.908  1.00  0.00    -0.134 OA 
ENDROOT
BRANCH   2   6
HETATM    6  C   UNL     1      -7.668  12.450  67.754  1.00  0.00    -0.139 A  
HETATM    7  N   UNL     1      -7.677  11.214  67.234  1.00  0.00    -0.123 NA 
HETATM    8  N   UNL     1      -8.939  11.101  66.784  1.00  0.00    -0.160 NA 
HETATM    9  C   UNL     1      -9.674  12.196  67.108  1.00  0.00    -0.199 A  
HETATM   10  N   UNL     1      -8.908  13.076  67.703  1.00  0.00    -0.179 NA 
BRANCH   8  11
HETATM   11  C1* UNL     1      -9.411   9.923  66.083  1.00  0.00    -0.200 C  
HETATM   12  O4* UNL     1     -10.687   9.539  66.647  1.00  0.00    -0.143 OA 
HETATM   13  C4* UNL     1     -10.460   8.460  67.580  1.00  0.00    -0.257 C  
HETATM   14  C3* UNL     1      -9.194   7.737  67.116  1.00  0.00    -0.146 C  
HETATM   15  H2* UNL     1      -7.842   7.366  64.855  1.00  0.00     0.000 HD 
HETATM   16  C2* UNL     1      -8.502   8.694  66.142  1.00  0.00    -0.133 C  
HETATM   17  H3* UNL     1      -8.717   6.066  66.130  1.00  0.00     0.000 HD 
HETATM   18  O3* UNL     1      -9.502   6.514  66.418  1.00  0.00    -0.164 OA 
HETATM   19  O2* UNL     1      -8.407   8.129  64.819  1.00  0.00    -0.157 OA 
BRANCH  13  20
HETATM   20  C5* UNL     1     -10.363   9.027  69.001  1.00  0.00    -0.219 C  
HETATM   21  O5* UNL     1      -8.990   9.199  69.353  1.00  0.00    -0.139 OA 
HETATM   22  H5* UNL     1      -8.929   9.551  70.233  1.00  0.00     0.000 HD 
ENDBRANCH  13  20
ENDBRANCH   8  11
ENDBRANCH   2   6
TORSDOF 3
ENDMDL
MODEL      227
REMARK 921   NORMALIZED FREE ENERGY PREDICTED BY IDOCK:   -2.18 KCAL/MOL
REMARK 922        TOTAL FREE ENERGY PREDICTED BY IDOCK:   -3.49 KCAL/MOL
REMARK 923 INTER-LIGAND FREE ENERGY PREDICTED BY IDOCK:   -3.14 KCAL/MOL
REMARK 924 INTRA-LIGAND FREE ENERGY PREDICTED BY IDOCK:   -0.36 KCAL/MOL
REMARK 927      BINDING AFFINITY PREDICTED BY RF-SCORE:    0.00 PKD
ROOT
HETATM    1  N   UNL     1      -9.719   8.464  65.746  1.00  0.00    -0.439 N  
HETATM    2  C   UNL     1     -10.081   9.176  66.861  1.00  0.00    -0.258 C  
HETATM    3  H2  UNL     1     -10.344   7.744  65.382  1.00  0.00     0.000 HD 
HETATM    4  H1  UNL     1      -8.832   8.644  65.275  1.00  0.00     0.000 HD 
HETATM    5  O   UNL     1     -11.149   8.958  67.428  1.00  0.00    -0.008 OA 
ENDROOT
BRANCH   2   6
HETATM    6  C   UNL     1      -9.093  10.190  67.271  1.00  0.00    -0.138 A  
HETATM    7  N   UNL     1      -9.414  11.378  67.806  1.00  0.00    -0.162 NA 
HETATM    8  N   UNL     1      -8.214  11.973  67.924  1.00  0.00    -0.143 NA 
HETATM    9  C   UNL     1      -7.212  11.133  67.556  1.00  0.00    -0.101 A  
HETATM   10  N   UNL     1      -7.724  10.007  67.122  1.00  0.00    -0.092 NA 
BRANCH   8  11
HETATM   11  C1* UNL     1      -8.064  13.327  68.420  1.00  0.00    -0.134 C  
HETATM   12  O4* UNL     1      -9.355  13.978  68.363  1.00  0.00    -0.207 OA 
HETATM   13  C4* UNL     1      -9.394  14.795  67.174  1.00  0.00    -0.224 C  
HETATM   14  C3* UNL     1      -7.947  15.179  66.856  1.00  0.00    -0.120 C  
HETATM   15  H2* UNL     1      -5.646  15.469  68.157  1.00  0.00     0.000 HD 
HETATM   16  C2* UNL     1      -7.075  14.216  67.665  1.00  0.00    -0.183 C  
HETATM   17  H3* UNL     1      -6.752  16.765  67.072  1.00  0.00     0.000 HD 
HETATM   18  O3* UNL     1      -7.650  16.527  67.269  1.00  0.00    -0.137 OA 
HETATM   19  O2* UNL     1      -6.261  14.917  68.626  1.00  0.00    -0.081 OA 
BRANCH  13  20
HETATM   20  C5* UNL     1     -10.091  14.022  66.048  1.00  0.00    -0.315 C  
HETATM   21  O5* UNL     1      -9.181  13.075  65.486  1.00  0.00    -0.394 OA 
HETATM   22  H5* UNL     1      -9.612  12.596  64.788  1.00  0.00     0.000 HD 
ENDBRANCH  13  20
ENDBRANCH   8  11
ENDBRANCH   2   6
TORSDOF 3
ENDMDL
MODEL      228
REMARK 921   NORMALIZED FREE ENERGY PREDICTED BY IDOCK:   -2.17 KCAL/MOL
REMARK 922        TOTAL FREE ENERGY PREDICTED BY IDOCK:   -3.48 KCAL/MOL
REMARK 923 INTER-LIGAND FREE ENERGY PREDICTED BY IDOCK:   -3.03 KCAL/MOL
REMARK 924 INTRA-LIGAND FREE ENERGY PREDICTED BY IDOCK:   -0.45 KCAL/MOL
REMARK 927      BINDING AFFINITY PREDICTED BY RF-SCORE:    0.00 PKD
ROOT
HETATM    1  N   UNL     1      -6.369   3.814  68.727  1.00  0.00    -0.032 N  
HETATM    2  C   UNL     1      -6.515   5.012  69.379  1.00  0.00    -0.039 C  
HETATM    3  H2  UNL     1      -5.620   3.179  69.003  1.00  0.00     0.000 HD 
HETATM    4  H1  UNL     1      -7.000   3.550  67.970  1.00  0.00     0.000 HD 
HETATM    5  O   UNL     1      -5.754   5.331  70.290  1.00  0.00    -0.015 OA 
ENDROOT
BRANCH   2   6
HETATM    6  C   UNL     1      -7.642   5.827  68.889  1.00  0.00    -0.089 A  
HETATM    7  N   UNL     1      -8.586   6.356  69.681  1.00  0.00    -0.133 NA 
HETATM    8  N   UNL     1      -9.424   6.919  68.793  1.00  0.00    -0.136 NA 
HETATM    9  C   UNL     1      -8.945   6.804  67.527  1.00  0.00    -0.115 A  
HETATM   10  N   UNL     1      -7.835   6.109  67.542  1.00  0.00    -0.101 NA 
BRANCH   8  11
HETATM   11  C1* UNL     1     -10.650   7.581  69.194  1.00  0.00    -0.197 C  
HETATM   12  O4* UNL     1     -10.665   8.903  68.607  1.00  0.00    -0.178 OA 
HETATM   13  C4* UNL     1     -10.241   9.848  69.614  1.00  0.00    -0.237 C  
HETATM   14  C3* UNL     1     -10.601   9.236  70.969  1.00  0.00    -0.316 C  
HETATM   15  H2* UNL     1     -12.352   7.492  71.950  1.00  0.00     0.000 HD 
HETATM   16  C2* UNL     1     -10.863   7.752  70.699  1.00  0.00    -0.237 C  
HETATM   17  H3* UNL     1     -12.021   9.442  72.359  1.00  0.00     0.000 HD 
HETATM   18  O3* UNL     1     -11.798   9.822  71.518  1.00  0.00    -0.379 OA 
HETATM   19  O2* UNL     1     -12.221   7.386  71.015  1.00  0.00    -0.315 OA 
BRANCH  13  20
HETATM   20  C5* UNL     1      -8.745  10.137  69.443  1.00  0.00    -0.176 C  
HETATM   21  O5* UNL     1      -8.532  11.549  69.422  1.00  0.00    -0.336 OA 
HETATM   22  H5* UNL     1      -7.605  11.728  69.317  1.00  0.00     0.000 HD 
ENDBRANCH  13  20
ENDBRANCH   8  11
ENDBRANCH   2   6
TORSDOF 3
ENDMDL
MODEL      229
REMARK 921   NORMALIZED FREE ENERGY PREDICTED BY IDOCK:   -2.16 KCAL/MOL
REMARK 922        TOTAL FREE ENERGY PREDICTED BY IDOCK:   -3.47 KCAL/MOL
REMARK 923 INTER-LIGAND FREE ENERGY PREDICTED BY IDOCK:   -3.16 KCAL/MOL
REMARK 924 INTRA-LIGAND FREE ENERGY PREDICTED BY IDOCK:   -0.31 KCAL/MOL
REMARK 927      BINDING AFFINITY PREDICTED BY RF-SCORE:    0.00 PKD
ROOT
HETATM    1  N   UNL     1     -10.017   3.926  67.332  1.00  0.00    -0.173 N  
HETATM    2  C   UNL     1      -9.611   3.628  68.607  1.00  0.00    -0.089 C  
HETATM    3  H2  UNL     1     -10.052   3.189  66.628  1.00  0.00     0.000 HD 
HETATM    4  H1  UNL     1     -10.285   4.877  67.077  1.00  0.00     0.000 HD 
HETATM    5  O   UNL     1      -9.287   2.482  68.913  1.00  0.00    -0.153 OA 
ENDROOT
BRANCH   2   6
HETATM    6  C   UNL     1      -9.618   4.782  69.524  1.00  0.00    -0.179 A  
HETATM    7  N   UNL     1      -9.235   6.020  69.176  1.00  0.00    -0.126 NA 
HETATM    8  N   UNL     1      -9.327   6.687  70.339  1.00  0.00    -0.159 NA 
HETATM    9  C   UNL     1      -9.832   5.893  71.320  1.00  0.00    -0.176 A  
HETATM   10  N   UNL     1     -10.012   4.683  70.852  1.00  0.00    -0.206 NA 
BRANCH   8  11
HETATM   11  C1* UNL     1      -8.957   8.082  70.466  1.00  0.00    -0.152 C  
HETATM   12  O4* UNL     1      -9.769   8.676  71.506  1.00  0.00    -0.210 OA 
HETATM   13  C4* UNL     1     -10.856   9.387  70.876  1.00  0.00    -0.322 C  
HETATM   14  C3* UNL     1     -10.367   9.798  69.486  1.00  0.00    -0.230 C  
HETATM   15  H2* UNL     1      -8.054  10.286  68.267  1.00  0.00     0.000 HD 
HETATM   16  C2* UNL     1      -9.128   8.942  69.212  1.00  0.00    -0.145 C  
HETATM   17  H3* UNL     1      -9.680  11.442  68.581  1.00  0.00     0.000 HD 
HETATM   18  O3* UNL     1      -9.984  11.187  69.444  1.00  0.00    -0.083 OA 
HETATM   19  O2* UNL     1      -7.947   9.753  69.046  1.00  0.00    -0.087 OA 
BRANCH  13  20
HETATM   20  C5* UNL     1     -12.103   8.495  70.854  1.00  0.00    -0.139 C  
HETATM   21  O5* UNL     1     -13.266   9.296  71.067  1.00  0.00    -0.531 OA 
HETATM   22  H5* UNL     1     -14.039   8.744  71.053  1.00  0.00     0.000 HD 
ENDBRANCH  13  20
ENDBRANCH   8  11
ENDBRANCH   2   6
TORSDOF 3
ENDMDL
MODEL      230
REMARK 921   NORMALIZED FREE ENERGY PREDICTED BY IDOCK:   -2.15 KCAL/MOL
REMARK 922        TOTAL FREE ENERGY PREDICTED BY IDOCK:   -3.46 KCAL/MOL
REMARK 923 INTER-LIGAND FREE ENERGY PREDICTED BY IDOCK:   -3.20 KCAL/MOL
REMARK 924 INTRA-LIGAND FREE ENERGY PREDICTED BY IDOCK:   -0.26 KCAL/MOL
REMARK 927      BINDING AFFINITY PREDICTED BY RF-SCORE:    0.00 PKD
ROOT
HETATM    1  N   UNL     1     -10.494  11.317  69.387  1.00  0.00    -0.425 N  
HETATM    2  C   UNL     1     -11.208  10.334  68.750  1.00  0.00    -0.206 C  
HETATM    3  H2  UNL     1     -10.730  12.296  69.226  1.00  0.00     0.000 HD 
HETATM    4  H1  UNL     1      -9.730  11.081  70.020  1.00  0.00     0.000 HD 
HETATM    5  O   UNL     1     -12.129  10.618  67.987  1.00  0.00    -0.366 OA 
ENDROOT
BRANCH   2   6
HETATM    6  C   UNL     1     -10.770   8.965  69.081  1.00  0.00    -0.143 A  
HETATM    7  N   UNL     1     -11.223   8.265  70.132  1.00  0.00    -0.190 NA 
HETATM    8  N   UNL     1     -10.484   7.144  70.070  1.00  0.00    -0.215 NA 
HETATM    9  C   UNL     1      -9.688   7.143  68.969  1.00  0.00    -0.150 A  
HETATM   10  N   UNL     1      -9.825   8.278  68.330  1.00  0.00    -0.166 NA 
BRANCH   8  11
HETATM   11  C1* UNL     1     -10.591   6.088  71.057  1.00  0.00    -0.246 C  
HETATM   12  O4* UNL     1     -10.629   6.694  72.370  1.00  0.00    -0.204 OA 
HETATM   13  C4* UNL     1      -9.305   6.612  72.941  1.00  0.00    -0.135 C  
HETATM   14  C3* UNL     1      -8.625   5.399  72.303  1.00  0.00    -0.126 C  
HETATM   15  H2* UNL     1      -9.337   3.101  71.168  1.00  0.00     0.000 HD 
HETATM   16  C2* UNL     1      -9.460   5.057  71.066  1.00  0.00    -0.162 C  
HETATM   17  H3* UNL     1      -8.204   3.508  72.791  1.00  0.00     0.000 HD 
HETATM   18  O3* UNL     1      -8.626   4.261  73.187  1.00  0.00    -0.093 OA 
HETATM   19  O2* UNL     1     -10.040   3.741  71.163  1.00  0.00    -0.128 OA 
BRANCH  13  20
HETATM   20  C5* UNL     1      -8.564   7.933  72.702  1.00  0.00    -0.153 C  
HETATM   21  O5* UNL     1      -8.100   7.981  71.352  1.00  0.00    -0.095 OA 
HETATM   22  H5* UNL     1      -7.641   8.800  71.204  1.00  0.00     0.000 HD 
ENDBRANCH  13  20
ENDBRANCH   8  11
ENDBRANCH   2   6
TORSDOF 3
ENDMDL
MODEL      231
REMARK 921   NORMALIZED FREE ENERGY PREDICTED BY IDOCK:   -2.15 KCAL/MOL
REMARK 922        TOTAL FREE ENERGY PREDICTED BY IDOCK:   -3.46 KCAL/MOL
REMARK 923 INTER-LIGAND FREE ENERGY PREDICTED BY IDOCK:   -2.94 KCAL/MOL
REMARK 924 INTRA-LIGAND FREE ENERGY PREDICTED BY IDOCK:   -0.52 KCAL/MOL
REMARK 927      BINDING AFFINITY PREDICTED BY RF-SCORE:    0.00 PKD
ROOT
HETATM    1  N   UNL     1     -11.627   6.395  67.113  1.00  0.00    -0.612 N  
HETATM    2  C   UNL     1     -10.924   6.538  68.282  1.00  0.00    -0.281 C  
HETATM    3  H2  UNL     1     -12.496   5.861  67.110  1.00  0.00     0.000 HD 
HETATM    4  H1  UNL     1     -11.293   6.818  66.247  1.00  0.00     0.000 HD 
HETATM    5  O   UNL     1     -11.326   6.028  69.325  1.00  0.00    -0.384 OA 
ENDROOT
BRANCH   2   6
HETATM    6  C   UNL     1      -9.695   7.342  68.148  1.00  0.00    -0.151 A  
HETATM    7  N   UNL     1      -9.108   7.625  66.976  1.00  0.00    -0.130 NA 
HETATM    8  N   UNL     1      -8.002   8.286  67.361  1.00  0.00    -0.105 NA 
HETATM    9  C   UNL     1      -7.984   8.466  68.708  1.00  0.00    -0.120 A  
HETATM   10  N   UNL     1      -9.022   7.872  69.241  1.00  0.00    -0.145 NA 
BRANCH   8  11
HETATM   11  C1* UNL     1      -7.009   8.756  66.416  1.00  0.00    -0.082 C  
HETATM   12  O4* UNL     1      -6.944  10.199  66.503  1.00  0.00    -0.093 OA 
HETATM   13  C4* UNL     1      -7.724  10.750  65.420  1.00  0.00     0.022 C  
HETATM   14  C3* UNL     1      -7.716   9.710  64.298  1.00  0.00    -0.129 C  
HETATM   15  H2* UNL     1      -6.172   7.712  63.464  1.00  0.00     0.000 HD 
HETATM   16  C2* UNL     1      -7.255   8.402  64.948  1.00  0.00    -0.084 C  
HETATM   17  H3* UNL     1      -6.781   9.412  62.558  1.00  0.00     0.000 HD 
HETATM   18  O3* UNL     1      -6.786  10.058  63.254  1.00  0.00    -0.124 OA 
HETATM   19  O2* UNL     1      -6.019   7.932  64.375  1.00  0.00    -0.051 OA 
BRANCH  13  20
HETATM   20  C5* UNL     1      -9.127  11.101  65.929  1.00  0.00    -0.203 C  
HETATM   21  O5* UNL     1     -10.080  10.878  64.890  1.00  0.00    -0.268 OA 
HETATM   22  H5* UNL     1     -10.950  11.095  65.205  1.00  0.00     0.000 HD 
ENDBRANCH  13  20
ENDBRANCH   8  11
ENDBRANCH   2   6
TORSDOF 3
ENDMDL
MODEL      232
REMARK 921   NORMALIZED FREE ENERGY PREDICTED BY IDOCK:   -2.07 KCAL/MOL
REMARK 922        TOTAL FREE ENERGY PREDICTED BY IDOCK:   -3.36 KCAL/MOL
REMARK 923 INTER-LIGAND FREE ENERGY PREDICTED BY IDOCK:   -2.68 KCAL/MOL
REMARK 924 INTRA-LIGAND FREE ENERGY PREDICTED BY IDOCK:   -0.68 KCAL/MOL
REMARK 927      BINDING AFFINITY PREDICTED BY RF-SCORE:    0.00 PKD
ROOT
HETATM    1  N   UNL     1      -8.457  11.177  69.120  1.00  0.00    -0.373 N  
HETATM    2  C   UNL     1      -7.880  10.085  69.716  1.00  0.00    -0.177 C  
HETATM    3  H2  UNL     1      -8.400  12.089  69.575  1.00  0.00     0.000 HD 
HETATM    4  H1  UNL     1      -8.942  11.090  68.227  1.00  0.00     0.000 HD 
HETATM    5  O   UNL     1      -7.296  10.191  70.793  1.00  0.00    -0.288 OA 
ENDROOT
BRANCH   2   6
HETATM    6  C   UNL     1      -8.026   8.836  68.948  1.00  0.00    -0.105 A  
HETATM    7  N   UNL     1      -9.129   8.072  68.959  1.00  0.00    -0.145 NA 
HETATM    8  N   UNL     1      -8.761   7.025  68.201  1.00  0.00    -0.127 NA 
HETATM    9  C   UNL     1      -7.517   7.207  67.686  1.00  0.00    -0.101 A  
HETATM   10  N   UNL     1      -7.013   8.325  68.145  1.00  0.00    -0.075 NA 
BRANCH   8  11
HETATM   11  C1* UNL     1      -9.633   5.891  67.966  1.00  0.00    -0.116 C  
HETATM   12  O4* UNL     1     -10.480   5.720  69.126  1.00  0.00    -0.223 OA 
HETATM   13  C4* UNL     1      -9.918   4.670  69.942  1.00  0.00    -0.226 C  
HETATM   14  C3* UNL     1      -9.135   3.752  69.001  1.00  0.00    -0.138 C  
HETATM   15  H2* UNL     1      -9.152   3.078  66.428  1.00  0.00     0.000 HD 
HETATM   16  C2* UNL     1      -8.941   4.551  67.709  1.00  0.00    -0.116 C  
HETATM   17  H3* UNL     1      -9.384   1.982  68.109  1.00  0.00     0.000 HD 
HETATM   18  O3* UNL     1      -9.870   2.551  68.693  1.00  0.00     0.031 OA 
HETATM   19  O2* UNL     1      -9.582   3.911  66.587  1.00  0.00    -0.195 OA 
BRANCH  13  20
HETATM   20  C5* UNL     1      -9.063   5.290  71.054  1.00  0.00    -0.143 C  
HETATM   21  O5* UNL     1      -9.717   6.454  71.563  1.00  0.00    -0.169 OA 
HETATM   22  H5* UNL     1      -9.188   6.839  72.252  1.00  0.00     0.000 HD 
ENDBRANCH  13  20
ENDBRANCH   8  11
ENDBRANCH   2   6
TORSDOF 3
ENDMDL
MODEL      233
REMARK 921   NORMALIZED FREE ENERGY PREDICTED BY IDOCK:   -2.05 KCAL/MOL
REMARK 922        TOTAL FREE ENERGY PREDICTED BY IDOCK:   -3.35 KCAL/MOL
REMARK 923 INTER-LIGAND FREE ENERGY PREDICTED BY IDOCK:   -2.78 KCAL/MOL
REMARK 924 INTRA-LIGAND FREE ENERGY PREDICTED BY IDOCK:   -0.56 KCAL/MOL
REMARK 927      BINDING AFFINITY PREDICTED BY RF-SCORE:    0.00 PKD
ROOT
HETATM    1  N   UNL     1      -9.629   8.544  65.706  1.00  0.00    -0.453 N  
HETATM    2  C   UNL     1      -9.158   7.441  66.371  1.00  0.00    -0.160 C  
HETATM    3  H2  UNL     1      -9.260   8.772  64.783  1.00  0.00     0.000 HD 
HETATM    4  H1  UNL     1     -10.344   9.140  66.124  1.00  0.00     0.000 HD 
HETATM    5  O   UNL     1      -8.296   6.723  65.868  1.00  0.00    -0.125 OA 
ENDROOT
BRANCH   2   6
HETATM    6  C   UNL     1      -9.783   7.222  67.688  1.00  0.00    -0.142 A  
HETATM    7  N   UNL     1      -9.632   6.105  68.415  1.00  0.00    -0.118 NA 
HETATM    8  N   UNL     1     -10.443   6.332  69.462  1.00  0.00    -0.213 NA 
HETATM    9  C   UNL     1     -10.984   7.577  69.402  1.00  0.00    -0.083 A  
HETATM   10  N   UNL     1     -10.608   8.163  68.293  1.00  0.00    -0.148 NA 
BRANCH   8  11
HETATM   11  C1* UNL     1     -10.649   5.353  70.512  1.00  0.00    -0.242 C  
HETATM   12  O4* UNL     1     -10.920   6.059  71.745  1.00  0.00    -0.250 OA 
HETATM   13  C4* UNL     1      -9.699   6.106  72.514  1.00  0.00    -0.156 C  
HETATM   14  C3* UNL     1      -8.868   4.891  72.096  1.00  0.00    -0.128 C  
HETATM   15  H2* UNL     1      -9.280   2.470  71.075  1.00  0.00     0.000 HD 
HETATM   16  C2* UNL     1      -9.483   4.400  70.782  1.00  0.00    -0.173 C  
HETATM   17  H3* UNL     1      -8.434   3.075  72.807  1.00  0.00     0.000 HD 
HETATM   18  O3* UNL     1      -8.949   3.829  73.066  1.00  0.00    -0.096 OA 
HETATM   19  O2* UNL     1     -10.004   3.061  70.907  1.00  0.00    -0.067 OA 
BRANCH  13  20
HETATM   20  C5* UNL     1      -8.997   7.448  72.273  1.00  0.00    -0.128 C  
HETATM   21  O5* UNL     1      -8.050   7.307  71.213  1.00  0.00    -0.100 OA 
HETATM   22  H5* UNL     1      -7.615   8.138  71.064  1.00  0.00     0.000 HD 
ENDBRANCH  13  20
ENDBRANCH   8  11
ENDBRANCH   2   6
TORSDOF 3
ENDMDL
MODEL      234
REMARK 921   NORMALIZED FREE ENERGY PREDICTED BY IDOCK:   -2.04 KCAL/MOL
REMARK 922        TOTAL FREE ENERGY PREDICTED BY IDOCK:   -3.33 KCAL/MOL
REMARK 923 INTER-LIGAND FREE ENERGY PREDICTED BY IDOCK:   -2.80 KCAL/MOL
REMARK 924 INTRA-LIGAND FREE ENERGY PREDICTED BY IDOCK:   -0.53 KCAL/MOL
REMARK 927      BINDING AFFINITY PREDICTED BY RF-SCORE:    0.00 PKD
ROOT
HETATM    1  N   UNL     1      -8.189   4.551  73.017  1.00  0.00    -0.099 N  
HETATM    2  C   UNL     1      -8.999   5.561  72.566  1.00  0.00    -0.133 C  
HETATM    3  H2  UNL     1      -8.321   4.181  73.958  1.00  0.00     0.000 HD 
HETATM    4  H1  UNL     1      -7.454   4.165  72.423  1.00  0.00     0.000 HD 
HETATM    5  O   UNL     1      -9.883   6.026  73.282  1.00  0.00    -0.158 OA 
ENDROOT
BRANCH   2   6
HETATM    6  C   UNL     1      -8.707   5.994  71.187  1.00  0.00    -0.132 A  
HETATM    7  N   UNL     1      -8.631   5.160  70.139  1.00  0.00    -0.106 NA 
HETATM    8  N   UNL     1      -8.262   5.984  69.143  1.00  0.00    -0.110 NA 
HETATM    9  C   UNL     1      -8.211   7.273  69.568  1.00  0.00    -0.131 A  
HETATM   10  N   UNL     1      -8.467   7.320  70.852  1.00  0.00    -0.127 NA 
BRANCH   8  11
HETATM   11  C1* UNL     1      -8.002   5.509  67.798  1.00  0.00    -0.101 C  
HETATM   12  O4* UNL     1      -8.639   6.413  66.866  1.00  0.00    -0.109 OA 
HETATM   13  C4* UNL     1      -9.891   5.822  66.452  1.00  0.00    -0.138 C  
HETATM   14  C3* UNL     1      -9.729   4.307  66.588  1.00  0.00    -0.219 C  
HETATM   15  H2* UNL     1      -7.761   2.518  66.573  1.00  0.00     0.000 HD 
HETATM   16  C2* UNL     1      -8.498   4.099  67.474  1.00  0.00    -0.099 C  
HETATM   17  H3* UNL     1      -9.390   2.739  65.398  1.00  0.00     0.000 HD 
HETATM   18  O3* UNL     1      -9.490   3.680  65.313  1.00  0.00    -0.151 OA 
HETATM   19  O2* UNL     1      -7.453   3.394  66.774  1.00  0.00    -0.073 OA 
BRANCH  13  20
HETATM   20  C5* UNL     1     -11.030   6.402  67.299  1.00  0.00    -0.392 C  
HETATM   21  O5* UNL     1     -10.917   7.825  67.340  1.00  0.00    -0.523 OA 
HETATM   22  H5* UNL     1     -11.623   8.184  67.865  1.00  0.00     0.000 HD 
ENDBRANCH  13  20
ENDBRANCH   8  11
ENDBRANCH   2   6
TORSDOF 3
ENDMDL
MODEL      235
REMARK 921   NORMALIZED FREE ENERGY PREDICTED BY IDOCK:   -2.04 KCAL/MOL
REMARK 922        TOTAL FREE ENERGY PREDICTED BY IDOCK:   -3.32 KCAL/MOL
REMARK 923 INTER-LIGAND FREE ENERGY PREDICTED BY IDOCK:   -2.86 KCAL/MOL
REMARK 924 INTRA-LIGAND FREE ENERGY PREDICTED BY IDOCK:   -0.47 KCAL/MOL
REMARK 927      BINDING AFFINITY PREDICTED BY RF-SCORE:    0.00 PKD
ROOT
HETATM    1  N   UNL     1      -7.889  10.394  69.365  1.00  0.00    -0.153 N  
HETATM    2  C   UNL     1      -7.766   9.552  70.441  1.00  0.00    -0.163 C  
HETATM    3  H2  UNL     1      -7.250  11.183  69.267  1.00  0.00     0.000 HD 
HETATM    4  H1  UNL     1      -8.612  10.241  68.661  1.00  0.00     0.000 HD 
HETATM    5  O   UNL     1      -6.896   9.737  71.289  1.00  0.00    -0.326 OA 
ENDROOT
BRANCH   2   6
HETATM    6  C   UNL     1      -8.744   8.449  70.453  1.00  0.00    -0.141 A  
HETATM    7  N   UNL     1      -8.871   7.547  69.468  1.00  0.00    -0.137 NA 
HETATM    8  N   UNL     1      -9.924   6.820  69.879  1.00  0.00    -0.171 NA 
HETATM    9  C   UNL     1     -10.348   7.221  71.106  1.00  0.00    -0.198 A  
HETATM   10  N   UNL     1      -9.643   8.255  71.495  1.00  0.00    -0.173 NA 
BRANCH   8  11
HETATM   11  C1* UNL     1     -10.474   5.735  69.090  1.00  0.00    -0.276 C  
HETATM   12  O4* UNL     1     -10.365   4.514  69.859  1.00  0.00    -0.130 OA 
HETATM   13  C4* UNL     1      -9.203   3.793  69.396  1.00  0.00    -0.156 C  
HETATM   14  C3* UNL     1      -8.981   4.205  67.939  1.00  0.00    -0.121 C  
HETATM   15  H2* UNL     1     -10.419   5.136  65.905  1.00  0.00     0.000 HD 
HETATM   16  C2* UNL     1      -9.806   5.479  67.738  1.00  0.00    -0.138 C  
HETATM   17  H3* UNL     1      -9.318   3.456  66.118  1.00  0.00     0.000 HD 
HETATM   18  O3* UNL     1      -9.455   3.200  67.022  1.00  0.00    -0.178 OA 
HETATM   19  O2* UNL     1     -10.835   5.294  66.745  1.00  0.00    -0.232 OA 
BRANCH  13  20
HETATM   20  C5* UNL     1      -8.014   4.099  70.314  1.00  0.00    -0.051 C  
HETATM   21  O5* UNL     1      -8.455   4.897  71.414  1.00  0.00    -0.112 OA 
HETATM   22  H5* UNL     1      -7.719   5.087  71.983  1.00  0.00     0.000 HD 
ENDBRANCH  13  20
ENDBRANCH   8  11
ENDBRANCH   2   6
TORSDOF 3
ENDMDL
MODEL      236
REMARK 921   NORMALIZED FREE ENERGY PREDICTED BY IDOCK:   -2.03 KCAL/MOL
REMARK 922        TOTAL FREE ENERGY PREDICTED BY IDOCK:   -3.32 KCAL/MOL
REMARK 923 INTER-LIGAND FREE ENERGY PREDICTED BY IDOCK:   -2.69 KCAL/MOL
REMARK 924 INTRA-LIGAND FREE ENERGY PREDICTED BY IDOCK:   -0.63 KCAL/MOL
REMARK 927      BINDING AFFINITY PREDICTED BY RF-SCORE:    0.00 PKD
ROOT
HETATM    1  N   UNL     1     -10.053   4.224  67.859  1.00  0.00     0.021 N  
HETATM    2  C   UNL     1      -9.755   4.301  69.195  1.00  0.00    -0.156 C  
HETATM    3  H2  UNL     1     -10.028   3.320  67.388  1.00  0.00     0.000 HD 
HETATM    4  H1  UNL     1     -10.300   5.061  67.329  1.00  0.00     0.000 HD 
HETATM    5  O   UNL     1      -9.457   3.293  69.833  1.00  0.00    -0.163 OA 
ENDROOT
BRANCH   2   6
HETATM    6  C   UNL     1      -9.840   5.664  69.751  1.00  0.00    -0.185 A  
HETATM    7  N   UNL     1      -9.039   6.675  69.384  1.00  0.00    -0.143 NA 
HETATM    8  N   UNL     1      -9.427   7.663  70.210  1.00  0.00    -0.161 NA 
HETATM    9  C   UNL     1     -10.481   7.275  70.974  1.00  0.00    -0.215 A  
HETATM   10  N   UNL     1     -10.760   6.019  70.729  1.00  0.00    -0.260 NA 
BRANCH   8  11
HETATM   11  C1* UNL     1      -8.792   8.966  70.214  1.00  0.00    -0.175 C  
HETATM   12  O4* UNL     1      -9.560   9.849  69.363  1.00  0.00    -0.189 OA 
HETATM   13  C4* UNL     1      -8.899   9.923  68.081  1.00  0.00    -0.118 C  
HETATM   14  C3* UNL     1      -7.416   9.644  68.333  1.00  0.00    -0.080 C  
HETATM   15  H2* UNL     1      -5.676   9.850  70.334  1.00  0.00     0.000 HD 
HETATM   16  C2* UNL     1      -7.343   9.011  69.725  1.00  0.00    -0.058 C  
HETATM   17  H3* UNL     1      -5.718  10.683  68.494  1.00  0.00     0.000 HD 
HETATM   18  O3* UNL     1      -6.638  10.856  68.337  1.00  0.00    -0.057 OA 
HETATM   19  O2* UNL     1      -6.576   9.822  70.638  1.00  0.00    -0.102 OA 
BRANCH  13  20
HETATM   20  C5* UNL     1      -9.559   8.936  67.111  1.00  0.00    -0.172 C  
HETATM   21  O5* UNL     1     -10.808   8.501  67.650  1.00  0.00    -0.477 OA 
HETATM   22  H5* UNL     1     -11.217   7.889  67.049  1.00  0.00     0.000 HD 
ENDBRANCH  13  20
ENDBRANCH   8  11
ENDBRANCH   2   6
TORSDOF 3
ENDMDL
MODEL      237
REMARK 921   NORMALIZED FREE ENERGY PREDICTED BY IDOCK:   -2.03 KCAL/MOL
REMARK 922        TOTAL FREE ENERGY PREDICTED BY IDOCK:   -3.32 KCAL/MOL
REMARK 923 INTER-LIGAND FREE ENERGY PREDICTED BY IDOCK:   -2.47 KCAL/MOL
REMARK 924 INTRA-LIGAND FREE ENERGY PREDICTED BY IDOCK:   -0.85 KCAL/MOL
REMARK 927      BINDING AFFINITY PREDICTED BY RF-SCORE:    0.00 PKD
ROOT
HETATM    1  N   UNL     1      -6.837  11.420  69.996  1.00  0.00    -0.341 N  
HETATM    2  C   UNL     1      -7.259  10.965  68.773  1.00  0.00    -0.091 C  
HETATM    3  H2  UNL     1      -6.010  12.015  70.054  1.00  0.00     0.000 HD 
HETATM    4  H1  UNL     1      -7.340  11.172  70.848  1.00  0.00     0.000 HD 
HETATM    5  O   UNL     1      -6.653  11.263  67.746  1.00  0.00    -0.064 OA 
ENDROOT
BRANCH   2   6
HETATM    6  C   UNL     1      -8.471  10.126  68.831  1.00  0.00    -0.139 A  
HETATM    7  N   UNL     1      -9.122   9.826  69.964  1.00  0.00    -0.230 NA 
HETATM    8  N   UNL     1     -10.079   8.987  69.532  1.00  0.00    -0.191 NA 
HETATM    9  C   UNL     1     -10.049   8.866  68.179  1.00  0.00    -0.189 A  
HETATM   10  N   UNL     1      -9.041   9.553  67.701  1.00  0.00    -0.121 NA 
BRANCH   8  11
HETATM   11  C1* UNL     1     -11.018   8.349  70.433  1.00  0.00    -0.239 C  
HETATM   12  O4* UNL     1     -12.356   8.586  69.938  1.00  0.00     0.832 OA 
HETATM   13  C4* UNL     1     -12.925   9.682  70.687  1.00  0.00     0.020 C  
HETATM   14  C3* UNL     1     -12.234   9.687  72.052  1.00  0.00    -0.256 C  
HETATM   15  H2* UNL     1     -10.998   7.957  73.650  1.00  0.00     0.000 HD 
HETATM   16  C2* UNL     1     -10.983   8.821  71.888  1.00  0.00    -0.365 C  
HETATM   17  H3* UNL     1     -12.638   9.106  73.921  1.00  0.00     0.000 HD 
HETATM   18  O3* UNL     1     -13.067   9.103  73.073  1.00  0.00    -0.255 OA 
HETATM   19  O2* UNL     1     -11.021   7.664  72.747  1.00  0.00    -0.315 OA 
BRANCH  13  20
HETATM   20  C5* UNL     1     -12.746  10.984  69.898  1.00  0.00    -0.038 C  
HETATM   21  O5* UNL     1     -11.576  11.662  70.357  1.00  0.00    -0.490 OA 
HETATM   22  H5* UNL     1     -11.464  12.469  69.869  1.00  0.00     0.000 HD 
ENDBRANCH  13  20
ENDBRANCH   8  11
ENDBRANCH   2   6
TORSDOF 3
ENDMDL
MODEL      238
REMARK 921   NORMALIZED FREE ENERGY PREDICTED BY IDOCK:   -2.02 KCAL/MOL
REMARK 922        TOTAL FREE ENERGY PREDICTED BY IDOCK:   -3.30 KCAL/MOL
REMARK 923 INTER-LIGAND FREE ENERGY PREDICTED BY IDOCK:   -2.62 KCAL/MOL
REMARK 924 INTRA-LIGAND FREE ENERGY PREDICTED BY IDOCK:   -0.68 KCAL/MOL
REMARK 927      BINDING AFFINITY PREDICTED BY RF-SCORE:    0.00 PKD
ROOT
HETATM    1  N   UNL     1      -6.426   8.766  72.352  1.00  0.00    -0.062 N  
HETATM    2  C   UNL     1      -7.753   8.571  72.068  1.00  0.00    -0.096 C  
HETATM    3  H2  UNL     1      -6.134   8.916  73.318  1.00  0.00     0.000 HD 
HETATM    4  H1  UNL     1      -5.726   8.764  71.610  1.00  0.00     0.000 HD 
HETATM    5  O   UNL     1      -8.596   8.574  72.963  1.00  0.00    -0.355 OA 
ENDROOT
BRANCH   2   6
HETATM    6  C   UNL     1      -8.035   8.357  70.637  1.00  0.00    -0.101 A  
HETATM    7  N   UNL     1      -7.941   7.168  70.023  1.00  0.00    -0.116 NA 
HETATM    8  N   UNL     1      -8.197   7.485  68.742  1.00  0.00    -0.127 NA 
HETATM    9  C   UNL     1      -8.519   8.799  68.618  1.00  0.00    -0.129 A  
HETATM   10  N   UNL     1      -8.411   9.387  69.784  1.00  0.00    -0.147 NA 
BRANCH   8  11
HETATM   11  C1* UNL     1      -8.156   6.504  67.676  1.00  0.00    -0.118 C  
HETATM   12  O4* UNL     1      -9.354   6.650  66.877  1.00  0.00    -0.138 OA 
HETATM   13  C4* UNL     1     -10.297   5.639  67.293  1.00  0.00    -0.241 C  
HETATM   14  C3* UNL     1      -9.478   4.475  67.853  1.00  0.00    -0.155 C  
HETATM   15  H2* UNL     1      -7.033   3.465  67.579  1.00  0.00     0.000 HD 
HETATM   16  C2* UNL     1      -8.078   5.039  68.111  1.00  0.00    -0.086 C  
HETATM   17  H3* UNL     1      -8.862   2.671  67.254  1.00  0.00     0.000 HD 
HETATM   18  O3* UNL     1      -9.371   3.394  66.907  1.00  0.00    -0.180 OA 
HETATM   19  O2* UNL     1      -7.081   4.374  67.308  1.00  0.00    -0.065 OA 
BRANCH  13  20
HETATM   20  C5* UNL     1     -11.280   6.245  68.302  1.00  0.00    -0.148 C  
HETATM   21  O5* UNL     1     -10.996   5.740  69.607  1.00  0.00    -0.354 OA 
HETATM   22  H5* UNL     1     -11.604   6.115  70.233  1.00  0.00     0.000 HD 
ENDBRANCH  13  20
ENDBRANCH   8  11
ENDBRANCH   2   6
TORSDOF 3
ENDMDL
MODEL      239
REMARK 921   NORMALIZED FREE ENERGY PREDICTED BY IDOCK:   -2.01 KCAL/MOL
REMARK 922        TOTAL FREE ENERGY PREDICTED BY IDOCK:   -3.29 KCAL/MOL
REMARK 923 INTER-LIGAND FREE ENERGY PREDICTED BY IDOCK:   -2.67 KCAL/MOL
REMARK 924 INTRA-LIGAND FREE ENERGY PREDICTED BY IDOCK:   -0.62 KCAL/MOL
REMARK 927      BINDING AFFINITY PREDICTED BY RF-SCORE:    0.00 PKD
ROOT
HETATM    1  N   UNL     1      -5.721  12.426  69.572  1.00  0.00    -0.087 N  
HETATM    2  C   UNL     1      -6.631  12.869  68.646  1.00  0.00    -0.091 C  
HETATM    3  H2  UNL     1      -4.954  13.035  69.855  1.00  0.00     0.000 HD 
HETATM    4  H1  UNL     1      -5.802  11.495  69.981  1.00  0.00     0.000 HD 
HETATM    5  O   UNL     1      -6.533  13.990  68.153  1.00  0.00    -0.097 OA 
ENDROOT
BRANCH   2   6
HETATM    6  C   UNL     1      -7.693  11.894  68.336  1.00  0.00    -0.131 A  
HETATM    7  N   UNL     1      -7.580  10.572  68.537  1.00  0.00    -0.092 NA 
HETATM    8  N   UNL     1      -8.735  10.106  68.030  1.00  0.00    -0.121 NA 
HETATM    9  C   UNL     1      -9.539  11.123  67.627  1.00  0.00    -0.170 A  
HETATM   10  N   UNL     1      -8.914  12.263  67.785  1.00  0.00    -0.169 NA 
BRANCH   8  11
HETATM   11  C1* UNL     1      -9.045   8.690  67.980  1.00  0.00    -0.140 C  
HETATM   12  O4* UNL     1     -10.432   8.515  68.355  1.00  0.00    -0.212 OA 
HETATM   13  C4* UNL     1     -10.475   8.115  69.742  1.00  0.00    -0.227 C  
HETATM   14  C3* UNL     1      -9.152   7.405  70.037  1.00  0.00    -0.148 C  
HETATM   15  H2* UNL     1      -7.285   6.066  68.699  1.00  0.00     0.000 HD 
HETATM   16  C2* UNL     1      -8.212   7.785  68.889  1.00  0.00    -0.127 C  
HETATM   17  H3* UNL     1      -8.486   5.532  70.233  1.00  0.00     0.000 HD 
HETATM   18  O3* UNL     1      -9.307   5.973  70.050  1.00  0.00    -0.150 OA 
HETATM   19  O2* UNL     1      -7.802   6.628  68.134  1.00  0.00    -0.106 OA 
BRANCH  13  20
HETATM   20  C5* UNL     1     -10.725   9.348  70.619  1.00  0.00    -0.290 C  
HETATM   21  O5* UNL     1      -9.519   9.703  71.295  1.00  0.00    -0.310 OA 
HETATM   22  H5* UNL     1      -9.674  10.467  71.839  1.00  0.00     0.000 HD 
ENDBRANCH  13  20
ENDBRANCH   8  11
ENDBRANCH   2   6
TORSDOF 3
ENDMDL
MODEL      240
REMARK 921   NORMALIZED FREE ENERGY PREDICTED BY IDOCK:   -1.98 KCAL/MOL
REMARK 922        TOTAL FREE ENERGY PREDICTED BY IDOCK:   -3.26 KCAL/MOL
REMARK 923 INTER-LIGAND FREE ENERGY PREDICTED BY IDOCK:   -2.54 KCAL/MOL
REMARK 924 INTRA-LIGAND FREE ENERGY PREDICTED BY IDOCK:   -0.72 KCAL/MOL
REMARK 927      BINDING AFFINITY PREDICTED BY RF-SCORE:    0.00 PKD
ROOT
HETATM    1  N   UNL     1      -9.070   4.451  65.644  1.00  0.00    -0.130 N  
HETATM    2  C   UNL     1      -8.428   5.662  65.699  1.00  0.00    -0.147 C  
HETATM    3  H2  UNL     1      -8.665   3.690  65.099  1.00  0.00     0.000 HD 
HETATM    4  H1  UNL     1      -9.948   4.302  66.142  1.00  0.00     0.000 HD 
HETATM    5  O   UNL     1      -7.370   5.842  65.099  1.00  0.00    -0.071 OA 
ENDROOT
BRANCH   2   6
HETATM    6  C   UNL     1      -9.115   6.668  66.530  1.00  0.00    -0.149 A  
HETATM    7  N   UNL     1      -8.487   7.650  67.192  1.00  0.00    -0.120 NA 
HETATM    8  N   UNL     1      -9.495   8.236  67.861  1.00  0.00    -0.144 NA 
HETATM    9  C   UNL     1     -10.689   7.676  67.535  1.00  0.00    -0.209 A  
HETATM   10  N   UNL     1     -10.492   6.675  66.714  1.00  0.00    -0.242 NA 
BRANCH   8  11
HETATM   11  C1* UNL     1      -9.283   9.344  68.772  1.00  0.00    -0.132 C  
HETATM   12  O4* UNL     1      -9.701  10.561  68.113  1.00  0.00    -0.149 OA 
HETATM   13  C4* UNL     1      -8.524  11.221  67.597  1.00  0.00    -0.124 C  
HETATM   14  C3* UNL     1      -7.354  10.790  68.484  1.00  0.00    -0.096 C  
HETATM   15  H2* UNL     1      -6.970   9.921  70.968  1.00  0.00     0.000 HD 
HETATM   16  C2* UNL     1      -7.845   9.558  69.249  1.00  0.00    -0.088 C  
HETATM   17  H3* UNL     1      -6.276  11.545  69.986  1.00  0.00     0.000 HD 
HETATM   18  O3* UNL     1      -7.002  11.812  69.436  1.00  0.00    -0.099 OA 
HETATM   19  O2* UNL     1      -7.863   9.789  70.672  1.00  0.00    -0.277 OA 
BRANCH  13  20
HETATM   20  C5* UNL     1      -8.346  10.859  66.118  1.00  0.00    -0.168 C  
HETATM   21  O5* UNL     1      -9.572  10.338  65.603  1.00  0.00    -0.198 OA 
HETATM   22  H5* UNL     1      -9.462  10.114  64.687  1.00  0.00     0.000 HD 
ENDBRANCH  13  20
ENDBRANCH   8  11
ENDBRANCH   2   6
TORSDOF 3
ENDMDL
MODEL      241
REMARK 921   NORMALIZED FREE ENERGY PREDICTED BY IDOCK:   -1.98 KCAL/MOL
REMARK 922        TOTAL FREE ENERGY PREDICTED BY IDOCK:   -3.26 KCAL/MOL
REMARK 923 INTER-LIGAND FREE ENERGY PREDICTED BY IDOCK:   -2.45 KCAL/MOL
REMARK 924 INTRA-LIGAND FREE ENERGY PREDICTED BY IDOCK:   -0.80 KCAL/MOL
REMARK 927      BINDING AFFINITY PREDICTED BY RF-SCORE:    0.00 PKD
ROOT
HETATM    1  N   UNL     1      -7.378   4.406  66.054  1.00  0.00    -0.076 N  
HETATM    2  C   UNL     1      -8.733   4.508  65.865  1.00  0.00    -0.119 C  
HETATM    3  H2  UNL     1      -6.843   3.729  65.510  1.00  0.00     0.000 HD 
HETATM    4  H1  UNL     1      -6.899   4.999  66.732  1.00  0.00     0.000 HD 
HETATM    5  O   UNL     1      -9.311   3.793  65.049  1.00  0.00    -0.139 OA 
ENDROOT
BRANCH   2   6
HETATM    6  C   UNL     1      -9.380   5.532  66.706  1.00  0.00    -0.132 A  
HETATM    7  N   UNL     1      -8.955   5.875  67.931  1.00  0.00    -0.112 NA 
HETATM    8  N   UNL     1      -9.892   6.755  68.324  1.00  0.00    -0.140 NA 
HETATM    9  C   UNL     1     -10.789   6.991  67.331  1.00  0.00    -0.300 A  
HETATM   10  N   UNL     1     -10.513   6.228  66.303  1.00  0.00     0.037 NA 
BRANCH   8  11
HETATM   11  C1* UNL     1      -9.878   7.371  69.636  1.00  0.00    -0.175 C  
HETATM   12  O4* UNL     1     -10.167   8.780  69.480  1.00  0.00    -0.197 OA 
HETATM   13  C4* UNL     1      -8.916   9.502  69.517  1.00  0.00    -0.181 C  
HETATM   14  C3* UNL     1      -7.945   8.658  70.344  1.00  0.00    -0.101 C  
HETATM   15  H2* UNL     1      -8.060   6.819  72.262  1.00  0.00     0.000 HD 
HETATM   16  C2* UNL     1      -8.568   7.261  70.418  1.00  0.00    -0.144 C  
HETATM   17  H3* UNL     1      -7.198   8.645  72.196  1.00  0.00     0.000 HD 
HETATM   18  O3* UNL     1      -7.800   9.169  71.683  1.00  0.00    -0.340 OA 
HETATM   19  O2* UNL     1      -8.874   6.888  71.777  1.00  0.00    -0.131 OA 
BRANCH  13  20
HETATM   20  C5* UNL     1      -8.440   9.768  68.084  1.00  0.00    -0.114 C  
HETATM   21  O5* UNL     1      -7.501   8.763  67.700  1.00  0.00    -0.091 OA 
HETATM   22  H5* UNL     1      -7.206   8.927  66.812  1.00  0.00     0.000 HD 
ENDBRANCH  13  20
ENDBRANCH   8  11
ENDBRANCH   2   6
TORSDOF 3
ENDMDL
MODEL      242
REMARK 921   NORMALIZED FREE ENERGY PREDICTED BY IDOCK:   -1.94 KCAL/MOL
REMARK 922        TOTAL FREE ENERGY PREDICTED BY IDOCK:   -3.21 KCAL/MOL
REMARK 923 INTER-LIGAND FREE ENERGY PREDICTED BY IDOCK:   -2.40 KCAL/MOL
REMARK 924 INTRA-LIGAND FREE ENERGY PREDICTED BY IDOCK:   -0.82 KCAL/MOL
REMARK 927      BINDING AFFINITY PREDICTED BY RF-SCORE:    0.00 PKD
ROOT
HETATM    1  N   UNL     1      -7.572   8.245  62.905  1.00  0.00    -0.115 N  
HETATM    2  C   UNL     1      -8.346   9.159  63.573  1.00  0.00    -0.188 C  
HETATM    3  H2  UNL     1      -7.523   8.274  61.887  1.00  0.00     0.000 HD 
HETATM    4  H1  UNL     1      -7.043   7.536  63.415  1.00  0.00     0.000 HD 
HETATM    5  O   UNL     1      -8.982  10.013  62.959  1.00  0.00    -0.215 OA 
ENDROOT
BRANCH   2   6
HETATM    6  C   UNL     1      -8.317   9.012  65.040  1.00  0.00    -0.166 A  
HETATM    7  N   UNL     1      -9.009   8.083  65.715  1.00  0.00    -0.143 NA 
HETATM    8  N   UNL     1      -8.740   8.396  66.994  1.00  0.00    -0.124 NA 
HETATM    9  C   UNL     1      -7.848   9.418  67.070  1.00  0.00    -0.098 A  
HETATM   10  N   UNL     1      -7.570   9.846  65.863  1.00  0.00    -0.103 NA 
BRANCH   8  11
HETATM   11  C1* UNL     1      -9.325   7.679  68.110  1.00  0.00    -0.144 C  
HETATM   12  O4* UNL     1      -8.277   7.388  69.063  1.00  0.00    -0.125 OA 
HETATM   13  C4* UNL     1      -7.855   6.021  68.863  1.00  0.00    -0.096 C  
HETATM   14  C3* UNL     1      -9.052   5.272  68.273  1.00  0.00    -0.110 C  
HETATM   15  H2* UNL     1     -11.703   5.481  68.255  1.00  0.00     0.000 HD 
HETATM   16  C2* UNL     1     -10.013   6.354  67.773  1.00  0.00    -0.128 C  
HETATM   17  H3* UNL     1     -10.472   4.016  68.901  1.00  0.00     0.000 HD 
HETATM   18  O3* UNL     1      -9.729   4.480  69.268  1.00  0.00    -0.174 OA 
HETATM   19  O2* UNL     1     -11.276   6.304  68.465  1.00  0.00    -0.352 OA 
BRANCH  13  20
HETATM   20  C5* UNL     1      -6.609   5.999  67.970  1.00  0.00    -0.055 C  
HETATM   21  O5* UNL     1      -6.999   5.765  66.615  1.00  0.00    -0.061 OA 
HETATM   22  H5* UNL     1      -6.227   5.751  66.061  1.00  0.00     0.000 HD 
ENDBRANCH  13  20
ENDBRANCH   8  11
ENDBRANCH   2   6
TORSDOF 3
ENDMDL
MODEL      243
REMARK 921   NORMALIZED FREE ENERGY PREDICTED BY IDOCK:   -1.93 KCAL/MOL
REMARK 922        TOTAL FREE ENERGY PREDICTED BY IDOCK:   -3.20 KCAL/MOL
REMARK 923 INTER-LIGAND FREE ENERGY PREDICTED BY IDOCK:   -2.37 KCAL/MOL
REMARK 924 INTRA-LIGAND FREE ENERGY PREDICTED BY IDOCK:   -0.82 KCAL/MOL
REMARK 927      BINDING AFFINITY PREDICTED BY RF-SCORE:    0.00 PKD
ROOT
HETATM    1  N   UNL     1      -7.330   2.633  66.388  1.00  0.00    -0.065 N  
HETATM    2  C   UNL     1      -8.352   3.499  66.681  1.00  0.00    -0.101 C  
HETATM    3  H2  UNL     1      -7.438   1.965  65.625  1.00  0.00     0.000 HD 
HETATM    4  H1  UNL     1      -6.462   2.649  66.924  1.00  0.00     0.000 HD 
HETATM    5  O   UNL     1      -9.398   3.479  66.035  1.00  0.00    -0.160 OA 
ENDROOT
BRANCH   2   6
HETATM    6  C   UNL     1      -8.060   4.417  67.797  1.00  0.00    -0.095 A  
HETATM    7  N   UNL     1      -8.930   5.319  68.275  1.00  0.00    -0.108 NA 
HETATM    8  N   UNL     1      -8.197   5.963  69.199  1.00  0.00    -0.105 NA 
HETATM    9  C   UNL     1      -6.966   5.402  69.326  1.00  0.00    -0.056 A  
HETATM   10  N   UNL     1      -6.834   4.438  68.449  1.00  0.00    -0.050 NA 
BRANCH   8  11
HETATM   11  C1* UNL     1      -8.716   7.083  69.960  1.00  0.00    -0.142 C  
HETATM   12  O4* UNL     1      -8.397   6.872  71.355  1.00  0.00    -0.114 OA 
HETATM   13  C4* UNL     1      -9.569   6.339  72.009  1.00  0.00    -0.151 C  
HETATM   14  C3* UNL     1     -10.780   6.835  71.215  1.00  0.00    -0.226 C  
HETATM   15  H2* UNL     1     -11.399   8.869  69.617  1.00  0.00     0.000 HD 
HETATM   16  C2* UNL     1     -10.226   7.316  69.871  1.00  0.00    -0.205 C  
HETATM   17  H3* UNL     1     -12.180   8.251  71.375  1.00  0.00     0.000 HD 
HETATM   18  O3* UNL     1     -11.429   7.943  71.868  1.00  0.00    -0.257 OA 
HETATM   19  O2* UNL     1     -10.462   8.724  69.673  1.00  0.00    -0.213 OA 
BRANCH  13  20
HETATM   20  C5* UNL     1      -9.461   4.812  72.083  1.00  0.00    -0.139 C  
HETATM   21  O5* UNL     1     -10.049   4.235  70.915  1.00  0.00    -0.185 OA 
HETATM   22  H5* UNL     1      -9.982   3.289  70.961  1.00  0.00     0.000 HD 
ENDBRANCH  13  20
ENDBRANCH   8  11
ENDBRANCH   2   6
TORSDOF 3
ENDMDL
MODEL      244
REMARK 921   NORMALIZED FREE ENERGY PREDICTED BY IDOCK:   -1.84 KCAL/MOL
REMARK 922        TOTAL FREE ENERGY PREDICTED BY IDOCK:   -3.09 KCAL/MOL
REMARK 923 INTER-LIGAND FREE ENERGY PREDICTED BY IDOCK:   -2.83 KCAL/MOL
REMARK 924 INTRA-LIGAND FREE ENERGY PREDICTED BY IDOCK:   -0.26 KCAL/MOL
REMARK 927      BINDING AFFINITY PREDICTED BY RF-SCORE:    0.00 PKD
ROOT
HETATM    1  N   UNL     1     -10.076   6.971  72.145  1.00  0.00    -0.180 N  
HETATM    2  C   UNL     1     -10.525   5.895  71.423  1.00  0.00    -0.236 C  
HETATM    3  H2  UNL     1     -10.110   6.944  73.164  1.00  0.00     0.000 HD 
HETATM    4  H1  UNL     1      -9.709   7.800  71.676  1.00  0.00     0.000 HD 
HETATM    5  O   UNL     1     -10.969   4.898  71.989  1.00  0.00    -0.101 OA 
ENDROOT
BRANCH   2   6
HETATM    6  C   UNL     1     -10.410   6.063  69.963  1.00  0.00    -0.229 A  
HETATM    7  N   UNL     1      -9.242   6.117  69.304  1.00  0.00    -0.132 NA 
HETATM    8  N   UNL     1      -9.636   6.364  68.042  1.00  0.00    -0.119 NA 
HETATM    9  C   UNL     1     -10.991   6.366  67.944  1.00  0.00    -0.325 A  
HETATM   10  N   UNL     1     -11.515   6.198  69.133  1.00  0.00    -0.267 NA 
BRANCH   8  11
HETATM   11  C1* UNL     1      -8.694   6.558  66.958  1.00  0.00    -0.112 C  
HETATM   12  O4* UNL     1      -9.354   6.222  65.716  1.00  0.00    -0.050 OA 
HETATM   13  C4* UNL     1      -8.962   4.882  65.346  1.00  0.00    -0.151 C  
HETATM   14  C3* UNL     1      -7.584   4.640  65.966  1.00  0.00    -0.090 C  
HETATM   15  H2* UNL     1      -5.494   6.077  66.766  1.00  0.00     0.000 HD 
HETATM   16  C2* UNL     1      -7.408   5.731  67.026  1.00  0.00    -0.080 C  
HETATM   17  H3* UNL     1      -5.676   4.620  65.378  1.00  0.00     0.000 HD 
HETATM   18  O3* UNL     1      -6.530   4.771  64.993  1.00  0.00    -0.034 OA 
HETATM   19  O2* UNL     1      -6.292   6.591  66.723  1.00  0.00    -0.038 OA 
BRANCH  13  20
HETATM   20  C5* UNL     1     -10.034   3.891  65.814  1.00  0.00    -0.088 C  
HETATM   21  O5* UNL     1     -11.125   3.900  64.893  1.00  0.00    -0.597 OA 
HETATM   22  H5* UNL     1     -11.790   3.286  65.182  1.00  0.00     0.000 HD 
ENDBRANCH  13  20
ENDBRANCH   8  11
ENDBRANCH   2   6
TORSDOF 3
ENDMDL
MODEL      245
REMARK 921   NORMALIZED FREE ENERGY PREDICTED BY IDOCK:   -1.70 KCAL/MOL
REMARK 922        TOTAL FREE ENERGY PREDICTED BY IDOCK:   -2.93 KCAL/MOL
REMARK 923 INTER-LIGAND FREE ENERGY PREDICTED BY IDOCK:   -2.47 KCAL/MOL
REMARK 924 INTRA-LIGAND FREE ENERGY PREDICTED BY IDOCK:   -0.46 KCAL/MOL
REMARK 927      BINDING AFFINITY PREDICTED BY RF-SCORE:    0.00 PKD
ROOT
HETATM    1  N   UNL     1      -9.586   2.107  72.494  1.00  0.00    -0.090 N  
HETATM    2  C   UNL     1      -8.729   2.924  71.801  1.00  0.00    -0.073 C  
HETATM    3  H2  UNL     1      -9.231   1.252  72.921  1.00  0.00     0.000 HD 
HETATM    4  H1  UNL     1     -10.574   2.344  72.587  1.00  0.00     0.000 HD 
HETATM    5  O   UNL     1      -7.539   2.637  71.689  1.00  0.00    -0.040 OA 
ENDROOT
BRANCH   2   6
HETATM    6  C   UNL     1      -9.369   4.130  71.244  1.00  0.00    -0.151 A  
HETATM    7  N   UNL     1      -8.730   5.041  70.496  1.00  0.00    -0.111 NA 
HETATM    8  N   UNL     1      -9.679   5.975  70.308  1.00  0.00    -0.162 NA 
HETATM    9  C   UNL     1     -10.862   5.586  70.851  1.00  0.00    -0.176 A  
HETATM   10  N   UNL     1     -10.705   4.439  71.464  1.00  0.00     0.190 NA 
BRANCH   8  11
HETATM   11  C1* UNL     1      -9.426   7.203  69.581  1.00  0.00    -0.152 C  
HETATM   12  O4* UNL     1     -10.397   7.307  68.513  1.00  0.00    -0.180 OA 
HETATM   13  C4* UNL     1      -9.768   6.869  67.290  1.00  0.00    -0.146 C  
HETATM   14  C3* UNL     1      -8.268   7.126  67.449  1.00  0.00    -0.116 C  
HETATM   15  H2* UNL     1      -6.675   8.745  68.833  1.00  0.00     0.000 HD 
HETATM   16  C2* UNL     1      -8.040   7.339  68.948  1.00  0.00    -0.128 C  
HETATM   17  H3* UNL     1      -6.923   8.475  66.846  1.00  0.00     0.000 HD 
HETATM   18  O3* UNL     1      -7.854   8.315  66.747  1.00  0.00    -0.093 OA 
HETATM   19  O2* UNL     1      -7.536   8.661  69.226  1.00  0.00    -0.078 OA 
BRANCH  13  20
HETATM   20  C5* UNL     1     -10.120   5.398  67.035  1.00  0.00    -0.203 C  
HETATM   21  O5* UNL     1     -11.110   5.316  66.009  1.00  0.00    -0.762 OA 
HETATM   22  H5* UNL     1     -11.328   4.405  65.851  1.00  0.00     0.000 HD 
ENDBRANCH  13  20
ENDBRANCH   8  11
ENDBRANCH   2   6
TORSDOF 3
ENDMDL
MODEL      246
REMARK 921   NORMALIZED FREE ENERGY PREDICTED BY IDOCK:   -1.70 KCAL/MOL
REMARK 922        TOTAL FREE ENERGY PREDICTED BY IDOCK:   -2.93 KCAL/MOL
REMARK 923 INTER-LIGAND FREE ENERGY PREDICTED BY IDOCK:   -2.39 KCAL/MOL
REMARK 924 INTRA-LIGAND FREE ENERGY PREDICTED BY IDOCK:   -0.54 KCAL/MOL
REMARK 927      BINDING AFFINITY PREDICTED BY RF-SCORE:    0.00 PKD
ROOT
HETATM    1  N   UNL     1      -7.805   5.197  73.040  1.00  0.00    -0.097 N  
HETATM    2  C   UNL     1      -8.580   6.204  72.523  1.00  0.00    -0.121 C  
HETATM    3  H2  UNL     1      -8.136   4.671  73.848  1.00  0.00     0.000 HD 
HETATM    4  H1  UNL     1      -6.900   4.969  72.627  1.00  0.00     0.000 HD 
HETATM    5  O   UNL     1      -9.669   6.479  73.021  1.00  0.00    -0.152 OA 
ENDROOT
BRANCH   2   6
HETATM    6  C   UNL     1      -7.987   6.874  71.351  1.00  0.00    -0.108 A  
HETATM    7  N   UNL     1      -8.605   7.002  70.167  1.00  0.00    -0.139 NA 
HETATM    8  N   UNL     1      -7.659   7.584  69.410  1.00  0.00    -0.091 NA 
HETATM    9  C   UNL     1      -6.553   7.872  70.146  1.00  0.00    -0.037 A  
HETATM   10  N   UNL     1      -6.713   7.426  71.367  1.00  0.00    -0.050 NA 
BRANCH   8  11
HETATM   11  C1* UNL     1      -7.859   7.877  68.005  1.00  0.00    -0.127 C  
HETATM   12  O4* UNL     1      -7.461   9.247  67.765  1.00  0.00    -0.086 OA 
HETATM   13  C4* UNL     1      -8.652  10.064  67.743  1.00  0.00    -0.118 C  
HETATM   14  C3* UNL     1      -9.802   9.154  67.305  1.00  0.00    -0.189 C  
HETATM   15  H2* UNL     1     -10.131   6.919  65.901  1.00  0.00     0.000 HD 
HETATM   16  C2* UNL     1      -9.288   7.722  67.481  1.00  0.00    -0.139 C  
HETATM   17  H3* UNL     1     -10.854   8.788  65.647  1.00  0.00     0.000 HD 
HETATM   18  O3* UNL     1     -10.141   9.353  65.919  1.00  0.00    -0.296 OA 
HETATM   19  O2* UNL     1      -9.243   7.015  66.226  1.00  0.00    -0.166 OA 
BRANCH  13  20
HETATM   20  C5* UNL     1      -8.858  10.701  69.122  1.00  0.00    -0.122 C  
HETATM   21  O5* UNL     1      -7.653  11.349  69.532  1.00  0.00    -0.352 OA 
HETATM   22  H5* UNL     1      -7.781  11.744  70.387  1.00  0.00     0.000 HD 
ENDBRANCH  13  20
ENDBRANCH   8  11
ENDBRANCH   2   6
TORSDOF 3
ENDMDL
MODEL      247
REMARK 921   NORMALIZED FREE ENERGY PREDICTED BY IDOCK:   -1.68 KCAL/MOL
REMARK 922        TOTAL FREE ENERGY PREDICTED BY IDOCK:   -2.90 KCAL/MOL
REMARK 923 INTER-LIGAND FREE ENERGY PREDICTED BY IDOCK:   -2.17 KCAL/MOL
REMARK 924 INTRA-LIGAND FREE ENERGY PREDICTED BY IDOCK:   -0.74 KCAL/MOL
REMARK 927      BINDING AFFINITY PREDICTED BY RF-SCORE:    0.00 PKD
ROOT
HETATM    1  N   UNL     1     -10.373  12.637  67.687  1.00  0.00    -0.217 N  
HETATM    2  C   UNL     1     -10.463  11.303  67.996  1.00  0.00    -0.188 C  
HETATM    3  H2  UNL     1     -11.218  13.207  67.667  1.00  0.00     0.000 HD 
HETATM    4  H1  UNL     1      -9.471  13.065  67.477  1.00  0.00     0.000 HD 
HETATM    5  O   UNL     1     -11.550  10.787  68.248  1.00  0.00    -0.401 OA 
ENDROOT
BRANCH   2   6
HETATM    6  C   UNL     1      -9.167  10.600  68.000  1.00  0.00    -0.148 A  
HETATM    7  N   UNL     1      -8.963   9.400  67.437  1.00  0.00    -0.124 NA 
HETATM    8  N   UNL     1      -7.687   9.140  67.771  1.00  0.00    -0.092 NA 
HETATM    9  C   UNL     1      -7.130  10.189  68.430  1.00  0.00    -0.071 A  
HETATM   10  N   UNL     1      -8.033  11.121  68.610  1.00  0.00    -0.138 NA 
BRANCH   8  11
HETATM   11  C1* UNL     1      -7.028   7.899  67.415  1.00  0.00    -0.075 C  
HETATM   12  O4* UNL     1      -6.039   8.183  66.399  1.00  0.00    -0.044 OA 
HETATM   13  C4* UNL     1      -6.602   7.842  65.114  1.00  0.00    -0.047 C  
HETATM   14  C3* UNL     1      -7.644   6.750  65.367  1.00  0.00    -0.090 C  
HETATM   15  H2* UNL     1      -8.132   4.860  67.174  1.00  0.00     0.000 HD 
HETATM   16  C2* UNL     1      -7.930   6.789  66.871  1.00  0.00    -0.109 C  
HETATM   17  H3* UNL     1      -7.788   4.766  65.185  1.00  0.00     0.000 HD 
HETATM   18  O3* UNL     1      -7.141   5.443  65.028  1.00  0.00    -0.062 OA 
HETATM   19  O2* UNL     1      -7.571   5.549  67.512  1.00  0.00    -0.086 OA 
BRANCH  13  20
HETATM   20  C5* UNL     1      -7.174   9.104  64.458  1.00  0.00    -0.098 C  
HETATM   21  O5* UNL     1      -8.601   9.063  64.510  1.00  0.00    -0.176 OA 
HETATM   22  H5* UNL     1      -8.956   9.844  64.104  1.00  0.00     0.000 HD 
ENDBRANCH  13  20
ENDBRANCH   8  11
ENDBRANCH   2   6
TORSDOF 3
ENDMDL
MODEL      248
REMARK 921   NORMALIZED FREE ENERGY PREDICTED BY IDOCK:   -1.64 KCAL/MOL
REMARK 922        TOTAL FREE ENERGY PREDICTED BY IDOCK:   -2.86 KCAL/MOL
REMARK 923 INTER-LIGAND FREE ENERGY PREDICTED BY IDOCK:   -2.03 KCAL/MOL
REMARK 924 INTRA-LIGAND FREE ENERGY PREDICTED BY IDOCK:   -0.83 KCAL/MOL
REMARK 927      BINDING AFFINITY PREDICTED BY RF-SCORE:    0.00 PKD
ROOT
HETATM    1  N   UNL     1      -7.830  10.287  69.851  1.00  0.00    -0.302 N  
HETATM    2  C   UNL     1      -8.782   9.914  68.937  1.00  0.00    -0.140 C  
HETATM    3  H2  UNL     1      -7.481  11.245  69.853  1.00  0.00     0.000 HD 
HETATM    4  H1  UNL     1      -7.467   9.617  70.530  1.00  0.00     0.000 HD 
HETATM    5  O   UNL     1      -9.220  10.720  68.119  1.00  0.00    -0.142 OA 
ENDROOT
BRANCH   2   6
HETATM    6  C   UNL     1      -9.206   8.506  69.053  1.00  0.00    -0.146 A  
HETATM    7  N   UNL     1      -8.483   7.466  68.610  1.00  0.00    -0.129 NA 
HETATM    8  N   UNL     1      -9.300   6.426  68.850  1.00  0.00    -0.130 NA 
HETATM    9  C   UNL     1     -10.427   6.827  69.493  1.00  0.00    -0.220 A  
HETATM   10  N   UNL     1     -10.415   8.131  69.624  1.00  0.00    -0.223 NA 
BRANCH   8  11
HETATM   11  C1* UNL     1      -8.956   5.067  68.481  1.00  0.00    -0.107 C  
HETATM   12  O4* UNL     1      -8.939   4.260  69.682  1.00  0.00    -0.088 OA 
HETATM   13  C4* UNL     1      -7.566   4.117  70.107  1.00  0.00    -0.045 C  
HETATM   14  C3* UNL     1      -6.700   4.251  68.853  1.00  0.00    -0.046 C  
HETATM   15  H2* UNL     1      -6.947   3.882  66.230  1.00  0.00     0.000 HD 
HETATM   16  C2* UNL     1      -7.605   4.878  67.789  1.00  0.00    -0.083 C  
HETATM   17  H3* UNL     1      -5.713   3.051  67.597  1.00  0.00     0.000 HD 
HETATM   18  O3* UNL     1      -6.250   2.968  68.376  1.00  0.00    -0.027 OA 
HETATM   19  O2* UNL     1      -7.786   3.999  66.660  1.00  0.00    -0.087 OA 
BRANCH  13  20
HETATM   20  C5* UNL     1      -7.256   5.161  71.187  1.00  0.00    -0.068 C  
HETATM   21  O5* UNL     1      -6.609   6.286  70.590  1.00  0.00    -0.042 OA 
HETATM   22  H5* UNL     1      -6.417   6.933  71.259  1.00  0.00     0.000 HD 
ENDBRANCH  13  20
ENDBRANCH   8  11
ENDBRANCH   2   6
TORSDOF 3
ENDMDL
MODEL      249
REMARK 921   NORMALIZED FREE ENERGY PREDICTED BY IDOCK:   -1.63 KCAL/MOL
REMARK 922        TOTAL FREE ENERGY PREDICTED BY IDOCK:   -2.85 KCAL/MOL
REMARK 923 INTER-LIGAND FREE ENERGY PREDICTED BY IDOCK:   -2.63 KCAL/MOL
REMARK 924 INTRA-LIGAND FREE ENERGY PREDICTED BY IDOCK:   -0.21 KCAL/MOL
REMARK 927      BINDING AFFINITY PREDICTED BY RF-SCORE:    0.00 PKD
ROOT
HETATM    1  N   UNL     1     -11.522   6.340  66.782  1.00  0.00    -0.687 N  
HETATM    2  C   UNL     1     -10.821   6.180  67.950  1.00  0.00    -0.319 C  
HETATM    3  H2  UNL     1     -12.503   6.614  66.816  1.00  0.00     0.000 HD 
HETATM    4  H1  UNL     1     -11.073   6.188  65.878  1.00  0.00     0.000 HD 
HETATM    5  O   UNL     1     -11.362   6.362  69.039  1.00  0.00    -0.355 OA 
ENDROOT
BRANCH   2   6
HETATM    6  C   UNL     1      -9.411   5.794  67.755  1.00  0.00    -0.112 A  
HETATM    7  N   UNL     1      -8.972   5.045  66.732  1.00  0.00    -0.113 NA 
HETATM    8  N   UNL     1      -7.671   4.889  67.029  1.00  0.00    -0.091 NA 
HETATM    9  C   UNL     1      -7.334   5.595  68.139  1.00  0.00    -0.073 A  
HETATM   10  N   UNL     1      -8.404   6.164  68.637  1.00  0.00    -0.114 NA 
BRANCH   8  11
HETATM   11  C1* UNL     1      -6.779   4.089  66.213  1.00  0.00    -0.053 C  
HETATM   12  O4* UNL     1      -6.140   4.958  65.250  1.00  0.00    -0.028 OA 
HETATM   13  C4* UNL     1      -6.837   4.826  63.993  1.00  0.00    -0.044 C  
HETATM   14  C3* UNL     1      -7.456   3.427  63.978  1.00  0.00    -0.067 C  
HETATM   15  H2* UNL     1      -7.013   1.055  65.095  1.00  0.00     0.000 HD 
HETATM   16  C2* UNL     1      -7.426   2.944  65.430  1.00  0.00    -0.072 C  
HETATM   17  H3* UNL     1      -7.073   1.644  63.164  1.00  0.00     0.000 HD 
HETATM   18  O3* UNL     1      -6.688   2.512  63.173  1.00  0.00    -0.025 OA 
HETATM   19  O2* UNL     1      -6.610   1.766  65.581  1.00  0.00    -0.023 OA 
BRANCH  13  20
HETATM   20  C5* UNL     1      -7.862   5.959  63.858  1.00  0.00    -0.119 C  
HETATM   21  O5* UNL     1      -8.997   5.489  63.129  1.00  0.00    -0.339 OA 
HETATM   22  H5* UNL     1      -9.632   6.190  63.045  1.00  0.00     0.000 HD 
ENDBRANCH  13  20
ENDBRANCH   8  11
ENDBRANCH   2   6
TORSDOF 3
ENDMDL
MODEL      250
REMARK 921   NORMALIZED FREE ENERGY PREDICTED BY IDOCK:   -1.61 KCAL/MOL
REMARK 922        TOTAL FREE ENERGY PREDICTED BY IDOCK:   -2.82 KCAL/MOL
REMARK 923 INTER-LIGAND FREE ENERGY PREDICTED BY IDOCK:   -2.29 KCAL/MOL
REMARK 924 INTRA-LIGAND FREE ENERGY PREDICTED BY IDOCK:   -0.52 KCAL/MOL
REMARK 927      BINDING AFFINITY PREDICTED BY RF-SCORE:    0.00 PKD
ROOT
HETATM    1  N   UNL     1      -9.112   7.930  65.904  1.00  0.00    -0.339 N  
HETATM    2  C   UNL     1      -8.961   6.749  66.585  1.00  0.00    -0.144 C  
HETATM    3  H2  UNL     1      -8.968   7.952  64.895  1.00  0.00     0.000 HD 
HETATM    4  H1  UNL     1      -9.366   8.788  66.395  1.00  0.00     0.000 HD 
HETATM    5  O   UNL     1      -8.655   5.716  65.994  1.00  0.00    -0.126 OA 
ENDROOT
BRANCH   2   6
HETATM    6  C   UNL     1      -9.209   6.857  68.035  1.00  0.00    -0.121 A  
HETATM    7  N   UNL     1      -8.402   7.506  68.888  1.00  0.00    -0.128 NA 
HETATM    8  N   UNL     1      -8.980   7.255  70.076  1.00  0.00    -0.142 NA 
HETATM    9  C   UNL     1     -10.136   6.559  69.921  1.00  0.00    -0.173 A  
HETATM   10  N   UNL     1     -10.307   6.274  68.654  1.00  0.00    -0.184 NA 
BRANCH   8  11
HETATM   11  C1* UNL     1      -8.417   7.724  71.327  1.00  0.00    -0.119 C  
HETATM   12  O4* UNL     1      -7.075   7.198  71.447  1.00  0.00    -0.064 OA 
HETATM   13  C4* UNL     1      -7.121   6.040  72.309  1.00  0.00    -0.084 C  
HETATM   14  C3* UNL     1      -8.321   6.231  73.239  1.00  0.00    -0.115 C  
HETATM   15  H2* UNL     1      -9.751   8.240  74.236  1.00  0.00     0.000 HD 
HETATM   16  C2* UNL     1      -9.174   7.327  72.596  1.00  0.00    -0.140 C  
HETATM   17  H3* UNL     1      -8.659   6.792  75.126  1.00  0.00     0.000 HD 
HETATM   18  O3* UNL     1      -7.915   6.673  74.549  1.00  0.00    -0.118 OA 
HETATM   19  O2* UNL     1      -9.280   8.486  73.448  1.00  0.00    -0.161 OA 
BRANCH  13  20
HETATM   20  C5* UNL     1      -7.199   4.771  71.452  1.00  0.00    -0.060 C  
HETATM   21  O5* UNL     1      -8.125   3.855  72.039  1.00  0.00    -0.076 OA 
HETATM   22  H5* UNL     1      -8.173   3.069  71.508  1.00  0.00     0.000 HD 
ENDBRANCH  13  20
ENDBRANCH   8  11
ENDBRANCH   2   6
TORSDOF 3
ENDMDL
MODEL      251
REMARK 921   NORMALIZED FREE ENERGY PREDICTED BY IDOCK:   -1.59 KCAL/MOL
REMARK 922        TOTAL FREE ENERGY PREDICTED BY IDOCK:   -2.80 KCAL/MOL
REMARK 923 INTER-LIGAND FREE ENERGY PREDICTED BY IDOCK:   -2.35 KCAL/MOL
REMARK 924 INTRA-LIGAND FREE ENERGY PREDICTED BY IDOCK:   -0.46 KCAL/MOL
REMARK 927      BINDING AFFINITY PREDICTED BY RF-SCORE:    0.00 PKD
ROOT
HETATM    1  N   UNL     1     -10.201   6.899  72.113  1.00  0.00    -0.192 N  
HETATM    2  C   UNL     1     -10.821   5.849  71.485  1.00  0.00    -0.266 C  
HETATM    3  H2  UNL     1     -10.318   7.025  73.118  1.00  0.00     0.000 HD 
HETATM    4  H1  UNL     1      -9.624   7.556  71.586  1.00  0.00     0.000 HD 
HETATM    5  O   UNL     1     -11.517   5.058  72.119  1.00  0.00     0.047 OA 
ENDROOT
BRANCH   2   6
HETATM    6  C   UNL     1     -10.559   5.778  70.036  1.00  0.00    -0.310 A  
HETATM    7  N   UNL     1      -9.463   5.223  69.497  1.00  0.00    -0.129 NA 
HETATM    8  N   UNL     1      -9.628   5.475  68.187  1.00  0.00    -0.115 NA 
HETATM    9  C   UNL     1     -10.823   6.076  67.951  1.00  0.00    -0.290 A  
HETATM   10  N   UNL     1     -11.431   6.301  69.089  1.00  0.00    -0.315 NA 
BRANCH   8  11
HETATM   11  C1* UNL     1      -8.642   5.097  67.194  1.00  0.00    -0.105 C  
HETATM   12  O4* UNL     1      -7.327   5.372  67.730  1.00  0.00    -0.071 OA 
HETATM   13  C4* UNL     1      -6.874   6.631  67.188  1.00  0.00    -0.069 C  
HETATM   14  C3* UNL     1      -7.577   6.809  65.841  1.00  0.00    -0.087 C  
HETATM   15  H2* UNL     1      -8.660   5.275  63.957  1.00  0.00     0.000 HD 
HETATM   16  C2* UNL     1      -8.738   5.811  65.844  1.00  0.00    -0.149 C  
HETATM   17  H3* UNL     1      -7.140   6.605  63.902  1.00  0.00     0.000 HD 
HETATM   18  O3* UNL     1      -6.704   6.495  64.738  1.00  0.00    -0.040 OA 
HETATM   19  O2* UNL     1      -8.600   4.831  64.795  1.00  0.00    -0.134 OA 
BRANCH  13  20
HETATM   20  C5* UNL     1      -7.168   7.752  68.192  1.00  0.00    -0.090 C  
HETATM   21  O5* UNL     1      -6.249   7.668  69.282  1.00  0.00    -0.033 OA 
HETATM   22  H5* UNL     1      -6.431   8.363  69.904  1.00  0.00     0.000 HD 
ENDBRANCH  13  20
ENDBRANCH   8  11
ENDBRANCH   2   6
TORSDOF 3
ENDMDL
MODEL      252
REMARK 921   NORMALIZED FREE ENERGY PREDICTED BY IDOCK:   -1.59 KCAL/MOL
REMARK 922        TOTAL FREE ENERGY PREDICTED BY IDOCK:   -2.80 KCAL/MOL
REMARK 923 INTER-LIGAND FREE ENERGY PREDICTED BY IDOCK:   -1.89 KCAL/MOL
REMARK 924 INTRA-LIGAND FREE ENERGY PREDICTED BY IDOCK:   -0.91 KCAL/MOL
REMARK 927      BINDING AFFINITY PREDICTED BY RF-SCORE:    0.00 PKD
ROOT
HETATM    1  N   UNL     1     -11.145  10.847  67.210  1.00  0.00    -0.303 N  
HETATM    2  C   UNL     1      -9.884  10.671  66.701  1.00  0.00    -0.201 C  
HETATM    3  H2  UNL     1     -11.542  11.785  67.261  1.00  0.00     0.000 HD 
HETATM    4  H1  UNL     1     -11.692  10.051  67.539  1.00  0.00     0.000 HD 
HETATM    5  O   UNL     1      -9.225  11.631  66.306  1.00  0.00    -0.209 OA 
ENDROOT
BRANCH   2   6
HETATM    6  C   UNL     1      -9.438   9.266  66.675  1.00  0.00    -0.191 A  
HETATM    7  N   UNL     1      -8.189   8.869  66.961  1.00  0.00    -0.106 NA 
HETATM    8  N   UNL     1      -8.245   7.548  66.718  1.00  0.00    -0.121 NA 
HETATM    9  C   UNL     1      -9.505   7.164  66.388  1.00  0.00    -0.123 A  
HETATM   10  N   UNL     1     -10.282   8.217  66.333  1.00  0.00    -0.190 NA 
BRANCH   8  11
HETATM   11  C1* UNL     1      -7.087   6.685  66.844  1.00  0.00    -0.069 C  
HETATM   12  O4* UNL     1      -6.016   7.242  66.046  1.00  0.00    -0.035 OA 
HETATM   13  C4* UNL     1      -5.971   6.528  64.792  1.00  0.00    -0.034 C  
HETATM   14  C3* UNL     1      -6.540   5.133  65.059  1.00  0.00    -0.043 C  
HETATM   15  H2* UNL     1      -6.810   3.467  67.114  1.00  0.00     0.000 HD 
HETATM   16  C2* UNL     1      -7.276   5.234  66.397  1.00  0.00    -0.077 C  
HETATM   17  H3* UNL     1      -5.849   3.281  65.346  1.00  0.00     0.000 HD 
HETATM   18  O3* UNL     1      -5.497   4.147  65.180  1.00  0.00    -0.012 OA 
HETATM   19  O2* UNL     1      -6.691   4.368  67.391  1.00  0.00    -0.046 OA 
BRANCH  13  20
HETATM   20  C5* UNL     1      -6.744   7.319  63.729  1.00  0.00    -0.052 C  
HETATM   21  O5* UNL     1      -6.821   8.691  64.118  1.00  0.00    -0.075 OA 
HETATM   22  H5* UNL     1      -7.299   9.181  63.459  1.00  0.00     0.000 HD 
ENDBRANCH  13  20
ENDBRANCH   8  11
ENDBRANCH   2   6
TORSDOF 3
ENDMDL
MODEL      253
REMARK 921   NORMALIZED FREE ENERGY PREDICTED BY IDOCK:   -1.56 KCAL/MOL
REMARK 922        TOTAL FREE ENERGY PREDICTED BY IDOCK:   -2.77 KCAL/MOL
REMARK 923 INTER-LIGAND FREE ENERGY PREDICTED BY IDOCK:   -2.24 KCAL/MOL
REMARK 924 INTRA-LIGAND FREE ENERGY PREDICTED BY IDOCK:   -0.53 KCAL/MOL
REMARK 927      BINDING AFFINITY PREDICTED BY RF-SCORE:    0.00 PKD
ROOT
HETATM    1  N   UNL     1      -8.364   7.364  66.510  1.00  0.00    -0.119 N  
HETATM    2  C   UNL     1      -8.485   6.072  66.956  1.00  0.00    -0.108 C  
HETATM    3  H2  UNL     1      -8.022   7.541  65.566  1.00  0.00     0.000 HD 
HETATM    4  H1  UNL     1      -8.611   8.150  67.112  1.00  0.00     0.000 HD 
HETATM    5  O   UNL     1      -8.187   5.125  66.232  1.00  0.00    -0.108 OA 
ENDROOT
BRANCH   2   6
HETATM    6  C   UNL     1      -9.000   5.960  68.334  1.00  0.00    -0.112 A  
HETATM    7  N   UNL     1      -8.280   6.245  69.429  1.00  0.00    -0.113 NA 
HETATM    8  N   UNL     1      -9.124   5.910  70.421  1.00  0.00    -0.146 NA 
HETATM    9  C   UNL     1     -10.330   5.526  69.929  1.00  0.00    -0.298 A  
HETATM   10  N   UNL     1     -10.288   5.527  68.620  1.00  0.00    -0.192 NA 
BRANCH   8  11
HETATM   11  C1* UNL     1      -8.753   6.001  71.820  1.00  0.00    -0.138 C  
HETATM   12  O4* UNL     1      -9.151   7.303  72.311  1.00  0.00    -0.131 OA 
HETATM   13  C4* UNL     1      -7.987   8.158  72.312  1.00  0.00    -0.135 C  
HETATM   14  C3* UNL     1      -6.769   7.244  72.463  1.00  0.00    -0.059 C  
HETATM   15  H2* UNL     1      -6.210   4.843  73.461  1.00  0.00     0.000 HD 
HETATM   16  C2* UNL     1      -7.266   5.833  72.135  1.00  0.00    -0.089 C  
HETATM   17  H3* UNL     1      -5.506   6.683  73.905  1.00  0.00     0.000 HD 
HETATM   18  O3* UNL     1      -6.261   7.251  73.811  1.00  0.00    -0.064 OA 
HETATM   19  O2* UNL     1      -7.134   4.947  73.265  1.00  0.00    -0.076 OA 
BRANCH  13  20
HETATM   20  C5* UNL     1      -7.973   8.999  71.030  1.00  0.00    -0.150 C  
HETATM   21  O5* UNL     1      -9.305   9.128  70.531  1.00  0.00    -0.200 OA 
HETATM   22  H5* UNL     1      -9.297   9.650  69.737  1.00  0.00     0.000 HD 
ENDBRANCH  13  20
ENDBRANCH   8  11
ENDBRANCH   2   6
TORSDOF 3
ENDMDL
MODEL      254
REMARK 921   NORMALIZED FREE ENERGY PREDICTED BY IDOCK:   -1.51 KCAL/MOL
REMARK 922        TOTAL FREE ENERGY PREDICTED BY IDOCK:   -2.71 KCAL/MOL
REMARK 923 INTER-LIGAND FREE ENERGY PREDICTED BY IDOCK:   -2.13 KCAL/MOL
REMARK 924 INTRA-LIGAND FREE ENERGY PREDICTED BY IDOCK:   -0.58 KCAL/MOL
REMARK 927      BINDING AFFINITY PREDICTED BY RF-SCORE:    0.00 PKD
ROOT
HETATM    1  N   UNL     1     -11.398   6.107  66.982  1.00  0.00    -0.573 N  
HETATM    2  C   UNL     1     -10.755   6.173  68.192  1.00  0.00    -0.294 C  
HETATM    3  H2  UNL     1     -12.416   6.157  66.949  1.00  0.00     0.000 HD 
HETATM    4  H1  UNL     1     -10.870   6.010  66.115  1.00  0.00     0.000 HD 
HETATM    5  O   UNL     1     -11.392   6.290  69.237  1.00  0.00    -0.410 OA 
ENDROOT
BRANCH   2   6
HETATM    6  C   UNL     1      -9.286   6.102  68.096  1.00  0.00    -0.117 A  
HETATM    7  N   UNL     1      -8.622   5.790  66.973  1.00  0.00    -0.111 NA 
HETATM    8  N   UNL     1      -7.345   5.763  67.392  1.00  0.00    -0.076 NA 
HETATM    9  C   UNL     1      -7.250   6.135  68.696  1.00  0.00    -0.084 A  
HETATM   10  N   UNL     1      -8.450   6.339  69.180  1.00  0.00    -0.120 NA 
BRANCH   8  11
HETATM   11  C1* UNL     1      -6.246   5.412  66.515  1.00  0.00    -0.035 C  
HETATM   12  O4* UNL     1      -5.549   6.627  66.151  1.00  0.00    -0.017 OA 
HETATM   13  C4* UNL     1      -6.003   7.030  64.840  1.00  0.00    -0.037 C  
HETATM   14  C3* UNL     1      -6.456   5.758  64.121  1.00  0.00    -0.033 C  
HETATM   15  H2* UNL     1      -5.958   3.148  64.214  1.00  0.00     0.000 HD 
HETATM   16  C2* UNL     1      -6.623   4.700  65.214  1.00  0.00    -0.047 C  
HETATM   17  H3* UNL     1      -5.750   4.507  62.734  1.00  0.00     0.000 HD 
HETATM   18  O3* UNL     1      -5.468   5.296  63.180  1.00  0.00    -0.013 OA 
HETATM   19  O2* UNL     1      -5.723   3.590  65.021  1.00  0.00    -0.016 OA 
BRANCH  13  20
HETATM   20  C5* UNL     1      -7.105   8.086  64.986  1.00  0.00    -0.067 C  
HETATM   21  O5* UNL     1      -6.922   8.799  66.210  1.00  0.00    -0.079 OA 
HETATM   22  H5* UNL     1      -7.605   9.453  66.301  1.00  0.00     0.000 HD 
ENDBRANCH  13  20
ENDBRANCH   8  11
ENDBRANCH   2   6
TORSDOF 3
ENDMDL
MODEL      255
REMARK 921   NORMALIZED FREE ENERGY PREDICTED BY IDOCK:   -1.37 KCAL/MOL
REMARK 922        TOTAL FREE ENERGY PREDICTED BY IDOCK:   -2.54 KCAL/MOL
REMARK 923 INTER-LIGAND FREE ENERGY PREDICTED BY IDOCK:   -2.20 KCAL/MOL
REMARK 924 INTRA-LIGAND FREE ENERGY PREDICTED BY IDOCK:   -0.34 KCAL/MOL
REMARK 927      BINDING AFFINITY PREDICTED BY RF-SCORE:    0.00 PKD
ROOT
HETATM    1  N   UNL     1     -11.272  10.192  67.180  1.00  0.00    -0.159 N  
HETATM    2  C   UNL     1     -10.012   9.658  67.082  1.00  0.00    -0.194 C  
HETATM    3  H2  UNL     1     -11.434  11.158  66.894  1.00  0.00     0.000 HD 
HETATM    4  H1  UNL     1     -12.050   9.635  67.534  1.00  0.00     0.000 HD 
HETATM    5  O   UNL     1      -9.075  10.330  66.656  1.00  0.00    -0.142 OA 
ENDROOT
BRANCH   2   6
HETATM    6  C   UNL     1      -9.922   8.252  67.517  1.00  0.00    -0.193 A  
HETATM    7  N   UNL     1      -8.901   7.750  68.228  1.00  0.00    -0.130 NA 
HETATM    8  N   UNL     1      -9.215   6.445  68.299  1.00  0.00    -0.114 NA 
HETATM    9  C   UNL     1     -10.423   6.201  67.729  1.00  0.00    -0.231 A  
HETATM   10  N   UNL     1     -10.893   7.308  67.209  1.00  0.00    -0.306 NA 
BRANCH   8  11
HETATM   11  C1* UNL     1      -8.355   5.474  68.946  1.00  0.00    -0.102 C  
HETATM   12  O4* UNL     1      -7.211   5.239  68.093  1.00  0.00    -0.068 OA 
HETATM   13  C4* UNL     1      -7.443   4.018  67.356  1.00  0.00    -0.068 C  
HETATM   14  C3* UNL     1      -8.381   3.161  68.209  1.00  0.00    -0.078 C  
HETATM   15  H2* UNL     1      -9.020   2.882  70.776  1.00  0.00     0.000 HD 
HETATM   16  C2* UNL     1      -8.984   4.112  69.246  1.00  0.00    -0.109 C  
HETATM   17  H3* UNL     1      -8.250   1.586  69.431  1.00  0.00     0.000 HD 
HETATM   18  O3* UNL     1      -7.668   2.118  68.901  1.00  0.00    -0.046 OA 
HETATM   19  O2* UNL     1      -8.628   3.727  70.590  1.00  0.00    -0.068 OA 
BRANCH  13  20
HETATM   20  C5* UNL     1      -8.005   4.359  65.971  1.00  0.00    -0.099 C  
HETATM   21  O5* UNL     1      -8.399   3.157  65.308  1.00  0.00    -0.093 OA 
HETATM   22  H5* UNL     1      -8.747   3.367  64.449  1.00  0.00     0.000 HD 
ENDBRANCH  13  20
ENDBRANCH   8  11
ENDBRANCH   2   6
TORSDOF 3
ENDMDL
MODEL      256
REMARK 921   NORMALIZED FREE ENERGY PREDICTED BY IDOCK:   -1.37 KCAL/MOL
REMARK 922        TOTAL FREE ENERGY PREDICTED BY IDOCK:   -2.54 KCAL/MOL
REMARK 923 INTER-LIGAND FREE ENERGY PREDICTED BY IDOCK:   -2.94 KCAL/MOL
REMARK 924 INTRA-LIGAND FREE ENERGY PREDICTED BY IDOCK:    0.40 KCAL/MOL
REMARK 927      BINDING AFFINITY PREDICTED BY RF-SCORE:    0.00 PKD
ROOT
HETATM    1  N   UNL     1     -10.144   2.032  73.371  1.00  0.00    -0.093 N  
HETATM    2  C   UNL     1      -9.697   2.820  72.340  1.00  0.00    -0.144 C  
HETATM    3  H2  UNL     1      -9.738   1.107  73.509  1.00  0.00     0.000 HD 
HETATM    4  H1  UNL     1     -10.876   2.361  74.001  1.00  0.00     0.000 HD 
HETATM    5  O   UNL     1      -8.815   2.424  71.581  1.00  0.00    -0.070 OA 
ENDROOT
BRANCH   2   6
HETATM    6  C   UNL     1     -10.359   4.135  72.261  1.00  0.00    -0.127 A  
HETATM    7  N   UNL     1     -10.762   4.705  71.116  1.00  0.00     0.127 NA 
HETATM    8  N   UNL     1     -11.211   5.902  71.532  1.00  0.00    -0.257 NA 
HETATM    9  C   UNL     1     -11.158   6.000  72.886  1.00  0.00    -0.255 A  
HETATM   10  N   UNL     1     -10.612   4.917  73.381  1.00  0.00    -0.213 NA 
BRANCH   8  11
HETATM   11  C1* UNL     1     -11.710   6.907  70.615  1.00  0.00    -0.367 C  
HETATM   12  O4* UNL     1     -11.900   6.288  69.321  1.00  0.00    -0.102 OA 
HETATM   13  C4* UNL     1     -10.758   6.610  68.497  1.00  0.00    -0.256 C  
HETATM   14  C3* UNL     1     -10.200   7.936  69.016  1.00  0.00    -0.209 C  
HETATM   15  H2* UNL     1     -11.081  10.074  70.330  1.00  0.00     0.000 HD 
HETATM   16  C2* UNL     1     -10.816   8.131  70.404  1.00  0.00    -0.236 C  
HETATM   17  H3* UNL     1     -10.246   9.866  68.503  1.00  0.00     0.000 HD 
HETATM   18  O3* UNL     1     -10.592   9.043  68.181  1.00  0.00    -0.219 OA 
HETATM   19  O2* UNL     1     -11.637   9.314  70.461  1.00  0.00    -0.267 OA 
BRANCH  13  20
HETATM   20  C5* UNL     1      -9.753   5.453  68.547  1.00  0.00    -0.137 C  
HETATM   21  O5* UNL     1      -9.299   5.160  67.225  1.00  0.00    -0.116 OA 
HETATM   22  H5* UNL     1      -8.675   4.443  67.256  1.00  0.00     0.000 HD 
ENDBRANCH  13  20
ENDBRANCH   8  11
ENDBRANCH   2   6
TORSDOF 3
ENDMDL
MODEL      257
REMARK 921   NORMALIZED FREE ENERGY PREDICTED BY IDOCK:   -1.24 KCAL/MOL
REMARK 922        TOTAL FREE ENERGY PREDICTED BY IDOCK:   -2.39 KCAL/MOL
REMARK 923 INTER-LIGAND FREE ENERGY PREDICTED BY IDOCK:   -1.82 KCAL/MOL
REMARK 924 INTRA-LIGAND FREE ENERGY PREDICTED BY IDOCK:   -0.57 KCAL/MOL
REMARK 927      BINDING AFFINITY PREDICTED BY RF-SCORE:    0.00 PKD
ROOT
HETATM    1  N   UNL     1     -11.000   6.078  66.817  1.00  0.00    -0.641 N  
HETATM    2  C   UNL     1     -10.821   6.255  68.165  1.00  0.00    -0.320 C  
HETATM    3  H2  UNL     1     -11.945   6.025  66.437  1.00  0.00     0.000 HD 
HETATM    4  H1  UNL     1     -10.200   5.998  66.189  1.00  0.00     0.000 HD 
HETATM    5  O   UNL     1     -11.785   6.350  68.921  1.00  0.00    -0.096 OA 
ENDROOT
BRANCH   2   6
HETATM    6  C   UNL     1      -9.407   6.325  68.578  1.00  0.00    -0.121 A  
HETATM    7  N   UNL     1      -8.704   5.276  69.030  1.00  0.00    -0.099 NA 
HETATM    8  N   UNL     1      -7.527   5.838  69.356  1.00  0.00    -0.078 NA 
HETATM    9  C   UNL     1      -7.505   7.155  69.024  1.00  0.00    -0.094 A  
HETATM   10  N   UNL     1      -8.674   7.505  68.548  1.00  0.00    -0.128 NA 
BRANCH   8  11
HETATM   11  C1* UNL     1      -6.442   5.081  69.949  1.00  0.00    -0.035 C  
HETATM   12  O4* UNL     1      -5.581   4.612  68.886  1.00  0.00    -0.011 OA 
HETATM   13  C4* UNL     1      -5.919   3.236  68.608  1.00  0.00    -0.024 C  
HETATM   14  C3* UNL     1      -6.497   2.655  69.899  1.00  0.00    -0.029 C  
HETATM   15  H2* UNL     1      -6.339   3.104  72.516  1.00  0.00     0.000 HD 
HETATM   16  C2* UNL     1      -6.847   3.859  70.777  1.00  0.00    -0.033 C  
HETATM   17  H3* UNL     1      -5.892   1.481  71.399  1.00  0.00     0.000 HD 
HETATM   18  O3* UNL     1      -5.533   1.842  70.597  1.00  0.00    -0.007 OA 
HETATM   19  O2* UNL     1      -6.087   3.863  72.002  1.00  0.00    -0.012 OA 
BRANCH  13  20
HETATM   20  C5* UNL     1      -6.883   3.180  67.417  1.00  0.00    -0.046 C  
HETATM   21  O5* UNL     1      -6.751   4.372  66.641  1.00  0.00    -0.048 OA 
HETATM   22  H5* UNL     1      -7.349   4.337  65.903  1.00  0.00     0.000 HD 
ENDBRANCH  13  20
ENDBRANCH   8  11
ENDBRANCH   2   6
TORSDOF 3
ENDMDL
MODEL      258
REMARK 921   NORMALIZED FREE ENERGY PREDICTED BY IDOCK:   -1.12 KCAL/MOL
REMARK 922        TOTAL FREE ENERGY PREDICTED BY IDOCK:   -2.25 KCAL/MOL
REMARK 923 INTER-LIGAND FREE ENERGY PREDICTED BY IDOCK:   -2.12 KCAL/MOL
REMARK 924 INTRA-LIGAND FREE ENERGY PREDICTED BY IDOCK:   -0.12 KCAL/MOL
REMARK 927      BINDING AFFINITY PREDICTED BY RF-SCORE:    0.00 PKD
ROOT
HETATM    1  N   UNL     1     -11.296  10.264  67.136  1.00  0.00    -0.067 N  
HETATM    2  C   UNL     1      -9.982  10.201  67.525  1.00  0.00    -0.191 C  
HETATM    3  H2  UNL     1     -11.551  10.802  66.308  1.00  0.00     0.000 HD 
HETATM    4  H1  UNL     1     -12.022   9.778  67.664  1.00  0.00     0.000 HD 
HETATM    5  O   UNL     1      -9.108  10.786  66.889  1.00  0.00    -0.147 OA 
ENDROOT
BRANCH   2   6
HETATM    6  C   UNL     1      -9.753   9.381  68.729  1.00  0.00    -0.156 A  
HETATM    7  N   UNL     1      -9.008   9.773  69.774  1.00  0.00    -0.208 NA 
HETATM    8  N   UNL     1      -9.019   8.683  70.560  1.00  0.00    -0.153 NA 
HETATM    9  C   UNL     1      -9.817   7.713  70.040  1.00  0.00    -0.180 A  
HETATM   10  N   UNL     1     -10.283   8.106  68.881  1.00  0.00    -0.207 NA 
BRANCH   8  11
HETATM   11  C1* UNL     1      -8.287   8.618  71.809  1.00  0.00    -0.139 C  
HETATM   12  O4* UNL     1      -6.927   8.217  71.519  1.00  0.00    -0.052 OA 
HETATM   13  C4* UNL     1      -6.810   6.802  71.784  1.00  0.00    -0.069 C  
HETATM   14  C3* UNL     1      -7.859   6.465  72.846  1.00  0.00    -0.103 C  
HETATM   15  H2* UNL     1      -9.177   7.711  74.790  1.00  0.00     0.000 HD 
HETATM   16  C2* UNL     1      -8.831   7.648  72.860  1.00  0.00    -0.160 C  
HETATM   17  H3* UNL     1      -7.922   6.128  74.813  1.00  0.00     0.000 HD 
HETATM   18  O3* UNL     1      -7.271   6.337  74.155  1.00  0.00    -0.086 OA 
HETATM   19  O2* UNL     1      -8.839   8.314  74.138  1.00  0.00    -0.130 OA 
BRANCH  13  20
HETATM   20  C5* UNL     1      -6.981   6.023  70.475  1.00  0.00    -0.059 C  
HETATM   21  O5* UNL     1      -6.122   4.882  70.485  1.00  0.00    -0.017 OA 
HETATM   22  H5* UNL     1      -6.228   4.398  69.674  1.00  0.00     0.000 HD 
ENDBRANCH  13  20
ENDBRANCH   8  11
ENDBRANCH   2   6
TORSDOF 3
ENDMDL
MODEL      259
REMARK 921   NORMALIZED FREE ENERGY PREDICTED BY IDOCK:   -1.03 KCAL/MOL
REMARK 922        TOTAL FREE ENERGY PREDICTED BY IDOCK:   -2.14 KCAL/MOL
REMARK 923 INTER-LIGAND FREE ENERGY PREDICTED BY IDOCK:   -1.75 KCAL/MOL
REMARK 924 INTRA-LIGAND FREE ENERGY PREDICTED BY IDOCK:   -0.39 KCAL/MOL
REMARK 927      BINDING AFFINITY PREDICTED BY RF-SCORE:    0.00 PKD
ROOT
HETATM    1  N   UNL     1      -5.656  12.457  69.561  1.00  0.00    -0.081 N  
HETATM    2  C   UNL     1      -5.859  11.497  68.602  1.00  0.00    -0.042 C  
HETATM    3  H2  UNL     1      -4.975  13.198  69.396  1.00  0.00     0.000 HD 
HETATM    4  H1  UNL     1      -6.178  12.439  70.437  1.00  0.00     0.000 HD 
HETATM    5  O   UNL     1      -5.229  11.519  67.547  1.00  0.00    -0.045 OA 
ENDROOT
BRANCH   2   6
HETATM    6  C   UNL     1      -6.877  10.494  68.964  1.00  0.00    -0.068 A  
HETATM    7  N   UNL     1      -7.289   9.514  68.147  1.00  0.00    -0.078 NA 
HETATM    8  N   UNL     1      -8.263   8.930  68.866  1.00  0.00    -0.116 NA 
HETATM    9  C   UNL     1      -8.362   9.489  70.100  1.00  0.00    -0.192 A  
HETATM   10  N   UNL     1      -7.520  10.488  70.196  1.00  0.00    -0.144 NA 
BRANCH   8  11
HETATM   11  C1* UNL     1      -9.051   7.826  68.355  1.00  0.00    -0.131 C  
HETATM   12  O4* UNL     1      -9.428   6.982  69.468  1.00  0.00    -0.148 OA 
HETATM   13  C4* UNL     1      -8.523   5.857  69.506  1.00  0.00    -0.114 C  
HETATM   14  C3* UNL     1      -8.027   5.642  68.075  1.00  0.00    -0.097 C  
HETATM   15  H2* UNL     1      -8.862   6.132  65.598  1.00  0.00     0.000 HD 
HETATM   16  C2* UNL     1      -8.365   6.931  67.320  1.00  0.00    -0.121 C  
HETATM   17  H3* UNL     1      -8.397   4.410  66.547  1.00  0.00     0.000 HD 
HETATM   18  O3* UNL     1      -8.705   4.543  67.435  1.00  0.00    -0.104 OA 
HETATM   19  O2* UNL     1      -9.288   6.687  66.240  1.00  0.00    -0.162 OA 
BRANCH  13  20
HETATM   20  C5* UNL     1      -7.401   6.140  70.513  1.00  0.00    -0.085 C  
HETATM   21  O5* UNL     1      -6.236   5.400  70.149  1.00  0.00    -0.021 OA 
HETATM   22  H5* UNL     1      -5.541   5.575  70.773  1.00  0.00     0.000 HD 
ENDBRANCH  13  20
ENDBRANCH   8  11
ENDBRANCH   2   6
TORSDOF 3
ENDMDL
MODEL      260
REMARK 921   NORMALIZED FREE ENERGY PREDICTED BY IDOCK:   -0.36 KCAL/MOL
REMARK 922        TOTAL FREE ENERGY PREDICTED BY IDOCK:   -1.36 KCAL/MOL
REMARK 923 INTER-LIGAND FREE ENERGY PREDICTED BY IDOCK:   -1.11 KCAL/MOL
REMARK 924 INTRA-LIGAND FREE ENERGY PREDICTED BY IDOCK:   -0.25 KCAL/MOL
REMARK 927      BINDING AFFINITY PREDICTED BY RF-SCORE:    0.00 PKD
ROOT
HETATM    1  N   UNL     1      -6.487  11.641  71.527  1.00  0.00     1.634 N  
HETATM    2  C   UNL     1      -6.189  11.520  70.194  1.00  0.00    -0.132 C  
HETATM    3  H2  UNL     1      -5.841  12.130  72.146  1.00  0.00     0.000 HD 
HETATM    4  H1  UNL     1      -7.349  11.248  71.908  1.00  0.00     0.000 HD 
HETATM    5  O   UNL     1      -5.151  11.994  69.736  1.00  0.00    -0.068 OA 
ENDROOT
BRANCH   2   6
HETATM    6  C   UNL     1      -7.212  10.801  69.413  1.00  0.00    -0.132 A  
HETATM    7  N   UNL     1      -8.419  11.305  69.114  1.00  0.00     0.016 NA 
HETATM    8  N   UNL     1      -9.013  10.275  68.487  1.00  0.00    -0.129 NA 
HETATM    9  C   UNL     1      -8.156   9.231  68.342  1.00  0.00    -0.106 A  
HETATM   10  N   UNL     1      -7.018   9.515  68.927  1.00  0.00    -0.062 NA 
BRANCH   8  11
HETATM   11  C1* UNL     1     -10.382  10.338  68.015  1.00  0.00    -0.181 C  
HETATM   12  O4* UNL     1     -10.529   9.402  66.922  1.00  0.00    -0.245 OA 
HETATM   13  C4* UNL     1     -10.441  10.139  65.683  1.00  0.00    -0.033 C  
HETATM   14  C3* UNL     1     -10.902  11.566  65.986  1.00  0.00    -0.276 C  
HETATM   15  H2* UNL     1     -12.462  12.809  67.746  1.00  0.00     0.000 HD 
HETATM   16  C2* UNL     1     -10.859  11.702  67.511  1.00  0.00    -0.237 C  
HETATM   17  H3* UNL     1     -12.541  12.680  65.731  1.00  0.00     0.000 HD 
HETATM   18  O3* UNL     1     -12.254  11.795  65.543  1.00  0.00    -0.280 OA 
HETATM   19  O2* UNL     1     -12.167  11.962  68.059  1.00  0.00    -0.491 OA 
BRANCH  13  20
HETATM   20  C5* UNL     1      -9.009  10.054  65.142  1.00  0.00    -0.192 C  
HETATM   21  O5* UNL     1      -8.998  10.427  63.763  1.00  0.00    -0.192 OA 
HETATM   22  H5* UNL     1      -8.111  10.375  63.427  1.00  0.00     0.000 HD 
ENDBRANCH  13  20
ENDBRANCH   8  11
ENDBRANCH   2   6
TORSDOF 3
ENDMDL
MODEL      261
REMARK 921   NORMALIZED FREE ENERGY PREDICTED BY IDOCK:   -0.22 KCAL/MOL
REMARK 922        TOTAL FREE ENERGY PREDICTED BY IDOCK:   -1.19 KCAL/MOL
REMARK 923 INTER-LIGAND FREE ENERGY PREDICTED BY IDOCK:   -0.73 KCAL/MOL
REMARK 924 INTRA-LIGAND FREE ENERGY PREDICTED BY IDOCK:   -0.46 KCAL/MOL
REMARK 927      BINDING AFFINITY PREDICTED BY RF-SCORE:    0.00 PKD
ROOT
HETATM    1  N   UNL     1      -9.358  17.935  65.137  1.00  0.00     1.825 N  
HETATM    2  C   UNL     1     -10.158  16.841  65.344  1.00  0.00     0.024 C  
HETATM    3  H2  UNL     1      -9.436  18.459  64.265  1.00  0.00     0.000 HD 
HETATM    4  H1  UNL     1      -8.685  18.233  65.844  1.00  0.00     0.000 HD 
HETATM    5  O   UNL     1     -10.968  16.483  64.491  1.00  0.00    -0.827 OA 
ENDROOT
BRANCH   2   6
HETATM    6  C   UNL     1      -9.952  16.185  66.648  1.00  0.00    -0.260 A  
HETATM    7  N   UNL     1     -10.922  15.993  67.554  1.00  0.00    -0.300 NA 
HETATM    8  N   UNL     1     -10.249  15.457  68.586  1.00  0.00    -0.212 NA 
HETATM    9  C   UNL     1      -8.943  15.256  68.268  1.00  0.00    -0.176 A  
HETATM   10  N   UNL     1      -8.712  15.717  67.064  1.00  0.00    -0.211 NA 
BRANCH   8  11
HETATM   11  C1* UNL     1     -10.890  15.121  69.842  1.00  0.00    -0.270 C  
HETATM   12  O4* UNL     1     -10.550  13.755  70.176  1.00  0.00     0.544 OA 
HETATM   13  C4* UNL     1     -11.655  12.909  69.791  1.00  0.00    -0.218 C  
HETATM   14  C3* UNL     1     -12.913  13.778  69.841  1.00  0.00     0.467 C  
HETATM   15  H2* UNL     1     -13.757  15.966  71.096  1.00  0.00     0.000 HD 
HETATM   16  C2* UNL     1     -12.417  15.226  69.868  1.00  0.00    -0.240 C  
HETATM   17  H3* UNL     1     -14.464  14.073  71.065  1.00  0.00     0.000 HD 
HETATM   18  O3* UNL     1     -13.683  13.534  71.034  1.00  0.00     0.051 OA 
HETATM   19  O2* UNL     1     -12.810  15.900  71.080  1.00  0.00    -0.467 OA 
BRANCH  13  20
HETATM   20  C5* UNL     1     -11.375  12.304  68.410  1.00  0.00    -0.292 C  
HETATM   21  O5* UNL     1     -10.650  11.083  68.563  1.00  0.00    -0.171 OA 
HETATM   22  H5* UNL     1     -10.476  10.708  67.708  1.00  0.00     0.000 HD 
ENDBRANCH  13  20
ENDBRANCH   8  11
ENDBRANCH   2   6
TORSDOF 3
ENDMDL
MODEL      262
REMARK 921   NORMALIZED FREE ENERGY PREDICTED BY IDOCK:    0.24 KCAL/MOL
REMARK 922        TOTAL FREE ENERGY PREDICTED BY IDOCK:   -0.65 KCAL/MOL
REMARK 923 INTER-LIGAND FREE ENERGY PREDICTED BY IDOCK:   -1.12 KCAL/MOL
REMARK 924 INTRA-LIGAND FREE ENERGY PREDICTED BY IDOCK:    0.46 KCAL/MOL
REMARK 927      BINDING AFFINITY PREDICTED BY RF-SCORE:    0.00 PKD
ROOT
HETATM    1  N   UNL     1     -10.994   5.835  65.823  1.00  0.00    -0.182 N  
HETATM    2  C   UNL     1     -10.882   6.260  67.122  1.00  0.00    -0.381 C  
HETATM    3  H2  UNL     1     -11.917   5.651  65.430  1.00  0.00     0.000 HD 
HETATM    4  H1  UNL     1     -10.165   5.699  65.244  1.00  0.00     0.000 HD 
HETATM    5  O   UNL     1     -11.881   6.422  67.820  1.00  0.00     0.671 OA 
ENDROOT
BRANCH   2   6
HETATM    6  C   UNL     1      -9.493   6.498  67.557  1.00  0.00    -0.125 A  
HETATM    7  N   UNL     1      -8.858   5.757  68.477  1.00  0.00    -0.110 NA 
HETATM    8  N   UNL     1      -7.682   6.398  68.600  1.00  0.00    -0.100 NA 
HETATM    9  C   UNL     1      -7.593   7.428  67.719  1.00  0.00    -0.107 A  
HETATM   10  N   UNL     1      -8.718   7.536  67.056  1.00  0.00    -0.124 NA 
BRANCH   8  11
HETATM   11  C1* UNL     1      -6.664   5.979  69.542  1.00  0.00    -0.056 C  
HETATM   12  O4* UNL     1      -6.952   4.621  69.950  1.00  0.00    -0.046 OA 
HETATM   13  C4* UNL     1      -7.617   4.669  71.231  1.00  0.00    -0.080 C  
HETATM   14  C3* UNL     1      -7.156   5.955  71.919  1.00  0.00    -0.083 C  
HETATM   15  H2* UNL     1      -5.061   7.593  71.851  1.00  0.00     0.000 HD 
HETATM   16  C2* UNL     1      -6.537   6.818  70.815  1.00  0.00    -0.053 C  
HETATM   17  H3* UNL     1      -5.863   6.494  73.344  1.00  0.00     0.000 HD 
HETATM   18  O3* UNL     1      -6.150   5.695  72.917  1.00  0.00    -0.044 OA 
HETATM   19  O2* UNL     1      -5.139   7.072  71.060  1.00  0.00    -0.022 OA 
BRANCH  13  20
HETATM   20  C5* UNL     1      -9.134   4.590  71.021  1.00  0.00    -0.132 C  
HETATM   21  O5* UNL     1      -9.518   3.226  70.837  1.00  0.00    -0.142 OA 
HETATM   22  H5* UNL     1     -10.458   3.177  70.707  1.00  0.00     0.000 HD 
ENDBRANCH  13  20
ENDBRANCH   8  11
ENDBRANCH   2   6
TORSDOF 3
ENDMDL
MODEL      263
REMARK 921   NORMALIZED FREE ENERGY PREDICTED BY IDOCK:    1.31 KCAL/MOL
REMARK 922        TOTAL FREE ENERGY PREDICTED BY IDOCK:    0.61 KCAL/MOL
REMARK 923 INTER-LIGAND FREE ENERGY PREDICTED BY IDOCK:    0.85 KCAL/MOL
REMARK 924 INTRA-LIGAND FREE ENERGY PREDICTED BY IDOCK:   -0.25 KCAL/MOL
REMARK 927      BINDING AFFINITY PREDICTED BY RF-SCORE:    0.00 PKD
ROOT
HETATM    1  N   UNL     1     -11.382  20.653  69.470  1.00  0.00     1.097 N  
HETATM    2  C   UNL     1     -10.182  20.367  70.070  1.00  0.00     0.681 C  
HETATM    3  H2  UNL     1     -12.212  20.796  70.045  1.00  0.00     0.000 HD 
HETATM    4  H1  UNL     1     -11.455  20.725  68.455  1.00  0.00     0.000 HD 
HETATM    5  O   UNL     1     -10.095  20.281  71.293  1.00  0.00     1.412 OA 
ENDROOT
BRANCH   2   6
HETATM    6  C   UNL     1      -9.065  20.196  69.124  1.00  0.00     0.378 A  
HETATM    7  N   UNL     1      -9.191  20.272  67.791  1.00  0.00    -0.312 NA 
HETATM    8  N   UNL     1      -7.953  19.964  67.367  1.00  0.00    -0.278 NA 
HETATM    9  C   UNL     1      -7.103  19.802  68.415  1.00  0.00    -0.306 A  
HETATM   10  N   UNL     1      -7.767  19.922  69.538  1.00  0.00     0.014 NA 
BRANCH   8  11
HETATM   11  C1* UNL     1      -7.615  19.869  65.961  1.00  0.00    -0.325 C  
HETATM   12  O4* UNL     1      -7.986  18.552  65.492  1.00  0.00    -0.369 OA 
HETATM   13  C4* UNL     1      -6.799  17.730  65.471  1.00  0.00     0.088 C  
HETATM   14  C3* UNL     1      -5.612  18.677  65.281  1.00  0.00    -0.208 C  
HETATM   15  H2* UNL     1      -5.146  21.082  64.246  1.00  0.00     0.000 HD 
HETATM   16  C2* UNL     1      -6.140  20.076  65.607  1.00  0.00    -0.192 C  
HETATM   17  H3* UNL     1      -4.401  19.258  63.802  1.00  0.00     0.000 HD 
HETATM   18  O3* UNL     1      -5.137  18.670  63.920  1.00  0.00    -0.158 OA 
HETATM   19  O2* UNL     1      -6.062  20.953  64.465  1.00  0.00    -0.270 OA 
BRANCH  13  20
HETATM   20  C5* UNL     1      -6.730  16.903  66.760  1.00  0.00    -0.227 C  
HETATM   21  O5* UNL     1      -8.010  16.328  67.026  1.00  0.00    -0.171 OA 
HETATM   22  H5* UNL     1      -7.968  15.815  67.825  1.00  0.00     0.000 HD 
ENDBRANCH  13  20
ENDBRANCH   8  11
ENDBRANCH   2   6
TORSDOF 3
ENDMDL
MODEL      264
REMARK 921   NORMALIZED FREE ENERGY PREDICTED BY IDOCK:    3.77 KCAL/MOL
REMARK 922        TOTAL FREE ENERGY PREDICTED BY IDOCK:    3.50 KCAL/MOL
REMARK 923 INTER-LIGAND FREE ENERGY PREDICTED BY IDOCK:    1.81 KCAL/MOL
REMARK 924 INTRA-LIGAND FREE ENERGY PREDICTED BY IDOCK:    1.70 KCAL/MOL
REMARK 927      BINDING AFFINITY PREDICTED BY RF-SCORE:    0.00 PKD
ROOT
HETATM    1  N   UNL     1      -6.743  12.493  69.827  1.00  0.00    -0.354 N  
HETATM    2  C   UNL     1      -7.104  11.436  69.030  1.00  0.00    -0.117 C  
HETATM    3  H2  UNL     1      -6.009  13.130  69.517  1.00  0.00     0.000 HD 
HETATM    4  H1  UNL     1      -7.201  12.651  70.724  1.00  0.00     0.000 HD 
HETATM    5  O   UNL     1      -6.551  11.246  67.949  1.00  0.00    -0.057 OA 
ENDROOT
BRANCH   2   6
HETATM    6  C   UNL     1      -8.184  10.604  69.591  1.00  0.00     0.064 A  
HETATM    7  N   UNL     1      -8.913   9.737  68.873  1.00  0.00    -0.138 NA 
HETATM    8  N   UNL     1      -9.807   9.297  69.776  1.00  0.00    -0.178 NA 
HETATM    9  C   UNL     1      -9.558   9.818  71.005  1.00  0.00     0.301 A  
HETATM   10  N   UNL     1      -8.556  10.659  70.928  1.00  0.00     2.083 NA 
BRANCH   8  11
HETATM   11  C1* UNL     1     -10.858   8.359  69.435  1.00  0.00    -0.082 C  
HETATM   12  O4* UNL     1     -12.073   8.776  70.100  1.00  0.00     0.213 OA 
HETATM   13  C4* UNL     1     -12.230   7.975  71.292  1.00  0.00    -0.287 C  
HETATM   14  C3* UNL     1     -11.513   6.649  71.029  1.00  0.00    -0.330 C  
HETATM   15  H2* UNL     1     -10.818   5.156  68.941  1.00  0.00     0.000 HD 
HETATM   16  C2* UNL     1     -10.609   6.899  69.819  1.00  0.00    -0.233 C  
HETATM   17  H3* UNL     1     -11.995   4.774  70.539  1.00  0.00     0.000 HD 
HETATM   18  O3* UNL     1     -12.440   5.597  70.702  1.00  0.00     1.712 OA 
HETATM   19  O2* UNL     1     -10.973   6.062  68.703  1.00  0.00    -0.301 OA 
BRANCH  13  20
HETATM   20  C5* UNL     1     -11.683   8.746  72.499  1.00  0.00    -0.171 C  
HETATM   21  O5* UNL     1     -10.343   8.329  72.763  1.00  0.00    -0.318 OA 
HETATM   22  H5* UNL     1     -10.004   8.807  73.511  1.00  0.00     0.000 HD 
ENDBRANCH  13  20
ENDBRANCH   8  11
ENDBRANCH   2   6
TORSDOF 3
ENDMDL
MODEL      265
REMARK 921   NORMALIZED FREE ENERGY PREDICTED BY IDOCK:    5.11 KCAL/MOL
REMARK 922        TOTAL FREE ENERGY PREDICTED BY IDOCK:    5.07 KCAL/MOL
REMARK 923 INTER-LIGAND FREE ENERGY PREDICTED BY IDOCK:    4.49 KCAL/MOL
REMARK 924 INTRA-LIGAND FREE ENERGY PREDICTED BY IDOCK:    0.58 KCAL/MOL
REMARK 927      BINDING AFFINITY PREDICTED BY RF-SCORE:    0.00 PKD
ROOT
HETATM    1  N   UNL     1      -6.540  11.667  71.641  1.00  0.00     2.429 N  
HETATM    2  C   UNL     1      -6.211  11.449  70.328  1.00  0.00    -0.106 C  
HETATM    3  H2  UNL     1      -5.918  12.220  72.231  1.00  0.00     0.000 HD 
HETATM    4  H1  UNL     1      -7.399  11.283  72.036  1.00  0.00     0.000 HD 
HETATM    5  O   UNL     1      -5.176  11.911  69.853  1.00  0.00    -0.070 OA 
ENDROOT
BRANCH   2   6
HETATM    6  C   UNL     1      -7.201  10.645  69.588  1.00  0.00    -0.139 A  
HETATM    7  N   UNL     1      -8.384  11.115  69.164  1.00  0.00    -0.046 NA 
HETATM    8  N   UNL     1      -8.957  10.018  68.638  1.00  0.00    -0.131 NA 
HETATM    9  C   UNL     1      -8.107   8.959  68.669  1.00  0.00    -0.111 A  
HETATM   10  N   UNL     1      -6.998   9.307  69.274  1.00  0.00    -0.053 NA 
BRANCH   8  11
HETATM   11  C1* UNL     1     -10.299  10.030  68.089  1.00  0.00    -0.194 C  
HETATM   12  O4* UNL     1     -10.361  11.047  67.063  1.00  0.00    -0.209 OA 
HETATM   13  C4* UNL     1     -10.965  12.228  67.635  1.00  0.00    -0.244 C  
HETATM   14  C3* UNL     1     -11.867  11.752  68.775  1.00  0.00    -0.320 C  
HETATM   15  H2* UNL     1     -13.197   9.553  69.460  1.00  0.00     0.000 HD 
HETATM   16  C2* UNL     1     -11.429  10.317  69.080  1.00  0.00    -0.137 C  
HETATM   17  H3* UNL     1     -13.814  11.441  69.095  1.00  0.00     0.000 HD 
HETATM   18  O3* UNL     1     -13.254  11.737  68.387  1.00  0.00     2.479 OA 
HETATM   19  O2* UNL     1     -12.495   9.375  68.844  1.00  0.00     1.801 OA 
BRANCH  13  20
HETATM   20  C5* UNL     1      -9.864  13.197  68.080  1.00  0.00    -0.228 C  
HETATM   21  O5* UNL     1     -10.421  14.500  68.259  1.00  0.00    -0.233 OA 
HETATM   22  H5* UNL     1      -9.739  15.102  68.535  1.00  0.00     0.000 HD 
ENDBRANCH  13  20
ENDBRANCH   8  11
ENDBRANCH   2   6
TORSDOF 3
ENDMDL
MODEL      266
REMARK 921   NORMALIZED FREE ENERGY PREDICTED BY IDOCK:   20.71 KCAL/MOL
REMARK 922        TOTAL FREE ENERGY PREDICTED BY IDOCK:   23.41 KCAL/MOL
REMARK 923 INTER-LIGAND FREE ENERGY PREDICTED BY IDOCK:   23.14 KCAL/MOL
REMARK 924 INTRA-LIGAND FREE ENERGY PREDICTED BY IDOCK:    0.27 KCAL/MOL
REMARK 927      BINDING AFFINITY PREDICTED BY RF-SCORE:    0.00 PKD
ROOT
HETATM    1  N   UNL     1      -7.675  12.693  69.588  1.00  0.00     0.285 N  
HETATM    2  C   UNL     1      -7.819  13.625  68.592  1.00  0.00    -0.096 C  
HETATM    3  H2  UNL     1      -7.049  11.900  69.448  1.00  0.00     0.000 HD 
HETATM    4  H1  UNL     1      -8.185  12.783  70.466  1.00  0.00     0.000 HD 
HETATM    5  O   UNL     1      -7.204  13.516  67.533  1.00  0.00    -0.162 OA 
ENDROOT
BRANCH   2   6
HETATM    6  C   UNL     1      -8.744  14.723  68.928  1.00  0.00    -0.161 A  
HETATM    7  N   UNL     1      -9.991  14.829  68.445  1.00  0.00    -0.217 NA 
HETATM    8  N   UNL     1     -10.396  16.007  68.950  1.00  0.00    -0.222 NA 
HETATM    9  C   UNL     1      -9.454  16.535  69.775  1.00  0.00     0.406 A  
HETATM   10  N   UNL     1      -8.393  15.767  69.775  1.00  0.00    -0.009 NA 
BRANCH   8  11
HETATM   11  C1* UNL     1     -11.694  16.576  68.649  1.00  0.00     0.106 C  
HETATM   12  O4* UNL     1     -12.514  15.547  68.048  1.00  0.00     0.450 OA 
HETATM   13  C4* UNL     1     -12.492  15.735  66.616  1.00  0.00     1.917 C  
HETATM   14  C3* UNL     1     -12.229  17.222  66.371  1.00  0.00     4.128 C  
HETATM   15  H2* UNL     1     -12.578  19.529  67.647  1.00  0.00     0.000 HD 
HETATM   16  C2* UNL     1     -11.701  17.774  67.697  1.00  0.00     1.512 C  
HETATM   17  H3* UNL     1     -13.274  18.851  65.876  1.00  0.00     0.000 HD 
HETATM   18  O3* UNL     1     -13.438  17.928  66.027  1.00  0.00    11.569 OA 
HETATM   19  O2* UNL     1     -12.575  18.785  68.238  1.00  0.00     4.244 OA 
BRANCH  13  20
HETATM   20  C5* UNL     1     -11.438  14.809  65.997  1.00  0.00    -0.316 C  
HETATM   21  O5* UNL     1     -10.203  15.515  65.867  1.00  0.00    -0.297 OA 
HETATM   22  H5* UNL     1      -9.549  14.942  65.484  1.00  0.00     0.000 HD 
ENDBRANCH  13  20
ENDBRANCH   8  11
ENDBRANCH   2   6
TORSDOF 3
ENDMDL
MODEL      267
REMARK 921   NORMALIZED FREE ENERGY PREDICTED BY IDOCK:   23.56 KCAL/MOL
REMARK 922        TOTAL FREE ENERGY PREDICTED BY IDOCK:   26.76 KCAL/MOL
REMARK 923 INTER-LIGAND FREE ENERGY PREDICTED BY IDOCK:   26.38 KCAL/MOL
REMARK 924 INTRA-LIGAND FREE ENERGY PREDICTED BY IDOCK:    0.37 KCAL/MOL
REMARK 927      BINDING AFFINITY PREDICTED BY RF-SCORE:    0.00 PKD
ROOT
HETATM    1  N   UNL     1     -12.394  19.234  71.122  1.00  0.00    13.154 N  
HETATM    2  C   UNL     1     -11.207  18.825  71.675  1.00  0.00     4.823 C  
HETATM    3  H2  UNL     1     -13.243  19.226  71.687  1.00  0.00     0.000 HD 
HETATM    4  H1  UNL     1     -12.438  19.546  70.151  1.00  0.00     0.000 HD 
HETATM    5  O   UNL     1     -11.154  18.450  72.844  1.00  0.00     1.409 OA 
ENDROOT
BRANCH   2   6
HETATM    6  C   UNL     1     -10.059  18.898  70.752  1.00  0.00     2.215 A  
HETATM    7  N   UNL     1     -10.102  19.483  69.546  1.00  0.00    -0.171 NA 
HETATM    8  N   UNL     1      -8.877  19.220  69.057  1.00  0.00    -0.294 NA 
HETATM    9  C   UNL     1      -8.109  18.581  69.977  1.00  0.00     1.620 A  
HETATM   10  N   UNL     1      -8.821  18.344  71.051  1.00  0.00     5.639 NA 
BRANCH   8  11
HETATM   11  C1* UNL     1      -8.471  19.623  67.725  1.00  0.00    -0.318 C  
HETATM   12  O4* UNL     1      -8.784  18.547  66.809  1.00  0.00    -0.262 OA 
HETATM   13  C4* UNL     1      -7.575  17.795  66.568  1.00  0.00    -0.256 C  
HETATM   14  C3* UNL     1      -6.406  18.760  66.782  1.00  0.00    -0.186 C  
HETATM   15  H2* UNL     1      -5.958  21.379  66.672  1.00  0.00     0.000 HD 
HETATM   16  C2* UNL     1      -6.988  19.954  67.544  1.00  0.00    -0.238 C  
HETATM   17  H3* UNL     1      -5.143  19.830  65.664  1.00  0.00     0.000 HD 
HETATM   18  O3* UNL     1      -5.868  19.231  65.532  1.00  0.00    -0.163 OA 
HETATM   19  O2* UNL     1      -6.879  21.173  66.784  1.00  0.00    -0.291 OA 
BRANCH  13  20
HETATM   20  C5* UNL     1      -7.544  16.572  67.492  1.00  0.00    -0.148 C  
HETATM   21  O5* UNL     1      -6.545  16.758  68.496  1.00  0.00    -0.151 OA 
HETATM   22  H5* UNL     1      -6.525  16.000  69.068  1.00  0.00     0.000 HD 
ENDBRANCH  13  20
ENDBRANCH   8  11
ENDBRANCH   2   6
TORSDOF 3
ENDMDL
MODEL      268
REMARK 921   NORMALIZED FREE ENERGY PREDICTED BY IDOCK:   32.04 KCAL/MOL
REMARK 922        TOTAL FREE ENERGY PREDICTED BY IDOCK:   36.72 KCAL/MOL
REMARK 923 INTER-LIGAND FREE ENERGY PREDICTED BY IDOCK:   37.11 KCAL/MOL
REMARK 924 INTRA-LIGAND FREE ENERGY PREDICTED BY IDOCK:   -0.38 KCAL/MOL
REMARK 927      BINDING AFFINITY PREDICTED BY RF-SCORE:    0.00 PKD
ROOT
HETATM    1  N   UNL     1      -9.398  17.566  67.064  1.00  0.00    -0.252 N  
HETATM    2  C   UNL     1      -9.772  16.327  66.608  1.00  0.00    -0.250 C  
HETATM    3  H2  UNL     1      -9.738  18.402  66.588  1.00  0.00     0.000 HD 
HETATM    4  H1  UNL     1      -8.783  17.662  67.872  1.00  0.00     0.000 HD 
HETATM    5  O   UNL     1     -10.513  16.212  65.634  1.00  0.00    -0.356 OA 
ENDROOT
BRANCH   2   6
HETATM    6  C   UNL     1      -9.218  15.208  67.393  1.00  0.00    -0.193 A  
HETATM    7  N   UNL     1      -9.539  14.956  68.670  1.00  0.00    -0.216 NA 
HETATM    8  N   UNL     1      -8.734  13.922  68.970  1.00  0.00     0.120 NA 
HETATM    9  C   UNL     1      -8.028  13.520  67.881  1.00  0.00    -0.162 A  
HETATM   10  N   UNL     1      -8.291  14.315  66.873  1.00  0.00    -0.128 NA 
BRANCH   8  11
HETATM   11  C1* UNL     1      -8.692  13.328  70.291  1.00  0.00     4.296 C  
HETATM   12  O4* UNL     1      -9.307  12.020  70.222  1.00  0.00     3.099 OA 
HETATM   13  C4* UNL     1     -10.664  12.135  70.703  1.00  0.00     2.910 C  
HETATM   14  C3* UNL     1     -10.688  13.318  71.673  1.00  0.00     6.154 C  
HETATM   15  H2* UNL     1      -8.986  14.618  73.250  1.00  0.00     0.000 HD 
HETATM   16  C2* UNL     1      -9.402  14.104  71.402  1.00  0.00     6.272 C  
HETATM   17  H3* UNL     1     -10.694  13.615  73.649  1.00  0.00     0.000 HD 
HETATM   18  O3* UNL     1     -10.680  12.881  73.046  1.00  0.00     9.843 OA 
HETATM   19  O2* UNL     1      -8.545  14.135  72.561  1.00  0.00     6.549 OA 
BRANCH  13  20
HETATM   20  C5* UNL     1     -11.615  12.294  69.510  1.00  0.00    -0.298 C  
HETATM   21  O5* UNL     1     -11.745  13.679  69.186  1.00  0.00    -0.283 OA 
HETATM   22  H5* UNL     1     -12.334  13.778  68.447  1.00  0.00     0.000 HD 
ENDBRANCH  13  20
ENDBRANCH   8  11
ENDBRANCH   2   6
TORSDOF 3
ENDMDL
