MODEL        1
REMARK 921   NORMALIZED FREE ENERGY PREDICTED BY IDOCK:   -8.20 KCAL/MOL
REMARK 922        TOTAL FREE ENERGY PREDICTED BY IDOCK:  -12.72 KCAL/MOL
REMARK 923 INTER-LIGAND FREE ENERGY PREDICTED BY IDOCK:  -11.07 KCAL/MOL
REMARK 924 INTRA-LIGAND FREE ENERGY PREDICTED BY IDOCK:   -1.64 KCAL/MOL
REMARK 927      BINDING AFFINITY PREDICTED BY RF-SCORE:    0.00 PKD
ROOT
HETATM    1  C   UNL     1     -10.309  15.992  69.393  1.00  0.00    -0.272 C  
HETATM    2  O   UNL     1      -7.363  17.495  69.052  1.00  0.00    -0.250 OA 
HETATM    3  O   UNL     1     -10.473  17.416  69.328  1.00  0.00    -0.341 OA 
HETATM    4  H   UNL     1      -7.144  15.003  69.391  1.00  0.00     0.000 HD 
HETATM    5  C   UNL     1      -9.650  17.929  68.264  1.00  0.00    -0.312 C  
HETATM    6  H   UNL     1      -6.604  16.925  69.021  1.00  0.00     0.000 HD 
HETATM    7  C   UNL     1      -8.434  17.016  68.215  1.00  0.00    -0.233 C  
HETATM    8  O   UNL     1      -7.995  15.195  69.766  1.00  0.00    -0.192 OA 
HETATM    9  C   UNL     1      -8.922  15.680  68.782  1.00  0.00    -0.205 C  
ENDROOT
BRANCH   1  10
HETATM   10  O   UNL     1     -11.322  15.338  68.625  1.00  0.00    -0.282 OA 
BRANCH  10  11
HETATM   11  C   UNL     1     -12.039  14.232  69.239  1.00  0.00    -0.313 C  
HETATM   12  O   UNL     1     -13.585  15.702  70.397  1.00  0.00    -0.805 OA 
HETATM   13  H2  UNL     1     -11.698   9.856  70.791  1.00  0.00     0.000 HD 
HETATM   14  H   UNL     1     -13.969  15.943  71.232  1.00  0.00     0.000 HD 
HETATM   15  C   UNL     1     -12.661  14.622  70.589  1.00  0.00    -0.357 C  
HETATM   16  H1  UNL     1     -10.844  10.265  69.386  1.00  0.00     0.000 HD 
HETATM   17  C   UNL     1     -12.552  12.268  71.436  1.00  0.00    -0.303 C  
HETATM   18  N   UNL     1     -14.000  13.938  72.532  1.00  0.00    -0.701 NA 
HETATM   19  N   UNL     1     -11.197  10.587  70.287  1.00  0.00    -0.312 NA 
HETATM   20  H1  UNL     1     -14.524  13.180  72.968  1.00  0.00     0.000 HD 
HETATM   21  H2  UNL     1     -14.561  14.785  72.433  1.00  0.00     0.000 HD 
HETATM   22  C   UNL     1     -12.020  11.784  70.081  1.00  0.00    -0.339 C  
HETATM   23  C   UNL     1     -13.449  13.482  71.245  1.00  0.00    -0.083 C  
HETATM   24  C   UNL     1     -11.230  12.902  69.317  1.00  0.00    -0.190 C  
BRANCH  24  25
HETATM   25  O   UNL     1     -10.709  12.487  68.026  1.00  0.00    -0.209 OA 
BRANCH  25  26
HETATM   26  C   UNL     1     -11.610  11.775  67.169  1.00  0.00    -0.266 C  
HETATM   27  O   UNL     1     -12.284  12.663  66.274  1.00  0.00    -0.562 OA 
HETATM   28  C   UNL     1     -11.393  13.298  65.345  1.00  0.00    -0.295 C  
HETATM   29  C   UNL     1     -10.782  12.246  64.410  1.00  0.00    -0.331 C  
HETATM   30  H2  UNL     1     -10.718   9.287  67.919  1.00  0.00     0.000 HD 
HETATM   31  C   UNL     1     -10.018  11.223  65.252  1.00  0.00    -0.253 C  
HETATM   32  O   UNL     1      -9.842  12.790  63.472  1.00  0.00    -0.682 OA 
HETATM   33  H1  UNL     1      -9.668   8.944  66.662  1.00  0.00     0.000 HD 
HETATM   34  H   UNL     1      -9.464  12.138  62.893  1.00  0.00     0.000 HD 
HETATM   35  H   UNL     1      -9.071   9.530  64.920  1.00  0.00     0.000 HD 
HETATM   36  N   UNL     1     -10.128   9.686  67.189  1.00  0.00    -0.203 NA 
HETATM   37  O   UNL     1      -9.545  10.166  64.397  1.00  0.00    -0.287 OA 
HETATM   38  C   UNL     1     -10.905  10.639  66.363  1.00  0.00    -0.062 C  
BRANCH  28  39
HETATM   39  C   UNL     1     -12.191  14.392  64.614  1.00  0.00    -0.464 C  
HETATM   40  H2  UNL     1     -12.993  13.164  63.164  1.00  0.00     0.000 HD 
HETATM   41  N   UNL     1     -12.509  14.060  63.219  1.00  0.00    -1.112 NA 
HETATM   42  H1  UNL     1     -13.038  14.786  62.734  1.00  0.00     0.000 HD 
ENDBRANCH  28  39
ENDBRANCH  25  26
ENDBRANCH  24  25
ENDBRANCH  10  11
ENDBRANCH   1  10
BRANCH   5  43
HETATM   43  C   UNL     1     -10.396  17.973  66.924  1.00  0.00    -0.370 C  
HETATM   44  O   UNL     1      -9.598  18.662  65.955  1.00  0.00    -0.487 OA 
HETATM   45  H   UNL     1     -10.059  18.689  65.126  1.00  0.00     0.000 HD 
ENDBRANCH   5  43
TORSDOF 6
ENDMDL
MODEL        2
REMARK 921   NORMALIZED FREE ENERGY PREDICTED BY IDOCK:   -7.83 KCAL/MOL
REMARK 922        TOTAL FREE ENERGY PREDICTED BY IDOCK:  -12.23 KCAL/MOL
REMARK 923 INTER-LIGAND FREE ENERGY PREDICTED BY IDOCK:  -10.22 KCAL/MOL
REMARK 924 INTRA-LIGAND FREE ENERGY PREDICTED BY IDOCK:   -2.01 KCAL/MOL
REMARK 927      BINDING AFFINITY PREDICTED BY RF-SCORE:    0.00 PKD
ROOT
HETATM    1  C   UNL     1     -12.484  13.667  69.850  1.00  0.00    -0.167 C  
HETATM    2  O   UNL     1     -14.236  13.524  72.671  1.00  0.00    -0.751 OA 
HETATM    3  O   UNL     1     -13.134  14.920  70.104  1.00  0.00    -0.157 OA 
HETATM    4  H   UNL     1     -13.238  11.293  72.038  1.00  0.00     0.000 HD 
HETATM    5  C   UNL     1     -12.957  15.260  71.492  1.00  0.00    -0.412 C  
HETATM    6  H   UNL     1     -14.216  12.695  73.134  1.00  0.00     0.000 HD 
HETATM    7  C   UNL     1     -12.925  13.931  72.234  1.00  0.00    -0.358 C  
HETATM    8  O   UNL     1     -13.272  11.754  71.209  1.00  0.00    -0.224 OA 
HETATM    9  C   UNL     1     -12.428  12.916  71.201  1.00  0.00    -0.249 C  
ENDROOT
BRANCH   1  10
HETATM   10  O   UNL     1     -11.153  13.883  69.374  1.00  0.00    -0.242 OA 
BRANCH  10  11
HETATM   11  C   UNL     1     -10.939  13.933  67.936  1.00  0.00    -0.250 C  
HETATM   12  O   UNL     1     -10.022  16.179  68.017  1.00  0.00    -0.232 OA 
HETATM   13  H2  UNL     1     -12.422  12.389  63.802  1.00  0.00     0.000 HD 
HETATM   14  H   UNL     1     -10.073  17.065  67.678  1.00  0.00     0.000 HD 
HETATM   15  C   UNL     1     -11.022  15.367  67.388  1.00  0.00    -0.312 C  
HETATM   16  H1  UNL     1     -12.436  11.303  65.103  1.00  0.00     0.000 HD 
HETATM   17  C   UNL     1     -11.761  14.570  65.131  1.00  0.00    -0.376 C  
HETATM   18  N   UNL     1     -10.877  16.854  65.437  1.00  0.00    -0.442 NA 
HETATM   19  N   UNL     1     -12.538  12.275  64.808  1.00  0.00    -0.529 NA 
HETATM   20  H1  UNL     1     -10.710  16.911  64.433  1.00  0.00     0.000 HD 
HETATM   21  H2  UNL     1     -10.260  17.472  65.965  1.00  0.00     0.000 HD 
HETATM   22  C   UNL     1     -11.607  13.110  65.574  1.00  0.00    -0.335 C  
HETATM   23  C   UNL     1     -10.771  15.453  65.878  1.00  0.00    -0.336 C  
HETATM   24  C   UNL     1     -11.809  12.931  67.118  1.00  0.00    -0.362 C  
BRANCH  24  25
HETATM   25  O   UNL     1     -11.670  11.561  67.583  1.00  0.00    -0.538 OA 
BRANCH  25  26
HETATM   26  C   UNL     1     -10.337  11.103  67.840  1.00  0.00    -0.185 C  
HETATM   27  O   UNL     1     -10.166  10.755  69.216  1.00  0.00    -0.218 OA 
HETATM   28  C   UNL     1     -10.971   9.635  69.611  1.00  0.00    -0.229 C  
HETATM   29  C   UNL     1     -10.511   8.376  68.865  1.00  0.00    -0.189 C  
HETATM   30  H2  UNL     1      -9.626  10.978  65.189  1.00  0.00     0.000 HD 
HETATM   31  C   UNL     1     -10.650   8.615  67.361  1.00  0.00    -0.228 C  
HETATM   32  O   UNL     1     -11.293   7.211  69.170  1.00  0.00    -0.471 OA 
HETATM   33  H1  UNL     1      -9.847   9.347  64.886  1.00  0.00     0.000 HD 
HETATM   34  H   UNL     1     -11.007   6.432  68.708  1.00  0.00     0.000 HD 
HETATM   35  H   UNL     1     -10.192   7.637  65.716  1.00  0.00     0.000 HD 
HETATM   36  N   UNL     1     -10.115  10.132  65.480  1.00  0.00    -0.289 NA 
HETATM   37  O   UNL     1     -10.106   7.487  66.651  1.00  0.00    -0.235 OA 
HETATM   38  C   UNL     1      -9.927   9.902  66.931  1.00  0.00    -0.212 C  
BRANCH  28  39
HETATM   39  C   UNL     1     -10.881   9.519  71.143  1.00  0.00    -0.355 C  
HETATM   40  H2  UNL     1     -12.440   8.188  71.367  1.00  0.00     0.000 HD 
HETATM   41  N   UNL     1     -12.127   9.068  71.777  1.00  0.00    -0.343 NA 
HETATM   42  H1  UNL     1     -12.067   8.991  72.792  1.00  0.00     0.000 HD 
ENDBRANCH  28  39
ENDBRANCH  25  26
ENDBRANCH  24  25
ENDBRANCH  10  11
ENDBRANCH   1  10
BRANCH   5  43
HETATM   43  C   UNL     1     -11.687  16.087  71.729  1.00  0.00    -0.509 C  
HETATM   44  O   UNL     1     -11.274  16.693  70.499  1.00  0.00    -0.485 OA 
HETATM   45  H   UNL     1     -10.488  17.204  70.646  1.00  0.00     0.000 HD 
ENDBRANCH   5  43
TORSDOF 6
ENDMDL
MODEL        3
REMARK 921   NORMALIZED FREE ENERGY PREDICTED BY IDOCK:   -7.77 KCAL/MOL
REMARK 922        TOTAL FREE ENERGY PREDICTED BY IDOCK:  -12.14 KCAL/MOL
REMARK 923 INTER-LIGAND FREE ENERGY PREDICTED BY IDOCK:  -10.53 KCAL/MOL
REMARK 924 INTRA-LIGAND FREE ENERGY PREDICTED BY IDOCK:   -1.61 KCAL/MOL
REMARK 927      BINDING AFFINITY PREDICTED BY RF-SCORE:    0.00 PKD
ROOT
HETATM    1  C   UNL     1     -10.916  13.040  66.092  1.00  0.00    -0.280 C  
HETATM    2  O   UNL     1     -12.506  14.133  63.384  1.00  0.00    -1.122 OA 
HETATM    3  O   UNL     1      -9.999  13.676  65.190  1.00  0.00    -0.279 OA 
HETATM    4  H   UNL     1     -14.010  12.810  64.921  1.00  0.00     0.000 HD 
HETATM    5  C   UNL     1     -10.589  14.901  64.717  1.00  0.00    -0.308 C  
HETATM    6  H   UNL     1     -13.441  13.969  63.354  1.00  0.00     0.000 HD 
HETATM    7  C   UNL     1     -12.088  14.637  64.668  1.00  0.00    -0.454 C  
HETATM    8  O   UNL     1     -13.142  12.500  65.154  1.00  0.00    -0.659 OA 
HETATM    9  C   UNL     1     -12.329  13.544  65.713  1.00  0.00    -0.468 C  
ENDROOT
BRANCH   1  10
HETATM   10  O   UNL     1     -10.628  13.412  67.442  1.00  0.00    -0.248 OA 
BRANCH  10  11
HETATM   11  C   UNL     1     -11.691  13.295  68.427  1.00  0.00    -0.354 C  
HETATM   12  O   UNL     1     -12.240  15.657  68.311  1.00  0.00    -0.424 OA 
HETATM   13  H2  UNL     1     -13.203  10.939  72.147  1.00  0.00     0.000 HD 
HETATM   14  H   UNL     1     -12.367  16.462  68.799  1.00  0.00     0.000 HD 
HETATM   15  C   UNL     1     -11.897  14.598  69.215  1.00  0.00    -0.321 C  
HETATM   16  H1  UNL     1     -12.434  10.065  70.917  1.00  0.00     0.000 HD 
HETATM   17  C   UNL     1     -12.775  13.370  71.214  1.00  0.00    -0.424 C  
HETATM   18  N   UNL     1     -13.154  15.795  70.954  1.00  0.00    -0.636 NA 
HETATM   19  N   UNL     1     -12.489  10.951  71.420  1.00  0.00    -0.369 NA 
HETATM   20  H1  UNL     1     -13.910  15.737  71.637  1.00  0.00     0.000 HD 
HETATM   21  H2  UNL     1     -13.273  16.581  70.315  1.00  0.00     0.000 HD 
HETATM   22  C   UNL     1     -12.691  12.039  70.457  1.00  0.00    -0.001 C  
HETATM   23  C   UNL     1     -13.033  14.512  70.241  1.00  0.00    -0.100 C  
HETATM   24  C   UNL     1     -11.577  12.048  69.355  1.00  0.00    -0.330 C  
BRANCH  24  25
HETATM   25  O   UNL     1     -11.464  10.805  68.611  1.00  0.00    -0.273 OA 
BRANCH  25  26
HETATM   26  C   UNL     1     -10.190  10.149  68.648  1.00  0.00    -0.176 C  
HETATM   27  O   UNL     1      -9.964   9.532  69.917  1.00  0.00    -0.200 OA 
HETATM   28  C   UNL     1     -10.883   8.463  70.188  1.00  0.00    -0.236 C  
HETATM   29  C   UNL     1     -10.658   7.319  69.190  1.00  0.00    -0.208 C  
HETATM   30  H2  UNL     1      -9.708  10.438  65.959  1.00  0.00     0.000 HD 
HETATM   31  C   UNL     1     -10.877   7.851  67.773  1.00  0.00    -0.024 C  
HETATM   32  O   UNL     1     -11.567   6.222  69.363  1.00  0.00    -0.557 OA 
HETATM   33  H1  UNL     1     -10.174   8.931  65.398  1.00  0.00     0.000 HD 
HETATM   34  H   UNL     1     -11.427   5.514  68.744  1.00  0.00     0.000 HD 
HETATM   35  H   UNL     1     -10.686   7.150  65.944  1.00  0.00     0.000 HD 
HETATM   36  N   UNL     1     -10.285   9.618  66.144  1.00  0.00    -0.245 NA 
HETATM   37  O   UNL     1     -10.550   6.819  66.825  1.00  0.00    -0.269 OA 
HETATM   38  C   UNL     1     -10.020   9.098  67.506  1.00  0.00    -0.205 C  
BRANCH  28  39
HETATM   39  C   UNL     1     -10.692   8.052  71.659  1.00  0.00    -0.232 C  
HETATM   40  H2  UNL     1     -12.480   7.043  71.851  1.00  0.00     0.000 HD 
HETATM   41  N   UNL     1     -11.949   7.752  72.357  1.00  0.00    -0.469 NA 
HETATM   42  H1  UNL     1     -11.823   7.479  73.332  1.00  0.00     0.000 HD 
ENDBRANCH  28  39
ENDBRANCH  25  26
ENDBRANCH  24  25
ENDBRANCH  10  11
ENDBRANCH   1  10
BRANCH   5  43
HETATM   43  C   UNL     1     -10.241  16.096  65.614  1.00  0.00    -0.364 C  
HETATM   44  O   UNL     1      -9.030  15.822  66.327  1.00  0.00    -0.296 OA 
HETATM   45  H   UNL     1      -8.815  16.562  66.882  1.00  0.00     0.000 HD 
ENDBRANCH   5  43
TORSDOF 6
ENDMDL
MODEL        4
REMARK 921   NORMALIZED FREE ENERGY PREDICTED BY IDOCK:   -7.71 KCAL/MOL
REMARK 922        TOTAL FREE ENERGY PREDICTED BY IDOCK:  -12.06 KCAL/MOL
REMARK 923 INTER-LIGAND FREE ENERGY PREDICTED BY IDOCK:  -10.62 KCAL/MOL
REMARK 924 INTRA-LIGAND FREE ENERGY PREDICTED BY IDOCK:   -1.44 KCAL/MOL
REMARK 927      BINDING AFFINITY PREDICTED BY RF-SCORE:    0.00 PKD
ROOT
HETATM    1  C   UNL     1     -11.041  16.311  67.882  1.00  0.00    -0.270 C  
HETATM    2  O   UNL     1      -9.726  18.509  65.763  1.00  0.00    -0.468 OA 
HETATM    3  O   UNL     1     -10.628  15.660  66.672  1.00  0.00    -0.301 OA 
HETATM    4  H   UNL     1     -10.675  19.606  67.829  1.00  0.00     0.000 HD 
HETATM    5  C   UNL     1      -9.323  16.146  66.307  1.00  0.00    -0.317 C  
HETATM    6  H   UNL     1      -9.699  19.411  66.059  1.00  0.00     0.000 HD 
HETATM    7  C   UNL     1      -9.281  17.592  66.782  1.00  0.00    -0.265 C  
HETATM    8  O   UNL     1     -11.146  18.782  67.789  1.00  0.00    -0.259 OA 
HETATM    9  C   UNL     1     -10.273  17.652  67.946  1.00  0.00    -0.357 C  
ENDROOT
BRANCH   1  10
HETATM   10  O   UNL     1     -10.697  15.515  69.019  1.00  0.00    -0.223 OA 
BRANCH  10  11
HETATM   11  C   UNL     1     -11.635  14.489  69.447  1.00  0.00    -0.303 C  
HETATM   12  O   UNL     1     -12.939  16.049  70.774  1.00  0.00    -0.585 OA 
HETATM   13  H2  UNL     1     -12.184   9.954  70.345  1.00  0.00     0.000 HD 
HETATM   14  H   UNL     1     -13.314  16.239  71.626  1.00  0.00     0.000 HD 
HETATM   15  C   UNL     1     -12.241  14.797  70.825  1.00  0.00    -0.314 C  
HETATM   16  H1  UNL     1     -11.200  10.388  69.035  1.00  0.00     0.000 HD 
HETATM   17  C   UNL     1     -12.610  12.370  71.318  1.00  0.00    -0.332 C  
HETATM   18  N   UNL     1     -13.779  14.114  72.615  1.00  0.00    -0.640 NA 
HETATM   19  N   UNL     1     -11.533  10.641  69.965  1.00  0.00    -0.299 NA 
HETATM   20  H1  UNL     1     -14.455  13.415  72.923  1.00  0.00     0.000 HD 
HETATM   21  H2  UNL     1     -14.168  15.057  72.629  1.00  0.00     0.000 HD 
HETATM   22  C   UNL     1     -12.110  11.989  69.919  1.00  0.00    -0.263 C  
HETATM   23  C   UNL     1     -13.258  13.747  71.288  1.00  0.00    -0.261 C  
HETATM   24  C   UNL     1     -11.090  13.033  69.346  1.00  0.00    -0.076 C  
BRANCH  24  25
HETATM   25  O   UNL     1     -10.591  12.712  68.020  1.00  0.00    -0.210 OA 
BRANCH  25  26
HETATM   26  C   UNL     1     -11.301  11.701  67.294  1.00  0.00    -0.305 C  
HETATM   27  O   UNL     1     -12.257  12.281  66.403  1.00  0.00    -0.613 OA 
HETATM   28  C   UNL     1     -11.647  13.056  65.360  1.00  0.00    -0.341 C  
HETATM   29  C   UNL     1     -10.819  12.140  64.449  1.00  0.00    -0.328 C  
HETATM   30  H2  UNL     1      -9.684   9.644  68.129  1.00  0.00     0.000 HD 
HETATM   31  C   UNL     1      -9.742  11.453  65.288  1.00  0.00    -0.241 C  
HETATM   32  O   UNL     1     -10.138  12.842  63.398  1.00  0.00    -0.613 OA 
HETATM   33  H1  UNL     1      -8.662   9.500  66.812  1.00  0.00     0.000 HD 
HETATM   34  H   UNL     1      -9.625  12.274  62.834  1.00  0.00     0.000 HD 
HETATM   35  H   UNL     1      -8.370  10.073  64.990  1.00  0.00     0.000 HD 
HETATM   36  N   UNL     1      -9.282  10.126  67.326  1.00  0.00    -0.138 NA 
HETATM   37  O   UNL     1      -9.040  10.500  64.468  1.00  0.00    -0.194 OA 
HETATM   38  C   UNL     1     -10.351  10.744  66.508  1.00  0.00    -0.244 C  
BRANCH  28  39
HETATM   39  C   UNL     1     -12.771  13.810  64.629  1.00  0.00    -0.145 C  
HETATM   40  H2  UNL     1     -11.585  14.611  63.143  1.00  0.00     0.000 HD 
HETATM   41  N   UNL     1     -12.294  14.929  63.804  1.00  0.00    -1.071 NA 
HETATM   42  H1  UNL     1     -13.039  15.429  63.319  1.00  0.00     0.000 HD 
ENDBRANCH  28  39
ENDBRANCH  25  26
ENDBRANCH  24  25
ENDBRANCH  10  11
ENDBRANCH   1  10
BRANCH   5  43
HETATM   43  C   UNL     1      -8.198  15.302  66.920  1.00  0.00    -0.228 C  
HETATM   44  O   UNL     1      -8.487  13.913  66.733  1.00  0.00    -0.417 OA 
HETATM   45  H   UNL     1      -7.790  13.390  67.113  1.00  0.00     0.000 HD 
ENDBRANCH   5  43
TORSDOF 6
ENDMDL
MODEL        5
REMARK 921   NORMALIZED FREE ENERGY PREDICTED BY IDOCK:   -7.69 KCAL/MOL
REMARK 922        TOTAL FREE ENERGY PREDICTED BY IDOCK:  -12.03 KCAL/MOL
REMARK 923 INTER-LIGAND FREE ENERGY PREDICTED BY IDOCK:  -10.54 KCAL/MOL
REMARK 924 INTRA-LIGAND FREE ENERGY PREDICTED BY IDOCK:   -1.49 KCAL/MOL
REMARK 927      BINDING AFFINITY PREDICTED BY RF-SCORE:    0.00 PKD
ROOT
HETATM    1  C   UNL     1     -11.691   9.266  70.245  1.00  0.00    -0.051 C  
HETATM    2  O   UNL     1     -10.564   7.314  72.689  1.00  0.00    -0.226 OA 
HETATM    3  O   UNL     1     -12.383   8.009  70.247  1.00  0.00     0.324 OA 
HETATM    4  H   UNL     1      -9.249   9.459  72.479  1.00  0.00     0.000 HD 
HETATM    5  C   UNL     1     -12.738   7.679  71.603  1.00  0.00    -0.343 C  
HETATM    6  H   UNL     1      -9.871   7.677  73.228  1.00  0.00     0.000 HD 
HETATM    7  C   UNL     1     -11.628   8.260  72.466  1.00  0.00    -0.385 C  
HETATM    8  O   UNL     1      -9.632   9.359  71.616  1.00  0.00    -0.260 OA 
HETATM    9  C   UNL     1     -11.067   9.429  71.651  1.00  0.00    -0.339 C  
ENDROOT
BRANCH   1  10
HETATM   10  O   UNL     1     -12.605  10.339  70.007  1.00  0.00    -0.161 OA 
BRANCH  10  11
HETATM   11  C   UNL     1     -12.187  11.687  70.360  1.00  0.00    -0.347 C  
HETATM   12  O   UNL     1     -13.209  11.570  72.559  1.00  0.00    -0.469 OA 
HETATM   13  H2  UNL     1     -11.162  15.918  68.712  1.00  0.00     0.000 HD 
HETATM   14  H   UNL     1     -13.804  11.980  73.175  1.00  0.00     0.000 HD 
HETATM   15  C   UNL     1     -13.151  12.350  71.357  1.00  0.00    -0.204 C  
HETATM   16  H1  UNL     1     -10.675  14.575  67.800  1.00  0.00     0.000 HD 
HETATM   17  C   UNL     1     -12.578  14.647  70.540  1.00  0.00    -0.409 C  
HETATM   18  N   UNL     1     -13.698  14.323  72.715  1.00  0.00    -0.638 NA 
HETATM   19  N   UNL     1     -11.375  14.961  68.434  1.00  0.00    -0.289 NA 
HETATM   20  H1  UNL     1     -13.410  15.262  72.989  1.00  0.00     0.000 HD 
HETATM   21  H2  UNL     1     -13.847  13.716  73.521  1.00  0.00     0.000 HD 
HETATM   22  C   UNL     1     -11.525  14.066  69.587  1.00  0.00    -0.258 C  
HETATM   23  C   UNL     1     -12.718  13.761  71.770  1.00  0.00    -0.282 C  
HETATM   24  C   UNL     1     -11.866  12.603  69.141  1.00  0.00    -0.297 C  
BRANCH  24  25
HETATM   25  O   UNL     1     -10.893  12.013  68.238  1.00  0.00    -0.208 OA 
BRANCH  25  26
HETATM   26  C   UNL     1     -11.411  11.184  67.189  1.00  0.00    -0.181 C  
HETATM   27  O   UNL     1     -12.283  11.922  66.331  1.00  0.00    -0.476 OA 
HETATM   28  C   UNL     1     -11.606  12.963  65.611  1.00  0.00    -0.361 C  
HETATM   29  C   UNL     1     -10.588  12.347  64.642  1.00  0.00    -0.308 C  
HETATM   30  H2  UNL     1      -9.754   9.063  67.737  1.00  0.00     0.000 HD 
HETATM   31  C   UNL     1      -9.579  11.524  65.444  1.00  0.00    -0.224 C  
HETATM   32  O   UNL     1      -9.832  13.323  63.909  1.00  0.00    -0.716 OA 
HETATM   33  H1  UNL     1      -8.554   9.304  66.596  1.00  0.00     0.000 HD 
HETATM   34  H   UNL     1      -9.202  12.941  63.309  1.00  0.00     0.000 HD 
HETATM   35  H   UNL     1      -8.069  10.331  65.033  1.00  0.00     0.000 HD 
HETATM   36  N   UNL     1      -9.289   9.750  67.145  1.00  0.00    -0.141 NA 
HETATM   37  O   UNL     1      -8.695  10.843  64.534  1.00  0.00    -0.135 OA 
HETATM   38  C   UNL     1     -10.286  10.502  66.349  1.00  0.00    -0.221 C  
BRANCH  28  39
HETATM   39  C   UNL     1     -12.680  13.823  64.923  1.00  0.00    -0.271 C  
HETATM   40  H2  UNL     1     -12.501  12.966  63.055  1.00  0.00     0.000 HD 
HETATM   41  N   UNL     1     -12.530  13.900  63.463  1.00  0.00    -1.067 NA 
HETATM   42  H1  UNL     1     -13.243  14.470  63.007  1.00  0.00     0.000 HD 
ENDBRANCH  28  39
ENDBRANCH  25  26
ENDBRANCH  24  25
ENDBRANCH  10  11
ENDBRANCH   1  10
BRANCH   5  43
HETATM   43  C   UNL     1     -14.119   8.224  71.990  1.00  0.00    -0.395 C  
HETATM   44  O   UNL     1     -14.033   8.885  73.257  1.00  0.00    -1.203 OA 
HETATM   45  H   UNL     1     -14.888   9.222  73.497  1.00  0.00     0.000 HD 
ENDBRANCH   5  43
TORSDOF 6
ENDMDL
MODEL        6
REMARK 921   NORMALIZED FREE ENERGY PREDICTED BY IDOCK:   -7.56 KCAL/MOL
REMARK 922        TOTAL FREE ENERGY PREDICTED BY IDOCK:  -11.85 KCAL/MOL
REMARK 923 INTER-LIGAND FREE ENERGY PREDICTED BY IDOCK:  -10.58 KCAL/MOL
REMARK 924 INTRA-LIGAND FREE ENERGY PREDICTED BY IDOCK:   -1.27 KCAL/MOL
REMARK 927      BINDING AFFINITY PREDICTED BY RF-SCORE:    0.00 PKD
ROOT
HETATM    1  C   UNL     1     -10.817  13.118  65.954  1.00  0.00    -0.273 C  
HETATM    2  O   UNL     1     -12.492  14.258  63.319  1.00  0.00    -1.133 OA 
HETATM    3  O   UNL     1      -9.947  13.854  65.083  1.00  0.00    -0.308 OA 
HETATM    4  H   UNL     1     -13.902  12.768  64.790  1.00  0.00     0.000 HD 
HETATM    5  C   UNL     1     -10.612  15.066  64.681  1.00  0.00    -0.155 C  
HETATM    6  H   UNL     1     -13.416  14.041  63.285  1.00  0.00     0.000 HD 
HETATM    7  C   UNL     1     -12.093  14.717  64.625  1.00  0.00    -0.454 C  
HETATM    8  O   UNL     1     -13.016  12.499  65.000  1.00  0.00    -0.779 OA 
HETATM    9  C   UNL     1     -12.260  13.557  65.611  1.00  0.00    -0.458 C  
ENDROOT
BRANCH   1  10
HETATM   10  O   UNL     1     -10.539  13.433  67.320  1.00  0.00    -0.252 OA 
BRANCH  10  11
HETATM   11  C   UNL     1     -11.538  13.089  68.320  1.00  0.00    -0.340 C  
HETATM   12  O   UNL     1     -12.503  15.316  68.314  1.00  0.00    -0.392 OA 
HETATM   13  H2  UNL     1     -12.505  10.360  71.966  1.00  0.00     0.000 HD 
HETATM   14  H   UNL     1     -12.760  16.067  68.838  1.00  0.00     0.000 HD 
HETATM   15  C   UNL     1     -11.953  14.303  69.166  1.00  0.00    -0.335 C  
HETATM   16  H1  UNL     1     -11.624   9.686  70.685  1.00  0.00     0.000 HD 
HETATM   17  C   UNL     1     -12.544  12.862  71.128  1.00  0.00    -0.373 C  
HETATM   18  N   UNL     1     -13.358  15.187  70.978  1.00  0.00    -0.551 NA 
HETATM   19  N   UNL     1     -11.824  10.527  71.226  1.00  0.00    -0.295 NA 
HETATM   20  H1  UNL     1     -14.072  14.968  71.672  1.00  0.00     0.000 HD 
HETATM   21  H2  UNL     1     -13.632  15.963  70.375  1.00  0.00     0.000 HD 
HETATM   22  C   UNL     1     -12.243  11.597  70.314  1.00  0.00    -0.318 C  
HETATM   23  C   UNL     1     -13.028  13.975  70.209  1.00  0.00     0.024 C  
HETATM   24  C   UNL     1     -11.178  11.849  69.192  1.00  0.00    -0.255 C  
BRANCH  24  25
HETATM   25  O   UNL     1     -10.864  10.675  68.394  1.00  0.00    -0.203 OA 
BRANCH  25  26
HETATM   26  C   UNL     1      -9.779   9.859  68.853  1.00  0.00    -0.175 C  
HETATM   27  O   UNL     1     -10.138   8.476  68.855  1.00  0.00    -0.192 OA 
HETATM   28  C   UNL     1     -10.390   7.964  67.538  1.00  0.00    -0.259 C  
HETATM   29  C   UNL     1      -9.096   7.995  66.713  1.00  0.00    -0.155 C  
HETATM   30  H2  UNL     1      -7.937  11.897  68.833  1.00  0.00     0.000 HD 
HETATM   31  C   UNL     1      -8.601   9.439  66.627  1.00  0.00    -0.130 C  
HETATM   32  O   UNL     1      -9.267   7.538  65.363  1.00  0.00    -0.370 OA 
HETATM   33  H1  UNL     1      -7.182  11.618  67.366  1.00  0.00     0.000 HD 
HETATM   34  H   UNL     1      -8.465   7.557  64.853  1.00  0.00     0.000 HD 
HETATM   35  H   UNL     1      -7.017  10.360  65.908  1.00  0.00     0.000 HD 
HETATM   36  N   UNL     1      -8.035  11.480  67.908  1.00  0.00    -0.120 NA 
HETATM   37  O   UNL     1      -7.325   9.463  65.961  1.00  0.00    -0.090 OA 
HETATM   38  C   UNL     1      -8.474  10.070  68.023  1.00  0.00    -0.117 C  
BRANCH  28  39
HETATM   39  C   UNL     1     -10.993   6.557  67.696  1.00  0.00    -0.337 C  
HETATM   40  H2  UNL     1     -10.450   5.860  65.833  1.00  0.00     0.000 HD 
HETATM   41  N   UNL     1     -11.283   5.890  66.420  1.00  0.00    -0.739 NA 
HETATM   42  H1  UNL     1     -11.683   4.957  66.526  1.00  0.00     0.000 HD 
ENDBRANCH  28  39
ENDBRANCH  25  26
ENDBRANCH  24  25
ENDBRANCH  10  11
ENDBRANCH   1  10
BRANCH   5  43
HETATM   43  C   UNL     1     -10.327  16.230  65.639  1.00  0.00    -0.363 C  
HETATM   44  O   UNL     1     -10.798  17.452  65.059  1.00  0.00    -0.676 OA 
HETATM   45  H   UNL     1     -10.621  18.172  65.652  1.00  0.00     0.000 HD 
ENDBRANCH   5  43
TORSDOF 6
ENDMDL
MODEL        7
REMARK 921   NORMALIZED FREE ENERGY PREDICTED BY IDOCK:   -7.47 KCAL/MOL
REMARK 922        TOTAL FREE ENERGY PREDICTED BY IDOCK:  -11.73 KCAL/MOL
REMARK 923 INTER-LIGAND FREE ENERGY PREDICTED BY IDOCK:  -11.03 KCAL/MOL
REMARK 924 INTRA-LIGAND FREE ENERGY PREDICTED BY IDOCK:   -0.69 KCAL/MOL
REMARK 927      BINDING AFFINITY PREDICTED BY RF-SCORE:    0.00 PKD
ROOT
HETATM    1  C   UNL     1     -12.456  10.002  71.597  1.00  0.00    -0.418 C  
HETATM    2  O   UNL     1     -12.771   6.825  72.524  1.00  0.00    -0.481 OA 
HETATM    3  O   UNL     1     -11.169   9.376  71.699  1.00  0.00    -0.370 OA 
HETATM    4  H   UNL     1     -14.975   8.057  72.530  1.00  0.00     0.000 HD 
HETATM    5  C   UNL     1     -11.234   8.081  71.075  1.00  0.00    -0.266 C  
HETATM    6  H   UNL     1     -13.658   6.517  72.668  1.00  0.00     0.000 HD 
HETATM    7  C   UNL     1     -12.655   7.588  71.307  1.00  0.00    -0.314 C  
HETATM    8  O   UNL     1     -14.338   8.757  72.615  1.00  0.00    -0.585 OA 
HETATM    9  C   UNL     1     -13.492   8.861  71.458  1.00  0.00    -0.332 C  
ENDROOT
BRANCH   1  10
HETATM   10  O   UNL     1     -12.514  10.836  70.437  1.00  0.00    -0.324 OA 
BRANCH  10  11
HETATM   11  C   UNL     1     -12.221  12.251  70.596  1.00  0.00    -0.287 C  
HETATM   12  O   UNL     1     -13.454  12.409  72.681  1.00  0.00    -0.600 OA 
HETATM   13  H2  UNL     1     -11.300  16.231  68.363  1.00  0.00     0.000 HD 
HETATM   14  H   UNL     1     -14.134  12.864  73.163  1.00  0.00     0.000 HD 
HETATM   15  C   UNL     1     -13.322  12.987  71.376  1.00  0.00    -0.101 C  
HETATM   16  H1  UNL     1     -10.638  14.802  67.737  1.00  0.00     0.000 HD 
HETATM   17  C   UNL     1     -12.814  15.162  70.241  1.00  0.00    -0.284 C  
HETATM   18  N   UNL     1     -14.129  15.104  72.328  1.00  0.00    -0.511 NA 
HETATM   19  N   UNL     1     -11.423  15.228  68.231  1.00  0.00    -0.337 NA 
HETATM   20  H1  UNL     1     -13.931  16.094  72.466  1.00  0.00     0.000 HD 
HETATM   21  H2  UNL     1     -14.322  14.624  73.207  1.00  0.00     0.000 HD 
HETATM   22  C   UNL     1     -11.634  14.521  69.499  1.00  0.00    -0.307 C  
HETATM   23  C   UNL     1     -13.024  14.477  71.584  1.00  0.00    -0.337 C  
HETATM   24  C   UNL     1     -11.834  12.983  69.275  1.00  0.00    -0.316 C  
BRANCH  24  25
HETATM   25  O   UNL     1     -10.738  12.334  68.576  1.00  0.00    -0.223 OA 
BRANCH  25  26
HETATM   26  C   UNL     1     -11.079  11.222  67.739  1.00  0.00    -0.271 C  
HETATM   27  O   UNL     1     -12.054  11.593  66.761  1.00  0.00    -0.472 OA 
HETATM   28  C   UNL     1     -11.562  12.561  65.823  1.00  0.00    -0.392 C  
HETATM   29  C   UNL     1     -10.432  11.945  64.986  1.00  0.00    -0.289 C  
HETATM   30  H2  UNL     1      -9.080   9.598  68.691  1.00  0.00     0.000 HD 
HETATM   31  C   UNL     1      -9.307  11.505  65.923  1.00  0.00    -0.226 C  
HETATM   32  O   UNL     1      -9.850  12.861  64.046  1.00  0.00    -0.673 OA 
HETATM   33  H1  UNL     1      -7.922   9.802  67.500  1.00  0.00     0.000 HD 
HETATM   34  H   UNL     1      -9.151  12.479  63.528  1.00  0.00     0.000 HD 
HETATM   35  H   UNL     1      -7.600  10.543  65.745  1.00  0.00     0.000 HD 
HETATM   36  N   UNL     1      -8.734  10.216  67.957  1.00  0.00    -0.121 NA 
HETATM   37  O   UNL     1      -8.299  10.816  65.162  1.00  0.00    -0.152 OA 
HETATM   38  C   UNL     1      -9.836  10.590  67.040  1.00  0.00    -0.183 C  
BRANCH  28  39
HETATM   39  C   UNL     1     -12.760  13.047  64.989  1.00  0.00    -0.410 C  
HETATM   40  H2  UNL     1     -11.656  13.874  63.456  1.00  0.00     0.000 HD 
HETATM   41  N   UNL     1     -12.432  14.138  64.062  1.00  0.00    -0.792 NA 
HETATM   42  H1  UNL     1     -13.226  14.461  63.509  1.00  0.00     0.000 HD 
ENDBRANCH  28  39
ENDBRANCH  25  26
ENDBRANCH  24  25
ENDBRANCH  10  11
ENDBRANCH   1  10
BRANCH   5  43
HETATM   43  C   UNL     1     -10.876   8.137  69.584  1.00  0.00    -0.158 C  
HETATM   44  O   UNL     1     -11.447   7.009  68.913  1.00  0.00    -0.503 OA 
HETATM   45  H   UNL     1     -11.226   7.043  67.990  1.00  0.00     0.000 HD 
ENDBRANCH   5  43
TORSDOF 6
ENDMDL
MODEL        8
REMARK 921   NORMALIZED FREE ENERGY PREDICTED BY IDOCK:   -7.35 KCAL/MOL
REMARK 922        TOTAL FREE ENERGY PREDICTED BY IDOCK:  -11.57 KCAL/MOL
REMARK 923 INTER-LIGAND FREE ENERGY PREDICTED BY IDOCK:  -10.41 KCAL/MOL
REMARK 924 INTRA-LIGAND FREE ENERGY PREDICTED BY IDOCK:   -1.15 KCAL/MOL
REMARK 927      BINDING AFFINITY PREDICTED BY RF-SCORE:    0.00 PKD
ROOT
HETATM    1  C   UNL     1     -10.246  11.720  66.153  1.00  0.00    -0.220 C  
HETATM    2  O   UNL     1      -8.973  10.327  63.417  1.00  0.00    -0.193 OA 
HETATM    3  O   UNL     1     -10.161  12.680  65.090  1.00  0.00    -0.287 OA 
HETATM    4  H   UNL     1      -8.954   8.761  65.398  1.00  0.00     0.000 HD 
HETATM    5  C   UNL     1     -10.641  12.072  63.877  1.00  0.00    -0.400 C  
HETATM    6  H   UNL     1      -8.741   9.408  63.484  1.00  0.00     0.000 HD 
HETATM    7  C   UNL     1     -10.268  10.600  63.986  1.00  0.00    -0.264 C  
HETATM    8  O   UNL     1      -8.985   9.619  65.804  1.00  0.00    -0.150 OA 
HETATM    9  C   UNL     1     -10.198  10.323  65.491  1.00  0.00    -0.238 C  
ENDROOT
BRANCH   1  10
HETATM   10  O   UNL     1     -11.481  11.865  66.859  1.00  0.00    -0.364 OA 
BRANCH  10  11
HETATM   11  C   UNL     1     -11.444  11.855  68.313  1.00  0.00    -0.311 C  
HETATM   12  O   UNL     1     -10.813   9.514  68.413  1.00  0.00    -0.352 OA 
HETATM   13  H2  UNL     1     -13.191  13.755  72.188  1.00  0.00     0.000 HD 
HETATM   14  H   UNL     1     -11.014   8.657  68.771  1.00  0.00     0.000 HD 
HETATM   15  C   UNL     1     -11.769  10.469  68.891  1.00  0.00    -0.146 C  
HETATM   16  H1  UNL     1     -12.917  14.774  70.861  1.00  0.00     0.000 HD 
HETATM   17  C   UNL     1     -12.659  11.451  71.016  1.00  0.00    -0.487 C  
HETATM   18  N   UNL     1     -12.040   9.066  70.890  1.00  0.00    -0.437 NA 
HETATM   19  N   UNL     1     -13.174  13.837  71.171  1.00  0.00    -0.254 NA 
HETATM   20  H1  UNL     1     -11.999   9.035  71.908  1.00  0.00     0.000 HD 
HETATM   21  H2  UNL     1     -11.448   8.355  70.460  1.00  0.00     0.000 HD 
HETATM   22  C   UNL     1     -12.273  12.861  70.550  1.00  0.00    -0.314 C  
HETATM   23  C   UNL     1     -11.708  10.422  70.423  1.00  0.00    -0.331 C  
HETATM   24  C   UNL     1     -12.270  12.992  68.988  1.00  0.00    -0.044 C  
BRANCH  24  25
HETATM   25  O   UNL     1     -11.907  14.312  68.501  1.00  0.00    -0.329 OA 
BRANCH  25  26
HETATM   26  C   UNL     1     -10.508  14.617  68.456  1.00  0.00    -0.247 C  
HETATM   27  O   UNL     1     -10.074  14.856  67.115  1.00  0.00    -0.237 OA 
HETATM   28  C   UNL     1     -10.675  16.023  66.535  1.00  0.00    -0.238 C  
HETATM   29  C   UNL     1     -10.209  17.276  67.289  1.00  0.00    -0.320 C  
HETATM   30  H2  UNL     1     -10.236  14.841  71.180  1.00  0.00     0.000 HD 
HETATM   31  C   UNL     1     -10.620  17.149  68.757  1.00  0.00    -0.336 C  
HETATM   32  O   UNL     1     -10.797  18.490  66.800  1.00  0.00    -0.315 OA 
HETATM   33  H1  UNL     1     -10.324  16.502  71.364  1.00  0.00     0.000 HD 
HETATM   34  H   UNL     1     -10.508  19.266  67.267  1.00  0.00     0.000 HD 
HETATM   35  H   UNL     1     -10.337  18.181  70.408  1.00  0.00     0.000 HD 
HETATM   36  N   UNL     1     -10.574  15.711  70.771  1.00  0.00    -0.161 NA 
HETATM   37  O   UNL     1     -10.082  18.260  69.496  1.00  0.00    -0.090 OA 
HETATM   38  C   UNL     1     -10.125  15.827  69.364  1.00  0.00    -0.268 C  
BRANCH  28  39
HETATM   39  C   UNL     1     -10.320  16.030  65.038  1.00  0.00    -0.106 C  
HETATM   40  H2  UNL     1     -11.646  17.512  64.492  1.00  0.00     0.000 HD 
HETATM   41  N   UNL     1     -11.380  16.578  64.181  1.00  0.00    -1.452 NA 
HETATM   42  H1  UNL     1     -11.144  16.582  63.188  1.00  0.00     0.000 HD 
ENDBRANCH  28  39
ENDBRANCH  25  26
ENDBRANCH  24  25
ENDBRANCH  10  11
ENDBRANCH   1  10
BRANCH   5  43
HETATM   43  C   UNL     1     -12.150  12.274  63.684  1.00  0.00    -0.554 C  
HETATM   44  O   UNL     1     -12.392  13.578  63.145  1.00  0.00    -0.968 OA 
HETATM   45  H   UNL     1     -13.326  13.703  63.026  1.00  0.00     0.000 HD 
ENDBRANCH   5  43
TORSDOF 6
ENDMDL
MODEL        9
REMARK 921   NORMALIZED FREE ENERGY PREDICTED BY IDOCK:   -7.34 KCAL/MOL
REMARK 922        TOTAL FREE ENERGY PREDICTED BY IDOCK:  -11.56 KCAL/MOL
REMARK 923 INTER-LIGAND FREE ENERGY PREDICTED BY IDOCK:  -10.50 KCAL/MOL
REMARK 924 INTRA-LIGAND FREE ENERGY PREDICTED BY IDOCK:   -1.06 KCAL/MOL
REMARK 927      BINDING AFFINITY PREDICTED BY RF-SCORE:    0.00 PKD
ROOT
HETATM    1  C   UNL     1     -11.254  15.241  67.104  1.00  0.00    -0.291 C  
HETATM    2  O   UNL     1     -11.441  16.233  63.936  1.00  0.00    -1.484 OA 
HETATM    3  O   UNL     1     -12.545  14.939  66.556  1.00  0.00     0.184 OA 
HETATM    4  H   UNL     1      -9.278  16.923  65.040  1.00  0.00     0.000 HD 
HETATM    5  C   UNL     1     -12.369  14.371  65.245  1.00  0.00    -0.371 C  
HETATM    6  H   UNL     1     -10.664  16.648  63.582  1.00  0.00     0.000 HD 
HETATM    7  C   UNL     1     -11.124  15.037  64.677  1.00  0.00    -0.321 C  
HETATM    8  O   UNL     1      -9.864  16.802  65.777  1.00  0.00    -0.505 OA 
HETATM    9  C   UNL     1     -10.299  15.438  65.903  1.00  0.00    -0.341 C  
ENDROOT
BRANCH   1  10
HETATM   10  O   UNL     1     -10.785  14.154  67.906  1.00  0.00    -0.236 OA 
BRANCH  10  11
HETATM   11  C   UNL     1     -11.713  13.548  68.848  1.00  0.00    -0.339 C  
HETATM   12  O   UNL     1     -12.715  15.680  69.436  1.00  0.00    -0.555 OA 
HETATM   13  H2  UNL     1     -12.402   9.994  71.774  1.00  0.00     0.000 HD 
HETATM   14  H   UNL     1     -12.951  16.274  70.139  1.00  0.00     0.000 HD 
HETATM   15  C   UNL     1     -12.095  14.509  69.985  1.00  0.00    -0.339 C  
HETATM   16  H1  UNL     1     -11.592   9.675  70.321  1.00  0.00     0.000 HD 
HETATM   17  C   UNL     1     -12.536  12.621  71.570  1.00  0.00    -0.256 C  
HETATM   18  N   UNL     1     -13.398  14.887  72.034  1.00  0.00    -0.338 NA 
HETATM   19  N   UNL     1     -11.772  10.356  71.059  1.00  0.00    -0.353 NA 
HETATM   20  H1  UNL     1     -14.064  14.486  72.693  1.00  0.00     0.000 HD 
HETATM   21  H2  UNL     1     -13.722  15.776  71.653  1.00  0.00     0.000 HD 
HETATM   22  C   UNL     1     -12.266  11.599  70.459  1.00  0.00    -0.361 C  
HETATM   23  C   UNL     1     -13.096  13.907  70.977  1.00  0.00    -0.243 C  
HETATM   24  C   UNL     1     -11.278  12.147  69.372  1.00  0.00    -0.182 C  
BRANCH  24  25
HETATM   25  O   UNL     1     -10.995  11.211  68.298  1.00  0.00    -0.193 OA 
BRANCH  25  26
HETATM   26  C   UNL     1      -9.668  10.671  68.250  1.00  0.00    -0.161 C  
HETATM   27  O   UNL     1      -9.582   9.447  68.983  1.00  0.00    -0.158 OA 
HETATM   28  C   UNL     1     -10.375   8.397  68.409  1.00  0.00    -0.200 C  
HETATM   29  C   UNL     1      -9.822   8.025  67.027  1.00  0.00    -0.227 C  
HETATM   30  H2  UNL     1      -8.770  12.441  66.352  1.00  0.00     0.000 HD 
HETATM   31  C   UNL     1      -9.864   9.263  66.130  1.00  0.00    -0.293 C  
HETATM   32  O   UNL     1     -10.585   7.008  66.360  1.00  0.00    -0.484 OA 
HETATM   33  H1  UNL     1      -8.916  11.511  64.968  1.00  0.00     0.000 HD 
HETATM   34  H   UNL     1     -10.242   6.778  65.504  1.00  0.00     0.000 HD 
HETATM   35  H   UNL     1      -9.261   9.726  64.315  1.00  0.00     0.000 HD 
HETATM   36  N   UNL     1      -9.250  11.652  65.921  1.00  0.00    -0.219 NA 
HETATM   37  O   UNL     1      -9.235   8.956  64.872  1.00  0.00    -0.100 OA 
HETATM   38  C   UNL     1      -9.156  10.456  66.791  1.00  0.00    -0.143 C  
BRANCH  28  39
HETATM   39  C   UNL     1     -10.388   7.228  69.410  1.00  0.00    -0.208 C  
HETATM   40  H2  UNL     1     -12.434   6.973  69.442  1.00  0.00     0.000 HD 
HETATM   41  N   UNL     1     -11.669   7.062  70.110  1.00  0.00    -0.558 NA 
HETATM   42  H1  UNL     1     -11.677   6.287  70.773  1.00  0.00     0.000 HD 
ENDBRANCH  28  39
ENDBRANCH  25  26
ENDBRANCH  24  25
ENDBRANCH  10  11
ENDBRANCH   1  10
BRANCH   5  43
HETATM   43  C   UNL     1     -12.239  12.843  65.287  1.00  0.00    -0.476 C  
HETATM   44  O   UNL     1     -13.108  12.262  64.308  1.00  0.00    -0.746 OA 
HETATM   45  H   UNL     1     -13.028  11.316  64.335  1.00  0.00     0.000 HD 
ENDBRANCH   5  43
TORSDOF 6
ENDMDL
MODEL       10
REMARK 921   NORMALIZED FREE ENERGY PREDICTED BY IDOCK:   -7.18 KCAL/MOL
REMARK 922        TOTAL FREE ENERGY PREDICTED BY IDOCK:  -11.34 KCAL/MOL
REMARK 923 INTER-LIGAND FREE ENERGY PREDICTED BY IDOCK:  -10.28 KCAL/MOL
REMARK 924 INTRA-LIGAND FREE ENERGY PREDICTED BY IDOCK:   -1.06 KCAL/MOL
REMARK 927      BINDING AFFINITY PREDICTED BY RF-SCORE:    0.00 PKD
ROOT
HETATM    1  C   UNL     1     -12.043  13.240  66.199  1.00  0.00    -0.421 C  
HETATM    2  O   UNL     1     -10.857  15.866  64.540  1.00  0.00    -0.808 OA 
HETATM    3  O   UNL     1     -13.019  13.732  65.269  1.00  0.00    -0.731 OA 
HETATM    4  H   UNL     1      -9.285  15.074  66.349  1.00  0.00     0.000 HD 
HETATM    5  C   UNL     1     -12.367  14.000  64.014  1.00  0.00    -0.298 C  
HETATM    6  H   UNL     1      -9.976  16.138  64.764  1.00  0.00     0.000 HD 
HETATM    7  C   UNL     1     -10.955  14.437  64.374  1.00  0.00    -0.153 C  
HETATM    8  O   UNL     1     -10.127  14.744  66.639  1.00  0.00    -0.253 OA 
HETATM    9  C   UNL     1     -10.672  13.778  65.726  1.00  0.00    -0.281 C  
ENDROOT
BRANCH   1  10
HETATM   10  O   UNL     1     -12.020  11.811  66.188  1.00  0.00    -0.464 OA 
BRANCH  10  11
HETATM   11  C   UNL     1     -11.038  11.135  67.020  1.00  0.00    -0.273 C  
HETATM   12  O   UNL     1      -9.472  10.865  65.185  1.00  0.00    -0.204 OA 
HETATM   13  H2  UNL     1     -10.418   8.432  70.760  1.00  0.00     0.000 HD 
HETATM   14  H   UNL     1      -8.936  10.258  64.687  1.00  0.00     0.000 HD 
HETATM   15  C   UNL     1     -10.172  10.153  66.215  1.00  0.00    -0.219 C  
HETATM   16  H1  UNL     1     -11.627   9.618  70.833  1.00  0.00     0.000 HD 
HETATM   17  C   UNL     1      -9.764   8.708  68.219  1.00  0.00    -0.171 C  
HETATM   18  N   UNL     1      -8.332   8.524  66.217  1.00  0.00    -0.112 NA 
HETATM   19  N   UNL     1     -11.116   8.963  70.240  1.00  0.00    -0.244 NA 
HETATM   20  H1  UNL     1      -7.624   8.055  66.781  1.00  0.00     0.000 HD 
HETATM   21  H2  UNL     1      -7.929   8.992  65.405  1.00  0.00     0.000 HD 
HETATM   22  C   UNL     1     -10.532   9.693  69.110  1.00  0.00    -0.214 C  
HETATM   23  C   UNL     1      -9.107   9.448  67.063  1.00  0.00    -0.134 C  
HETATM   24  C   UNL     1     -11.621  10.491  68.315  1.00  0.00    -0.101 C  
BRANCH  24  25
HETATM   25  O   UNL     1     -12.373  11.439  69.120  1.00  0.00    -0.356 OA 
BRANCH  25  26
HETATM   26  C   UNL     1     -11.670  12.058  70.205  1.00  0.00    -0.233 C  
HETATM   27  O   UNL     1     -11.172  13.345  69.829  1.00  0.00    -0.128 OA 
HETATM   28  C   UNL     1     -12.218  14.286  69.547  1.00  0.00    -0.297 C  
HETATM   29  C   UNL     1     -13.019  14.572  70.824  1.00  0.00    -0.343 C  
HETATM   30  H2  UNL     1     -12.437  10.192  72.069  1.00  0.00     0.000 HD 
HETATM   31  C   UNL     1     -13.618  13.261  71.334  1.00  0.00     0.035 C  
HETATM   32  O   UNL     1     -14.116  15.475  70.622  1.00  0.00    -0.849 OA 
HETATM   33  H1  UNL     1     -13.720  10.987  72.792  1.00  0.00     0.000 HD 
HETATM   34  H   UNL     1     -14.611  15.652  71.414  1.00  0.00     0.000 HD 
HETATM   35  H   UNL     1     -14.639  12.682  72.914  1.00  0.00     0.000 HD 
HETATM   36  N   UNL     1     -13.152  10.909  71.948  1.00  0.00    -0.487 NA 
HETATM   37  O   UNL     1     -14.267  13.497  72.597  1.00  0.00    -0.751 OA 
HETATM   38  C   UNL     1     -12.538  12.179  71.496  1.00  0.00    -0.161 C  
BRANCH  28  39
HETATM   39  C   UNL     1     -11.562  15.534  68.930  1.00  0.00    -0.373 C  
HETATM   40  H2  UNL     1     -10.565  16.136  70.632  1.00  0.00     0.000 HD 
HETATM   41  N   UNL     1     -11.169  16.546  69.920  1.00  0.00    -0.403 NA 
HETATM   42  H1  UNL     1     -10.734  17.373  69.511  1.00  0.00     0.000 HD 
ENDBRANCH  28  39
ENDBRANCH  25  26
ENDBRANCH  24  25
ENDBRANCH  10  11
ENDBRANCH   1  10
BRANCH   5  43
HETATM   43  C   UNL     1     -12.376  12.778  63.084  1.00  0.00    -0.180 C  
HETATM   44  O   UNL     1     -11.100  12.130  63.136  1.00  0.00    -0.676 OA 
HETATM   45  H   UNL     1     -11.105  11.375  62.561  1.00  0.00     0.000 HD 
ENDBRANCH   5  43
TORSDOF 6
ENDMDL
MODEL       11
REMARK 921   NORMALIZED FREE ENERGY PREDICTED BY IDOCK:   -7.07 KCAL/MOL
REMARK 922        TOTAL FREE ENERGY PREDICTED BY IDOCK:  -11.20 KCAL/MOL
REMARK 923 INTER-LIGAND FREE ENERGY PREDICTED BY IDOCK:  -10.34 KCAL/MOL
REMARK 924 INTRA-LIGAND FREE ENERGY PREDICTED BY IDOCK:   -0.85 KCAL/MOL
REMARK 927      BINDING AFFINITY PREDICTED BY RF-SCORE:    0.00 PKD
ROOT
HETATM    1  C   UNL     1     -11.923  13.608  66.001  1.00  0.00    -0.413 C  
HETATM    2  O   UNL     1     -12.642  13.147  62.788  1.00  0.00    -0.497 OA 
HETATM    3  O   UNL     1     -12.165  12.220  65.732  1.00  0.00    -0.622 OA 
HETATM    4  H   UNL     1     -12.418  15.589  63.388  1.00  0.00     0.000 HD 
HETATM    5  C   UNL     1     -11.474  11.856  64.523  1.00  0.00    -0.294 C  
HETATM    6  H   UNL     1     -12.652  13.927  62.246  1.00  0.00     0.000 HD 
HETATM    7  C   UNL     1     -11.491  13.105  63.654  1.00  0.00    -0.323 C  
HETATM    8  O   UNL     1     -12.621  15.182  64.222  1.00  0.00    -0.638 OA 
HETATM    9  C   UNL     1     -11.593  14.270  64.642  1.00  0.00    -0.408 C  
ENDROOT
BRANCH   1  10
HETATM   10  O   UNL     1     -10.809  13.759  66.884  1.00  0.00    -0.282 OA 
BRANCH  10  11
HETATM   11  C   UNL     1     -11.045  13.633  68.313  1.00  0.00    -0.256 C  
HETATM   12  O   UNL     1     -10.909  11.210  68.258  1.00  0.00    -0.185 OA 
HETATM   13  H2  UNL     1     -13.080  15.566  72.028  1.00  0.00     0.000 HD 
HETATM   14  H   UNL     1     -11.335  10.391  68.480  1.00  0.00     0.000 HD 
HETATM   15  C   UNL     1     -11.734  12.307  68.673  1.00  0.00    -0.328 C  
HETATM   16  H1  UNL     1     -12.373  16.599  70.887  1.00  0.00     0.000 HD 
HETATM   17  C   UNL     1     -12.796  13.295  70.715  1.00  0.00    -0.194 C  
HETATM   18  N   UNL     1     -12.638  10.848  70.431  1.00  0.00    -0.314 NA 
HETATM   19  N   UNL     1     -12.860  15.716  71.044  1.00  0.00    -0.481 NA 
HETATM   20  H1  UNL     1     -12.794  10.734  71.432  1.00  0.00     0.000 HD 
HETATM   21  H2  UNL     1     -12.125  10.063  70.030  1.00  0.00     0.000 HD 
HETATM   22  C   UNL     1     -12.065  14.622  70.478  1.00  0.00    -0.321 C  
HETATM   23  C   UNL     1     -11.969  12.135  70.178  1.00  0.00    -0.314 C  
HETATM   24  C   UNL     1     -11.746  14.865  68.962  1.00  0.00    -0.319 C  
BRANCH  24  25
HETATM   25  O   UNL     1     -11.051  16.112  68.691  1.00  0.00    -0.318 OA 
BRANCH  25  26
HETATM   26  C   UNL     1     -10.003  16.063  67.715  1.00  0.00    -0.234 C  
HETATM   27  O   UNL     1     -10.217  17.025  66.679  1.00  0.00    -0.294 OA 
HETATM   28  C   UNL     1     -10.150  18.378  67.153  1.00  0.00    -0.353 C  
HETATM   29  C   UNL     1      -8.728  18.687  67.640  1.00  0.00    -0.272 C  
HETATM   30  H2  UNL     1      -8.406  14.376  69.180  1.00  0.00     0.000 HD 
HETATM   31  C   UNL     1      -8.371  17.719  68.768  1.00  0.00    -0.218 C  
HETATM   32  O   UNL     1      -8.581  20.012  68.172  1.00  0.00    -0.273 OA 
HETATM   33  H1  UNL     1      -7.350  15.474  69.873  1.00  0.00     0.000 HD 
HETATM   34  H   UNL     1      -7.700  20.204  68.473  1.00  0.00     0.000 HD 
HETATM   35  H   UNL     1      -6.775  17.319  69.848  1.00  0.00     0.000 HD 
HETATM   36  N   UNL     1      -8.276  15.346  69.465  1.00  0.00    -0.242 NA 
HETATM   37  O   UNL     1      -6.997  17.921  69.147  1.00  0.00    -0.258 OA 
HETATM   38  C   UNL     1      -8.587  16.259  68.340  1.00  0.00    -0.200 C  
BRANCH  28  39
HETATM   39  C   UNL     1     -10.631  19.291  66.012  1.00  0.00    -0.461 C  
HETATM   40  H2  UNL     1      -8.757  19.795  65.314  1.00  0.00     0.000 HD 
HETATM   41  N   UNL     1      -9.624  20.266  65.571  1.00  0.00    -0.467 NA 
HETATM   42  H1  UNL     1      -9.943  20.871  64.814  1.00  0.00     0.000 HD 
ENDBRANCH  28  39
ENDBRANCH  25  26
ENDBRANCH  24  25
ENDBRANCH  10  11
ENDBRANCH   1  10
BRANCH   5  43
HETATM   43  C   UNL     1     -10.048  11.360  64.796  1.00  0.00    -0.277 C  
HETATM   44  O   UNL     1     -10.102  10.135  65.535  1.00  0.00    -0.289 OA 
HETATM   45  H   UNL     1      -9.219   9.828  65.705  1.00  0.00     0.000 HD 
ENDBRANCH   5  43
TORSDOF 6
ENDMDL
MODEL       12
REMARK 921   NORMALIZED FREE ENERGY PREDICTED BY IDOCK:   -7.07 KCAL/MOL
REMARK 922        TOTAL FREE ENERGY PREDICTED BY IDOCK:  -11.19 KCAL/MOL
REMARK 923 INTER-LIGAND FREE ENERGY PREDICTED BY IDOCK:   -9.40 KCAL/MOL
REMARK 924 INTRA-LIGAND FREE ENERGY PREDICTED BY IDOCK:   -1.79 KCAL/MOL
REMARK 927      BINDING AFFINITY PREDICTED BY RF-SCORE:    0.00 PKD
ROOT
HETATM    1  C   UNL     1     -10.481  16.016  69.208  1.00  0.00    -0.257 C  
HETATM    2  O   UNL     1      -7.494  17.319  68.554  1.00  0.00    -0.220 OA 
HETATM    3  O   UNL     1     -10.561  17.446  69.125  1.00  0.00    -0.321 OA 
HETATM    4  H   UNL     1      -7.400  14.824  68.930  1.00  0.00     0.000 HD 
HETATM    5  C   UNL     1      -9.814  17.886  67.976  1.00  0.00    -0.320 C  
HETATM    6  H   UNL     1      -6.778  16.700  68.464  1.00  0.00     0.000 HD 
HETATM    7  C   UNL     1      -8.668  16.895  67.834  1.00  0.00    -0.213 C  
HETATM    8  O   UNL     1      -8.197  15.078  69.380  1.00  0.00    -0.196 OA 
HETATM    9  C   UNL     1      -9.183  15.604  68.476  1.00  0.00    -0.197 C  
ENDROOT
BRANCH   1  10
HETATM   10  O   UNL     1     -11.603  15.416  68.556  1.00  0.00    -0.336 OA 
BRANCH  10  11
HETATM   11  C   UNL     1     -12.285  14.324  69.233  1.00  0.00    -0.252 C  
HETATM   12  O   UNL     1     -13.461  15.818  70.742  1.00  0.00    -0.756 OA 
HETATM   13  H2  UNL     1     -12.032   9.837  70.450  1.00  0.00     0.000 HD 
HETATM   14  H   UNL     1     -13.663  16.028  71.646  1.00  0.00     0.000 HD 
HETATM   15  C   UNL     1     -12.612  14.663  70.695  1.00  0.00    -0.357 C  
HETATM   16  H1  UNL     1     -11.421  10.281  68.933  1.00  0.00     0.000 HD 
HETATM   17  C   UNL     1     -12.547  12.254  71.376  1.00  0.00    -0.303 C  
HETATM   18  N   UNL     1     -13.623  13.944  72.817  1.00  0.00    -0.699 NA 
HETATM   19  N   UNL     1     -11.574  10.564  69.901  1.00  0.00    -0.283 NA 
HETATM   20  H1  UNL     1     -14.119  13.197  73.302  1.00  0.00     0.000 HD 
HETATM   21  H2  UNL     1     -14.119  14.834  72.872  1.00  0.00     0.000 HD 
HETATM   22  C   UNL     1     -12.317  11.829  69.920  1.00  0.00    -0.132 C  
HETATM   23  C   UNL     1     -13.359  13.541  71.425  1.00  0.00    -0.221 C  
HETATM   24  C   UNL     1     -11.590  12.937  69.083  1.00  0.00    -0.322 C  
BRANCH  24  25
HETATM   25  O   UNL     1     -11.353  12.576  67.696  1.00  0.00    -0.267 OA 
BRANCH  25  26
HETATM   26  C   UNL     1     -10.017  12.749  67.207  1.00  0.00    -0.219 C  
HETATM   27  O   UNL     1      -9.261  11.542  67.332  1.00  0.00    -0.163 OA 
HETATM   28  C   UNL     1      -9.768  10.481  66.509  1.00  0.00    -0.192 C  
HETATM   29  C   UNL     1      -9.608  10.851  65.028  1.00  0.00    -0.251 C  
HETATM   30  H2  UNL     1     -10.494  15.222  66.111  1.00  0.00     0.000 HD 
HETATM   31  C   UNL     1     -10.384  12.140  64.756  1.00  0.00    -0.288 C  
HETATM   32  O   UNL     1     -10.130   9.860  64.131  1.00  0.00    -0.450 OA 
HETATM   33  H1  UNL     1     -10.745  14.807  64.509  1.00  0.00     0.000 HD 
HETATM   34  H   UNL     1     -10.031  10.089  63.214  1.00  0.00     0.000 HD 
HETATM   35  H   UNL     1     -10.623  13.363  63.232  1.00  0.00     0.000 HD 
HETATM   36  N   UNL     1     -10.772  14.477  65.474  1.00  0.00    -0.320 NA 
HETATM   37  O   UNL     1     -10.141  12.561  63.401  1.00  0.00    -0.396 OA 
HETATM   38  C   UNL     1      -9.975  13.255  65.732  1.00  0.00    -0.251 C  
BRANCH  28  39
HETATM   39  C   UNL     1      -9.030   9.192  66.911  1.00  0.00    -0.123 C  
HETATM   40  H2  UNL     1      -9.374   8.169  65.154  1.00  0.00     0.000 HD 
HETATM   41  N   UNL     1      -9.456   8.006  66.157  1.00  0.00    -0.384 NA 
HETATM   42  H1  UNL     1      -8.967   7.151  66.424  1.00  0.00     0.000 HD 
ENDBRANCH  28  39
ENDBRANCH  25  26
ENDBRANCH  24  25
ENDBRANCH  10  11
ENDBRANCH   1  10
BRANCH   5  43
HETATM   43  C   UNL     1     -10.681  17.954  66.712  1.00  0.00    -0.149 C  
HETATM   44  O   UNL     1      -9.927  17.482  65.590  1.00  0.00    -0.561 OA 
HETATM   45  H   UNL     1     -10.464  17.524  64.807  1.00  0.00     0.000 HD 
ENDBRANCH   5  43
TORSDOF 6
ENDMDL
MODEL       13
REMARK 921   NORMALIZED FREE ENERGY PREDICTED BY IDOCK:   -7.06 KCAL/MOL
REMARK 922        TOTAL FREE ENERGY PREDICTED BY IDOCK:  -11.19 KCAL/MOL
REMARK 923 INTER-LIGAND FREE ENERGY PREDICTED BY IDOCK:   -8.95 KCAL/MOL
REMARK 924 INTRA-LIGAND FREE ENERGY PREDICTED BY IDOCK:   -2.24 KCAL/MOL
REMARK 927      BINDING AFFINITY PREDICTED BY RF-SCORE:    0.00 PKD
ROOT
HETATM    1  C   UNL     1     -10.717  10.646  66.501  1.00  0.00    -0.151 C  
HETATM    2  O   UNL     1     -11.080  11.268  63.256  1.00  0.00    -0.771 OA 
HETATM    3  O   UNL     1     -10.226   9.548  65.718  1.00  0.00    -0.255 OA 
HETATM    4  H   UNL     1     -12.117  13.056  64.705  1.00  0.00     0.000 HD 
HETATM    5  C   UNL     1      -9.436  10.070  64.634  1.00  0.00    -0.305 C  
HETATM    6  H   UNL     1     -11.475  12.102  63.031  1.00  0.00     0.000 HD 
HETATM    7  C   UNL     1     -10.070  11.406  64.275  1.00  0.00    -0.297 C  
HETATM    8  O   UNL     1     -12.095  12.301  65.281  1.00  0.00    -0.431 OA 
HETATM    9  C   UNL     1     -10.752  11.875  65.563  1.00  0.00    -0.283 C  
ENDROOT
BRANCH   1  10
HETATM   10  O   UNL     1      -9.836  10.911  67.595  1.00  0.00    -0.168 OA 
BRANCH  10  11
HETATM   11  C   UNL     1     -10.155  10.327  68.889  1.00  0.00    -0.204 C  
HETATM   12  O   UNL     1      -9.209   8.171  68.297  1.00  0.00    -0.135 OA 
HETATM   13  H2  UNL     1     -13.073  10.448  72.514  1.00  0.00     0.000 HD 
HETATM   14  H   UNL     1      -9.355   7.234  68.241  1.00  0.00     0.000 HD 
HETATM   15  C   UNL     1     -10.391   8.811  68.798  1.00  0.00    -0.213 C  
HETATM   16  H1  UNL     1     -12.645  11.921  71.794  1.00  0.00     0.000 HD 
HETATM   17  C   UNL     1     -11.917   8.826  70.784  1.00  0.00    -0.161 C  
HETATM   18  N   UNL     1     -10.920   6.719  69.972  1.00  0.00    -0.274 NA 
HETATM   19  N   UNL     1     -12.820  10.926  71.650  1.00  0.00    -0.449 NA 
HETATM   20  H1  UNL     1     -11.126   6.289  70.874  1.00  0.00     0.000 HD 
HETATM   21  H2  UNL     1     -10.137   6.267  69.500  1.00  0.00     0.000 HD 
HETATM   22  C   UNL     1     -11.653  10.322  71.000  1.00  0.00    -0.343 C  
HETATM   23  C   UNL     1     -10.700   8.164  70.153  1.00  0.00    -0.243 C  
HETATM   24  C   UNL     1     -11.289  11.061  69.667  1.00  0.00    -0.292 C  
BRANCH  24  25
HETATM   25  O   UNL     1     -11.029  12.482  69.825  1.00  0.00     0.072 OA 
BRANCH  25  26
HETATM   26  C   UNL     1     -11.856  13.374  69.068  1.00  0.00    -0.335 C  
HETATM   27  O   UNL     1     -13.035  13.728  69.794  1.00  0.00     0.131 OA 
HETATM   28  C   UNL     1     -12.752  14.484  70.981  1.00  0.00    -0.343 C  
HETATM   29  C   UNL     1     -12.147  15.842  70.599  1.00  0.00    -0.388 C  
HETATM   30  H2  UNL     1      -9.986  13.802  67.101  1.00  0.00     0.000 HD 
HETATM   31  C   UNL     1     -10.859  15.604  69.811  1.00  0.00    -0.308 C  
HETATM   32  O   UNL     1     -11.793  16.650  71.732  1.00  0.00    -0.650 OA 
HETATM   33  H1  UNL     1      -9.333  15.258  67.607  1.00  0.00     0.000 HD 
HETATM   34  H   UNL     1     -11.419  17.490  71.495  1.00  0.00     0.000 HD 
HETATM   35  H   UNL     1      -9.550  16.718  68.854  1.00  0.00     0.000 HD 
HETATM   36  N   UNL     1      -9.827  14.415  67.900  1.00  0.00    -0.220 NA 
HETATM   37  O   UNL     1     -10.350  16.866  69.344  1.00  0.00    -0.298 OA 
HETATM   38  C   UNL     1     -11.099  14.663  68.619  1.00  0.00    -0.262 C  
BRANCH  28  39
HETATM   39  C   UNL     1     -14.060  14.589  71.784  1.00  0.00    -0.495 C  
HETATM   40  H2  UNL     1     -13.617  13.102  73.143  1.00  0.00     0.000 HD 
HETATM   41  N   UNL     1     -14.392  13.372  72.536  1.00  0.00    -0.631 NA 
HETATM   42  H1  UNL     1     -15.259  13.441  73.069  1.00  0.00     0.000 HD 
ENDBRANCH  28  39
ENDBRANCH  25  26
ENDBRANCH  24  25
ENDBRANCH  10  11
ENDBRANCH   1  10
BRANCH   5  43
HETATM   43  C   UNL     1      -7.956  10.215  65.012  1.00  0.00    -0.146 C  
HETATM   44  O   UNL     1      -7.669   9.387  66.145  1.00  0.00    -0.098 OA 
HETATM   45  H   UNL     1      -6.753   9.477  66.379  1.00  0.00     0.000 HD 
ENDBRANCH   5  43
TORSDOF 6
ENDMDL
MODEL       14
REMARK 921   NORMALIZED FREE ENERGY PREDICTED BY IDOCK:   -7.04 KCAL/MOL
REMARK 922        TOTAL FREE ENERGY PREDICTED BY IDOCK:  -11.15 KCAL/MOL
REMARK 923 INTER-LIGAND FREE ENERGY PREDICTED BY IDOCK:   -9.45 KCAL/MOL
REMARK 924 INTRA-LIGAND FREE ENERGY PREDICTED BY IDOCK:   -1.71 KCAL/MOL
REMARK 927      BINDING AFFINITY PREDICTED BY RF-SCORE:    0.00 PKD
ROOT
HETATM    1  C   UNL     1     -10.649   8.975  68.304  1.00  0.00    -0.163 C  
HETATM    2  O   UNL     1      -9.928   5.911  69.371  1.00  0.00    -0.157 OA 
HETATM    3  O   UNL     1     -10.343   8.988  69.706  1.00  0.00    -0.197 OA 
HETATM    4  H   UNL     1     -10.690   5.943  66.964  1.00  0.00     0.000 HD 
HETATM    5  C   UNL     1      -9.173   8.181  69.931  1.00  0.00    -0.151 C  
HETATM    6  H   UNL     1      -9.966   5.221  68.719  1.00  0.00     0.000 HD 
HETATM    7  C   UNL     1      -9.234   7.076  68.886  1.00  0.00    -0.136 C  
HETATM    8  O   UNL     1     -11.060   6.743  67.316  1.00  0.00    -0.358 OA 
HETATM    9  C   UNL     1     -10.045   7.671  67.732  1.00  0.00    -0.186 C  
ENDROOT
BRANCH   1  10
HETATM   10  O   UNL     1     -10.051  10.099  67.653  1.00  0.00    -0.173 OA 
BRANCH  10  11
HETATM   11  C   UNL     1     -10.812  10.773  66.612  1.00  0.00    -0.164 C  
HETATM   12  O   UNL     1      -9.870   9.398  64.848  1.00  0.00    -0.415 OA 
HETATM   13  H2  UNL     1     -12.832  14.772  65.345  1.00  0.00     0.000 HD 
HETATM   14  H   UNL     1      -9.420   9.387  64.011  1.00  0.00     0.000 HD 
HETATM   15  C   UNL     1     -10.085  10.755  65.259  1.00  0.00    -0.290 C  
HETATM   16  H1  UNL     1     -12.927  14.319  66.975  1.00  0.00     0.000 HD 
HETATM   17  C   UNL     1     -11.199  12.871  64.516  1.00  0.00    -0.372 C  
HETATM   18  N   UNL     1     -10.107  11.378  62.882  1.00  0.00    -0.627 NA 
HETATM   19  N   UNL     1     -12.370  14.297  66.120  1.00  0.00    -0.425 NA 
HETATM   20  H1  UNL     1     -10.635  11.829  62.135  1.00  0.00     0.000 HD 
HETATM   21  H2  UNL     1      -9.835  10.426  62.639  1.00  0.00     0.000 HD 
HETATM   22  C   UNL     1     -12.036  12.905  65.801  1.00  0.00    -0.443 C  
HETATM   23  C   UNL     1     -10.878  11.433  64.136  1.00  0.00    -0.365 C  
HETATM   24  C   UNL     1     -11.316  12.196  67.000  1.00  0.00    -0.337 C  
BRANCH  24  25
HETATM   25  O   UNL     1     -12.075  12.202  68.239  1.00  0.00    -0.407 OA 
BRANCH  25  26
HETATM   26  C   UNL     1     -11.350  12.523  69.433  1.00  0.00    -0.210 C  
HETATM   27  O   UNL     1     -10.874  13.871  69.402  1.00  0.00    -0.186 OA 
HETATM   28  C   UNL     1     -11.936  14.836  69.403  1.00  0.00    -0.303 C  
HETATM   29  C   UNL     1     -12.706  14.760  70.729  1.00  0.00    -0.362 C  
HETATM   30  H2  UNL     1     -12.051  10.217  70.750  1.00  0.00     0.000 HD 
HETATM   31  C   UNL     1     -13.280  13.351  70.885  1.00  0.00     0.051 C  
HETATM   32  O   UNL     1     -13.817  15.666  70.799  1.00  0.00    -0.850 OA 
HETATM   33  H1  UNL     1     -13.323  10.771  71.688  1.00  0.00     0.000 HD 
HETATM   34  H   UNL     1     -14.293  15.619  71.619  1.00  0.00     0.000 HD 
HETATM   35  H   UNL     1     -14.254  12.358  72.276  1.00  0.00     0.000 HD 
HETATM   36  N   UNL     1     -12.776  10.928  70.841  1.00  0.00    -0.367 NA 
HETATM   37  O   UNL     1     -13.898  13.233  72.179  1.00  0.00    -0.497 OA 
HETATM   38  C   UNL     1     -12.186  12.282  70.729  1.00  0.00    -0.260 C  
BRANCH  28  39
HETATM   39  C   UNL     1     -11.308  16.213  69.127  1.00  0.00    -0.323 C  
HETATM   40  H2  UNL     1     -11.445  16.122  67.071  1.00  0.00     0.000 HD 
HETATM   41  N   UNL     1     -10.744  16.346  67.777  1.00  0.00    -0.331 NA 
HETATM   42  H1  UNL     1     -10.328  17.260  67.593  1.00  0.00     0.000 HD 
ENDBRANCH  28  39
ENDBRANCH  25  26
ENDBRANCH  24  25
ENDBRANCH  10  11
ENDBRANCH   1  10
BRANCH   5  43
HETATM   43  C   UNL     1      -7.878   8.999  69.834  1.00  0.00    -0.090 C  
HETATM   44  O   UNL     1      -8.164  10.379  70.087  1.00  0.00    -0.352 OA 
HETATM   45  H   UNL     1      -7.363  10.885  70.027  1.00  0.00     0.000 HD 
ENDBRANCH   5  43
TORSDOF 6
ENDMDL
MODEL       15
REMARK 921   NORMALIZED FREE ENERGY PREDICTED BY IDOCK:   -7.03 KCAL/MOL
REMARK 922        TOTAL FREE ENERGY PREDICTED BY IDOCK:  -11.14 KCAL/MOL
REMARK 923 INTER-LIGAND FREE ENERGY PREDICTED BY IDOCK:   -9.82 KCAL/MOL
REMARK 924 INTRA-LIGAND FREE ENERGY PREDICTED BY IDOCK:   -1.32 KCAL/MOL
REMARK 927      BINDING AFFINITY PREDICTED BY RF-SCORE:    0.00 PKD
ROOT
HETATM    1  C   UNL     1      -9.548  12.475  67.986  1.00  0.00    -0.212 C  
HETATM    2  O   UNL     1     -11.138  10.928  70.462  1.00  0.00    -0.449 OA 
HETATM    3  O   UNL     1      -8.796  11.339  68.436  1.00  0.00    -0.149 OA 
HETATM    4  H   UNL     1     -12.286  13.064  69.760  1.00  0.00     0.000 HD 
HETATM    5  C   UNL     1      -9.695  10.226  68.600  1.00  0.00    -0.167 C  
HETATM    6  H   UNL     1     -11.966  11.309  70.729  1.00  0.00     0.000 HD 
HETATM    7  C   UNL     1     -11.022  10.836  69.028  1.00  0.00    -0.240 C  
HETATM    8  O   UNL     1     -11.392  13.198  69.471  1.00  0.00    -0.234 OA 
HETATM    9  C   UNL     1     -11.005  12.256  68.457  1.00  0.00    -0.240 C  
ENDROOT
BRANCH   1  10
HETATM   10  O   UNL     1      -9.520  12.559  66.559  1.00  0.00    -0.232 OA 
BRANCH  10  11
HETATM   11  C   UNL     1     -10.698  13.075  65.880  1.00  0.00    -0.276 C  
HETATM   12  O   UNL     1     -11.601  10.858  65.479  1.00  0.00     0.307 OA 
HETATM   13  H2  UNL     1     -12.397  16.563  63.306  1.00  0.00     0.000 HD 
HETATM   14  H   UNL     1     -11.938  10.248  64.833  1.00  0.00     0.000 HD 
HETATM   15  C   UNL     1     -11.243  12.088  64.835  1.00  0.00    -0.320 C  
HETATM   16  H1  UNL     1     -11.301  16.951  64.538  1.00  0.00     0.000 HD 
HETATM   17  C   UNL     1     -12.226  13.934  63.456  1.00  0.00    -0.132 C  
HETATM   18  N   UNL     1     -12.951  11.596  63.139  1.00  0.00    -0.837 NA 
HETATM   19  N   UNL     1     -11.584  16.261  63.842  1.00  0.00    -0.988 NA 
HETATM   20  H1  UNL     1     -13.789  11.933  62.666  1.00  0.00     0.000 HD 
HETATM   21  H2  UNL     1     -13.090  10.677  63.558  1.00  0.00     0.000 HD 
HETATM   22  C   UNL     1     -11.800  14.970  64.504  1.00  0.00    -0.371 C  
HETATM   23  C   UNL     1     -12.504  12.595  64.124  1.00  0.00    -0.403 C  
HETATM   24  C   UNL     1     -10.535  14.517  65.311  1.00  0.00    -0.390 C  
BRANCH  24  25
HETATM   25  O   UNL     1     -10.097  15.470  66.317  1.00  0.00    -0.264 OA 
BRANCH  25  26
HETATM   26  C   UNL     1      -8.973  16.290  65.978  1.00  0.00    -0.290 C  
HETATM   27  O   UNL     1      -9.379  17.629  65.688  1.00  0.00    -0.435 OA 
HETATM   28  C   UNL     1      -9.933  18.302  66.828  1.00  0.00    -0.352 C  
HETATM   29  C   UNL     1      -8.851  18.481  67.902  1.00  0.00    -0.284 C  
HETATM   30  H2  UNL     1      -7.099  14.414  66.696  1.00  0.00     0.000 HD 
HETATM   31  C   UNL     1      -8.328  17.104  68.310  1.00  0.00    -0.232 C  
HETATM   32  O   UNL     1      -9.331  19.110  69.099  1.00  0.00    -0.297 OA 
HETATM   33  H1  UNL     1      -6.694  14.952  68.228  1.00  0.00     0.000 HD 
HETATM   34  H   UNL     1      -8.661  19.221  69.764  1.00  0.00     0.000 HD 
HETATM   35  H   UNL     1      -6.904  16.411  69.478  1.00  0.00     0.000 HD 
HETATM   36  N   UNL     1      -7.413  14.949  67.504  1.00  0.00    -0.186 NA 
HETATM   37  O   UNL     1      -7.229  17.267  69.225  1.00  0.00    -0.221 OA 
HETATM   38  C   UNL     1      -7.873  16.294  67.085  1.00  0.00    -0.191 C  
BRANCH  28  39
HETATM   39  C   UNL     1     -10.544  19.624  66.333  1.00  0.00    -0.486 C  
HETATM   40  H2  UNL     1      -8.902  20.805  66.738  1.00  0.00     0.000 HD 
HETATM   41  N   UNL     1      -9.908  20.820  66.903  1.00  0.00    -0.604 NA 
HETATM   42  H1  UNL     1     -10.313  21.697  66.574  1.00  0.00     0.000 HD 
ENDBRANCH  28  39
ENDBRANCH  25  26
ENDBRANCH  24  25
ENDBRANCH  10  11
ENDBRANCH   1  10
BRANCH   5  43
HETATM   43  C   UNL     1      -9.827   9.393  67.318  1.00  0.00    -0.179 C  
HETATM   44  O   UNL     1     -10.989   8.561  67.408  1.00  0.00    -0.470 OA 
HETATM   45  H   UNL     1     -11.071   8.045  66.614  1.00  0.00     0.000 HD 
ENDBRANCH   5  43
TORSDOF 6
ENDMDL
MODEL       16
REMARK 921   NORMALIZED FREE ENERGY PREDICTED BY IDOCK:   -7.02 KCAL/MOL
REMARK 922        TOTAL FREE ENERGY PREDICTED BY IDOCK:  -11.13 KCAL/MOL
REMARK 923 INTER-LIGAND FREE ENERGY PREDICTED BY IDOCK:   -9.81 KCAL/MOL
REMARK 924 INTRA-LIGAND FREE ENERGY PREDICTED BY IDOCK:   -1.32 KCAL/MOL
REMARK 927      BINDING AFFINITY PREDICTED BY RF-SCORE:    0.00 PKD
ROOT
HETATM    1  C   UNL     1      -9.776  11.328  65.877  1.00  0.00    -0.224 C  
HETATM    2  O   UNL     1      -8.308  10.523  63.006  1.00  0.00    -0.163 OA 
HETATM    3  O   UNL     1      -9.796  12.440  64.971  1.00  0.00    -0.219 OA 
HETATM    4  H   UNL     1      -8.122   8.691  64.734  1.00  0.00     0.000 HD 
HETATM    5  C   UNL     1     -10.183  11.967  63.667  1.00  0.00    -0.444 C  
HETATM    6  H   UNL     1      -7.966   9.639  62.944  1.00  0.00     0.000 HD 
HETATM    7  C   UNL     1      -9.634  10.551  63.570  1.00  0.00    -0.326 C  
HETATM    8  O   UNL     1      -8.262   9.469  65.261  1.00  0.00    -0.121 OA 
HETATM    9  C   UNL     1      -9.548  10.062  65.018  1.00  0.00    -0.297 C  
ENDROOT
BRANCH   1  10
HETATM   10  O   UNL     1     -11.028  11.217  66.559  1.00  0.00    -0.282 OA 
BRANCH  10  11
HETATM   11  C   UNL     1     -11.029  11.316  68.010  1.00  0.00    -0.247 C  
HETATM   12  O   UNL     1     -10.912   8.910  68.307  1.00  0.00    -0.460 OA 
HETATM   13  H2  UNL     1     -12.427  13.845  71.661  1.00  0.00     0.000 HD 
HETATM   14  H   UNL     1     -11.299   8.146  68.718  1.00  0.00     0.000 HD 
HETATM   15  C   UNL     1     -11.655  10.080  68.674  1.00  0.00     0.149 C  
HETATM   16  H1  UNL     1     -11.911  14.674  70.276  1.00  0.00     0.000 HD 
HETATM   17  C   UNL     1     -12.368  11.394  70.684  1.00  0.00    -0.466 C  
HETATM   18  N   UNL     1     -12.266   8.929  70.758  1.00  0.00    -0.484 NA 
HETATM   19  N   UNL     1     -12.368  13.839  70.643  1.00  0.00    -0.360 NA 
HETATM   20  H1  UNL     1     -12.258   8.972  71.777  1.00  0.00     0.000 HD 
HETATM   21  H2  UNL     1     -11.829   8.078  70.405  1.00  0.00     0.000 HD 
HETATM   22  C   UNL     1     -11.680  12.649  70.132  1.00  0.00    -0.168 C  
HETATM   23  C   UNL     1     -11.643  10.144  70.206  1.00  0.00    -0.302 C  
HETATM   24  C   UNL     1     -11.611  12.651  68.566  1.00  0.00    -0.323 C  
BRANCH  24  25
HETATM   25  O   UNL     1     -10.965  13.822  67.999  1.00  0.00    -0.241 OA 
BRANCH  25  26
HETATM   26  C   UNL     1     -11.783  14.986  67.824  1.00  0.00    -0.274 C  
HETATM   27  O   UNL     1     -11.175  16.138  68.412  1.00  0.00    -0.345 OA 
HETATM   28  C   UNL     1      -9.948  16.510  67.766  1.00  0.00    -0.253 C  
HETATM   29  C   UNL     1     -10.233  16.953  66.324  1.00  0.00    -0.329 C  
HETATM   30  H2  UNL     1     -13.535  13.773  66.091  1.00  0.00     0.000 HD 
HETATM   31  C   UNL     1     -10.890  15.793  65.574  1.00  0.00    -0.332 C  
HETATM   32  O   UNL     1      -9.052  17.303  65.588  1.00  0.00    -0.487 OA 
HETATM   33  H1  UNL     1     -12.931  14.300  64.622  1.00  0.00     0.000 HD 
HETATM   34  H   UNL     1      -9.229  17.577  64.696  1.00  0.00     0.000 HD 
HETATM   35  H   UNL     1     -11.680  15.517  63.793  1.00  0.00     0.000 HD 
HETATM   36  N   UNL     1     -12.710  14.117  65.600  1.00  0.00    -0.509 NA 
HETATM   37  O   UNL     1     -11.272  16.238  64.259  1.00  0.00    -0.770 OA 
HETATM   38  C   UNL     1     -12.121  15.266  66.327  1.00  0.00     0.445 C  
BRANCH  28  39
HETATM   39  C   UNL     1      -9.282  17.595  68.630  1.00  0.00    -0.266 C  
HETATM   40  H2  UNL     1     -11.025  18.379  69.404  1.00  0.00     0.000 HD 
HETATM   41  N   UNL     1     -10.171  18.716  68.962  1.00  0.00    -0.479 NA 
HETATM   42  H1  UNL     1      -9.729  19.436  69.535  1.00  0.00     0.000 HD 
ENDBRANCH  28  39
ENDBRANCH  25  26
ENDBRANCH  24  25
ENDBRANCH  10  11
ENDBRANCH   1  10
BRANCH   5  43
HETATM   43  C   UNL     1     -11.702  12.015  63.460  1.00  0.00    -0.472 C  
HETATM   44  O   UNL     1     -12.070  13.287  62.916  1.00  0.00    -0.760 OA 
HETATM   45  H   UNL     1     -13.011  13.317  62.788  1.00  0.00     0.000 HD 
ENDBRANCH   5  43
TORSDOF 6
ENDMDL
MODEL       17
REMARK 921   NORMALIZED FREE ENERGY PREDICTED BY IDOCK:   -7.01 KCAL/MOL
REMARK 922        TOTAL FREE ENERGY PREDICTED BY IDOCK:  -11.11 KCAL/MOL
REMARK 923 INTER-LIGAND FREE ENERGY PREDICTED BY IDOCK:  -10.07 KCAL/MOL
REMARK 924 INTRA-LIGAND FREE ENERGY PREDICTED BY IDOCK:   -1.04 KCAL/MOL
REMARK 927      BINDING AFFINITY PREDICTED BY RF-SCORE:    0.00 PKD
ROOT
HETATM    1  C   UNL     1     -12.683  13.258  70.598  1.00  0.00    -0.156 C  
HETATM    2  O   UNL     1     -13.660  16.102  72.016  1.00  0.00    -0.186 OA 
HETATM    3  O   UNL     1     -12.602  14.343  69.662  1.00  0.00    -0.255 OA 
HETATM    4  H   UNL     1     -13.977  14.107  73.530  1.00  0.00     0.000 HD 
HETATM    5  C   UNL     1     -11.999  15.475  70.316  1.00  0.00    -0.374 C  
HETATM    6  H   UNL     1     -13.931  16.045  72.924  1.00  0.00     0.000 HD 
HETATM    7  C   UNL     1     -12.435  15.382  71.771  1.00  0.00    -0.378 C  
HETATM    8  O   UNL     1     -13.967  13.718  72.664  1.00  0.00    -0.710 OA 
HETATM    9  C   UNL     1     -12.700  13.893  72.008  1.00  0.00    -0.245 C  
ENDROOT
BRANCH   1  10
HETATM   10  O   UNL     1     -11.540  12.408  70.476  1.00  0.00    -0.052 OA 
BRANCH  10  11
HETATM   11  C   UNL     1     -11.762  10.981  70.311  1.00  0.00    -0.355 C  
HETATM   12  O   UNL     1     -13.411  10.897  72.090  1.00  0.00    -0.586 OA 
HETATM   13  H2  UNL     1      -9.844   6.948  68.995  1.00  0.00     0.000 HD 
HETATM   14  H   UNL     1     -13.676  10.479  72.902  1.00  0.00     0.000 HD 
HETATM   15  C   UNL     1     -12.191  10.305  71.623  1.00  0.00    -0.291 C  
HETATM   16  H1  UNL     1      -9.445   8.338  68.112  1.00  0.00     0.000 HD 
HETATM   17  C   UNL     1     -11.226   8.102  70.923  1.00  0.00    -0.286 C  
HETATM   18  N   UNL     1     -12.856   8.238  72.772  1.00  0.00    -0.607 NA 
HETATM   19  N   UNL     1      -9.692   7.955  69.025  1.00  0.00    -0.159 NA 
HETATM   20  H1  UNL     1     -13.035   7.239  72.671  1.00  0.00     0.000 HD 
HETATM   21  H2  UNL     1     -13.649   8.731  73.182  1.00  0.00     0.000 HD 
HETATM   22  C   UNL     1     -10.855   8.678  69.551  1.00  0.00    -0.129 C  
HETATM   23  C   UNL     1     -12.461   8.804  71.471  1.00  0.00    -0.326 C  
HETATM   24  C   UNL     1     -10.598  10.223  69.603  1.00  0.00    -0.256 C  
BRANCH  24  25
HETATM   25  O   UNL     1     -10.244  10.812  68.322  1.00  0.00    -0.157 OA 
BRANCH  25  26
HETATM   26  C   UNL     1     -11.127  10.542  67.226  1.00  0.00    -0.213 C  
HETATM   27  O   UNL     1     -11.944  11.677  66.929  1.00  0.00    -0.567 OA 
HETATM   28  C   UNL     1     -11.186  12.801  66.459  1.00  0.00    -0.307 C  
HETATM   29  C   UNL     1     -10.539  12.463  65.109  1.00  0.00    -0.292 C  
HETATM   30  H2  UNL     1      -9.946   8.152  66.567  1.00  0.00     0.000 HD 
HETATM   31  C   UNL     1      -9.623  11.253  65.291  1.00  0.00    -0.232 C  
HETATM   32  O   UNL     1      -9.723  13.522  64.584  1.00  0.00    -0.586 OA 
HETATM   33  H1  UNL     1      -8.955   8.634  65.307  1.00  0.00     0.000 HD 
HETATM   34  H   UNL     1      -9.323  13.312  63.748  1.00  0.00     0.000 HD 
HETATM   35  H   UNL     1      -8.538  10.101  64.120  1.00  0.00     0.000 HD 
HETATM   36  N   UNL     1      -9.449   8.937  66.146  1.00  0.00    -0.234 NA 
HETATM   37  O   UNL     1      -9.108  10.853  64.007  1.00  0.00    -0.189 OA 
HETATM   38  C   UNL     1     -10.371  10.079  65.942  1.00  0.00    -0.132 C  
BRANCH  28  39
HETATM   39  C   UNL     1     -12.135  14.011  66.410  1.00  0.00    -0.455 C  
HETATM   40  H2  UNL     1     -13.429  13.233  65.004  1.00  0.00     0.000 HD 
HETATM   41  N   UNL     1     -12.916  14.100  65.169  1.00  0.00    -0.735 NA 
HETATM   42  H1  UNL     1     -13.546  14.902  65.136  1.00  0.00     0.000 HD 
ENDBRANCH  28  39
ENDBRANCH  25  26
ENDBRANCH  24  25
ENDBRANCH  10  11
ENDBRANCH   1  10
BRANCH   5  43
HETATM   43  C   UNL     1     -10.472  15.484  70.168  1.00  0.00    -0.301 C  
HETATM   44  O   UNL     1     -10.082  14.526  69.179  1.00  0.00    -0.318 OA 
HETATM   45  H   UNL     1      -9.137  14.531  69.088  1.00  0.00     0.000 HD 
ENDBRANCH   5  43
TORSDOF 6
ENDMDL
MODEL       18
REMARK 921   NORMALIZED FREE ENERGY PREDICTED BY IDOCK:   -6.98 KCAL/MOL
REMARK 922        TOTAL FREE ENERGY PREDICTED BY IDOCK:  -11.08 KCAL/MOL
REMARK 923 INTER-LIGAND FREE ENERGY PREDICTED BY IDOCK:   -9.83 KCAL/MOL
REMARK 924 INTRA-LIGAND FREE ENERGY PREDICTED BY IDOCK:   -1.25 KCAL/MOL
REMARK 927      BINDING AFFINITY PREDICTED BY RF-SCORE:    0.00 PKD
ROOT
HETATM    1  C   UNL     1     -12.890  13.286  70.415  1.00  0.00     0.085 C  
HETATM    2  O   UNL     1     -14.229  15.488  72.515  1.00  0.00    -0.548 OA 
HETATM    3  O   UNL     1     -12.908  14.596  69.830  1.00  0.00    -0.121 OA 
HETATM    4  H   UNL     1     -14.360  13.121  73.383  1.00  0.00     0.000 HD 
HETATM    5  C   UNL     1     -12.458  15.548  70.812  1.00  0.00    -0.440 C  
HETATM    6  H   UNL     1     -14.519  15.145  73.352  1.00  0.00     0.000 HD 
HETATM    7  C   UNL     1     -12.923  14.998  72.153  1.00  0.00    -0.342 C  
HETATM    8  O   UNL     1     -14.279  13.000  72.444  1.00  0.00    -0.504 OA 
HETATM    9  C   UNL     1     -13.022  13.484  71.944  1.00  0.00    -0.337 C  
ENDROOT
BRANCH   1  10
HETATM   10  O   UNL     1     -11.654  12.628  70.128  1.00  0.00    -0.210 OA 
BRANCH  10  11
HETATM   11  C   UNL     1     -11.704  11.263  69.629  1.00  0.00    -0.350 C  
HETATM   12  O   UNL     1     -12.174  10.337  71.823  1.00  0.00    -0.351 OA 
HETATM   13  H2  UNL     1     -10.128   8.330  66.375  1.00  0.00     0.000 HD 
HETATM   14  H   UNL     1     -11.919   9.704  72.484  1.00  0.00     0.000 HD 
HETATM   15  C   UNL     1     -11.291  10.239  70.699  1.00  0.00    -0.347 C  
HETATM   16  H1  UNL     1     -10.459   9.925  65.909  1.00  0.00     0.000 HD 
HETATM   17  C   UNL     1     -10.490   8.609  68.974  1.00  0.00    -0.216 C  
HETATM   18  N   UNL     1     -10.943   7.879  71.288  1.00  0.00    -0.235 NA 
HETATM   19  N   UNL     1     -10.141   9.309  66.658  1.00  0.00    -0.263 NA 
HETATM   20  H1  UNL     1     -10.991   6.915  70.962  1.00  0.00     0.000 HD 
HETATM   21  H2  UNL     1     -11.481   8.023  72.143  1.00  0.00     0.000 HD 
HETATM   22  C   UNL     1     -10.968   9.535  67.849  1.00  0.00    -0.110 C  
HETATM   23  C   UNL     1     -11.363   8.789  70.208  1.00  0.00    -0.147 C  
HETATM   24  C   UNL     1     -10.964  11.043  68.275  1.00  0.00    -0.235 C  
BRANCH  24  25
HETATM   25  O   UNL     1     -11.412  11.957  67.238  1.00  0.00    -0.319 OA 
BRANCH  25  26
HETATM   26  C   UNL     1     -10.426  12.842  66.693  1.00  0.00    -0.263 C  
HETATM   27  O   UNL     1      -9.680  12.207  65.652  1.00  0.00    -0.242 OA 
HETATM   28  C   UNL     1     -10.485  11.883  64.509  1.00  0.00    -0.296 C  
HETATM   29  C   UNL     1     -10.993  13.172  63.849  1.00  0.00    -0.274 C  
HETATM   30  H2  UNL     1     -11.358  15.062  68.016  1.00  0.00     0.000 HD 
HETATM   31  C   UNL     1     -11.822  13.954  64.869  1.00  0.00    -0.387 C  
HETATM   32  O   UNL     1     -11.845  12.939  62.718  1.00  0.00    -0.673 OA 
HETATM   33  H1  UNL     1     -12.279  15.774  66.814  1.00  0.00     0.000 HD 
HETATM   34  H   UNL     1     -12.159  13.737  62.309  1.00  0.00     0.000 HD 
HETATM   35  H   UNL     1     -12.714  15.707  64.932  1.00  0.00     0.000 HD 
HETATM   36  N   UNL     1     -11.879  14.900  67.155  1.00  0.00    -0.291 NA 
HETATM   37  O   UNL     1     -12.199  15.221  64.299  1.00  0.00    -0.539 OA 
HETATM   38  C   UNL     1     -11.038  14.179  66.171  1.00  0.00    -0.312 C  
BRANCH  28  39
HETATM   39  C   UNL     1      -9.633  11.001  63.580  1.00  0.00    -0.313 C  
HETATM   40  H2  UNL     1     -10.808  11.232  61.900  1.00  0.00     0.000 HD 
HETATM   41  N   UNL     1     -10.371  10.474  62.424  1.00  0.00    -0.577 NA 
HETATM   42  H1  UNL     1      -9.806   9.890  61.807  1.00  0.00     0.000 HD 
ENDBRANCH  28  39
ENDBRANCH  25  26
ENDBRANCH  24  25
ENDBRANCH  10  11
ENDBRANCH   1  10
BRANCH   5  43
HETATM   43  C   UNL     1     -10.939  15.754  70.767  1.00  0.00    -0.281 C  
HETATM   44  O   UNL     1     -10.378  14.950  69.723  1.00  0.00    -0.392 OA 
HETATM   45  H   UNL     1      -9.437  15.078  69.695  1.00  0.00     0.000 HD 
ENDBRANCH   5  43
TORSDOF 6
ENDMDL
MODEL       19
REMARK 921   NORMALIZED FREE ENERGY PREDICTED BY IDOCK:   -6.97 KCAL/MOL
REMARK 922        TOTAL FREE ENERGY PREDICTED BY IDOCK:  -11.06 KCAL/MOL
REMARK 923 INTER-LIGAND FREE ENERGY PREDICTED BY IDOCK:   -9.45 KCAL/MOL
REMARK 924 INTRA-LIGAND FREE ENERGY PREDICTED BY IDOCK:   -1.62 KCAL/MOL
REMARK 927      BINDING AFFINITY PREDICTED BY RF-SCORE:    0.00 PKD
ROOT
HETATM    1  C   UNL     1     -10.801  12.225  65.217  1.00  0.00    -0.293 C  
HETATM    2  O   UNL     1     -12.611  14.433  63.515  1.00  0.00    -1.043 OA 
HETATM    3  O   UNL     1      -9.955  13.216  64.618  1.00  0.00    -0.245 OA 
HETATM    4  H   UNL     1     -14.005  12.532  64.420  1.00  0.00     0.000 HD 
HETATM    5  C   UNL     1     -10.539  14.514  64.833  1.00  0.00    -0.427 C  
HETATM    6  H   UNL     1     -13.551  14.292  63.514  1.00  0.00     0.000 HD 
HETATM    7  C   UNL     1     -12.044  14.288  64.831  1.00  0.00    -0.435 C  
HETATM    8  O   UNL     1     -13.132  12.159  64.386  1.00  0.00    -0.740 OA 
HETATM    9  C   UNL     1     -12.223  12.832  65.272  1.00  0.00    -0.483 C  
ENDROOT
BRANCH   1  10
HETATM   10  O   UNL     1     -10.361  11.931  66.546  1.00  0.00    -0.210 OA 
BRANCH  10  11
HETATM   11  C   UNL     1      -9.717  10.649  66.786  1.00  0.00    -0.185 C  
HETATM   12  O   UNL     1      -7.799  11.205  65.405  1.00  0.00    -0.363 OA 
HETATM   13  H2  UNL     1     -10.415   6.148  67.747  1.00  0.00     0.000 HD 
HETATM   14  H   UNL     1      -7.246  10.940  64.679  1.00  0.00     0.000 HD 
HETATM   15  C   UNL     1      -8.822  10.221  65.612  1.00  0.00    -0.168 C  
HETATM   16  H1  UNL     1     -11.430   7.282  68.492  1.00  0.00     0.000 HD 
HETATM   17  C   UNL     1      -9.123   7.791  66.136  1.00  0.00    -0.199 C  
HETATM   18  N   UNL     1      -7.282   8.550  64.679  1.00  0.00    -0.084 NA 
HETATM   19  N   UNL     1     -10.884   7.049  67.662  1.00  0.00    -0.251 NA 
HETATM   20  H1  UNL     1      -6.806   7.662  64.838  1.00  0.00     0.000 HD 
HETATM   21  H2  UNL     1      -6.631   9.297  64.438  1.00  0.00     0.000 HD 
HETATM   22  C   UNL     1      -9.944   8.141  67.383  1.00  0.00    -0.209 C  
HETATM   23  C   UNL     1      -8.106   8.887  65.851  1.00  0.00    -0.109 C  
HETATM   24  C   UNL     1     -10.684   9.516  67.243  1.00  0.00    -0.199 C  
BRANCH  24  25
HETATM   25  O   UNL     1     -11.474   9.889  68.405  1.00  0.00    -0.068 OA 
BRANCH  25  26
HETATM   26  C   UNL     1     -10.748  10.207  69.599  1.00  0.00    -0.264 C  
HETATM   27  O   UNL     1     -10.715  11.619  69.822  1.00  0.00     0.030 OA 
HETATM   28  C   UNL     1     -12.014  12.173  70.079  1.00  0.00    -0.315 C  
HETATM   29  C   UNL     1     -12.563  11.615  71.400  1.00  0.00    -0.286 C  
HETATM   30  H2  UNL     1     -10.550   7.602  70.446  1.00  0.00     0.000 HD 
HETATM   31  C   UNL     1     -12.655  10.093  71.292  1.00  0.00    -0.404 C  
HETATM   32  O   UNL     1     -13.882  12.086  71.715  1.00  0.00     0.131 OA 
HETATM   33  H1  UNL     1     -11.811   7.538  71.545  1.00  0.00     0.000 HD 
HETATM   34  H   UNL     1     -14.222  11.741  72.532  1.00  0.00     0.000 HD 
HETATM   35  H   UNL     1     -13.109   8.606  72.498  1.00  0.00     0.000 HD 
HETATM   36  N   UNL     1     -11.442   8.012  70.721  1.00  0.00    -0.278 NA 
HETATM   37  O   UNL     1     -13.052   9.552  72.565  1.00  0.00    -0.383 OA 
HETATM   38  C   UNL     1     -11.313   9.481  70.860  1.00  0.00    -0.341 C  
BRANCH  28  39
HETATM   39  C   UNL     1     -11.875  13.705  70.060  1.00  0.00    -0.308 C  
HETATM   40  H2  UNL     1     -13.368  14.056  68.682  1.00  0.00     0.000 HD 
HETATM   41  N   UNL     1     -12.399  14.332  68.839  1.00  0.00    -0.570 NA 
HETATM   42  H1  UNL     1     -12.307  15.348  68.827  1.00  0.00     0.000 HD 
ENDBRANCH  28  39
ENDBRANCH  25  26
ENDBRANCH  24  25
ENDBRANCH  10  11
ENDBRANCH   1  10
BRANCH   5  43
HETATM   43  C   UNL     1     -10.052  15.160  66.136  1.00  0.00    -0.295 C  
HETATM   44  O   UNL     1      -8.725  14.707  66.428  1.00  0.00    -0.452 OA 
HETATM   45  H   UNL     1      -8.424  15.106  67.235  1.00  0.00     0.000 HD 
ENDBRANCH   5  43
TORSDOF 6
ENDMDL
MODEL       20
REMARK 921   NORMALIZED FREE ENERGY PREDICTED BY IDOCK:   -6.95 KCAL/MOL
REMARK 922        TOTAL FREE ENERGY PREDICTED BY IDOCK:  -11.03 KCAL/MOL
REMARK 923 INTER-LIGAND FREE ENERGY PREDICTED BY IDOCK:   -9.57 KCAL/MOL
REMARK 924 INTRA-LIGAND FREE ENERGY PREDICTED BY IDOCK:   -1.46 KCAL/MOL
REMARK 927      BINDING AFFINITY PREDICTED BY RF-SCORE:    0.00 PKD
ROOT
HETATM    1  C   UNL     1     -10.808   8.500  70.530  1.00  0.00    -0.228 C  
HETATM    2  O   UNL     1     -10.815   7.109  73.550  1.00  0.00    -0.483 OA 
HETATM    3  O   UNL     1     -11.702   7.378  70.568  1.00  0.00    -0.269 OA 
HETATM    4  H   UNL     1      -9.105   8.955  73.339  1.00  0.00     0.000 HD 
HETATM    5  C   UNL     1     -12.482   7.448  71.776  1.00  0.00    -0.336 C  
HETATM    6  H   UNL     1     -10.246   7.510  74.196  1.00  0.00     0.000 HD 
HETATM    7  C   UNL     1     -11.569   8.090  72.811  1.00  0.00    -0.327 C  
HETATM    8  O   UNL     1      -9.242   8.686  72.438  1.00  0.00    -0.275 OA 
HETATM    9  C   UNL     1     -10.586   8.936  71.998  1.00  0.00    -0.318 C  
ENDROOT
BRANCH   1  10
HETATM   10  O   UNL     1     -11.393   9.580  69.799  1.00  0.00    -0.195 OA 
BRANCH  10  11
HETATM   11  C   UNL     1     -10.835   9.906  68.496  1.00  0.00    -0.217 C  
HETATM   12  O   UNL     1     -11.326   7.708  67.589  1.00  0.00    -0.327 OA 
HETATM   13  H2  UNL     1      -7.701  12.494  66.225  1.00  0.00     0.000 HD 
HETATM   14  H   UNL     1     -10.980   6.942  67.145  1.00  0.00     0.000 HD 
HETATM   15  C   UNL     1     -10.276   8.667  67.778  1.00  0.00    -0.225 C  
HETATM   16  H1  UNL     1      -8.510  13.201  67.535  1.00  0.00     0.000 HD 
HETATM   17  C   UNL     1      -8.618  10.034  66.491  1.00  0.00    -0.131 C  
HETATM   18  N   UNL     1      -9.189   7.741  65.779  1.00  0.00    -0.397 NA 
HETATM   19  N   UNL     1      -8.131  12.341  67.137  1.00  0.00    -0.179 NA 
HETATM   20  H1  UNL     1      -8.811   7.947  64.854  1.00  0.00     0.000 HD 
HETATM   21  H2  UNL     1      -9.890   7.001  65.751  1.00  0.00     0.000 HD 
HETATM   22  C   UNL     1      -9.188  11.325  67.091  1.00  0.00    -0.163 C  
HETATM   23  C   UNL     1      -9.709   8.977  66.388  1.00  0.00    -0.268 C  
HETATM   24  C   UNL     1      -9.828  11.096  68.503  1.00  0.00    -0.198 C  
BRANCH  24  25
HETATM   25  O   UNL     1     -10.383  12.294  69.108  1.00  0.00    -0.039 OA 
BRANCH  25  26
HETATM   26  C   UNL     1     -11.717  12.649  68.723  1.00  0.00    -0.323 C  
HETATM   27  O   UNL     1     -12.613  12.575  69.834  1.00  0.00     0.019 OA 
HETATM   28  C   UNL     1     -12.311  13.533  70.858  1.00  0.00    -0.356 C  
HETATM   29  C   UNL     1     -12.527  14.954  70.320  1.00  0.00    -0.336 C  
HETATM   30  H2  UNL     1     -11.001  13.546  66.227  1.00  0.00     0.000 HD 
HETATM   31  C   UNL     1     -11.611  15.169  69.115  1.00  0.00    -0.323 C  
HETATM   32  O   UNL     1     -12.205  15.981  71.270  1.00  0.00    -0.488 OA 
HETATM   33  H1  UNL     1     -10.923  15.195  66.501  1.00  0.00     0.000 HD 
HETATM   34  H   UNL     1     -12.339  16.861  70.936  1.00  0.00     0.000 HD 
HETATM   35  H   UNL     1     -11.324  16.587  67.780  1.00  0.00     0.000 HD 
HETATM   36  N   UNL     1     -10.869  14.271  66.931  1.00  0.00    -0.294 NA 
HETATM   37  O   UNL     1     -11.894  16.453  68.529  1.00  0.00    -0.156 OA 
HETATM   38  C   UNL     1     -11.799  14.062  68.065  1.00  0.00    -0.368 C  
BRANCH  28  39
HETATM   39  C   UNL     1     -13.180  13.192  72.081  1.00  0.00    -0.462 C  
HETATM   40  H2  UNL     1     -12.570  11.230  72.259  1.00  0.00     0.000 HD 
HETATM   41  N   UNL     1     -13.444  11.756  72.237  1.00  0.00    -0.547 NA 
HETATM   42  H1  UNL     1     -14.020  11.530  73.049  1.00  0.00     0.000 HD 
ENDBRANCH  28  39
ENDBRANCH  25  26
ENDBRANCH  24  25
ENDBRANCH  10  11
ENDBRANCH   1  10
BRANCH   5  43
HETATM   43  C   UNL     1     -13.783   8.238  71.582  1.00  0.00    -0.361 C  
HETATM   44  O   UNL     1     -14.207   8.777  72.839  1.00  0.00    -1.000 OA 
HETATM   45  H   UNL     1     -15.012   9.265  72.719  1.00  0.00     0.000 HD 
ENDBRANCH   5  43
TORSDOF 6
ENDMDL
MODEL       21
REMARK 921   NORMALIZED FREE ENERGY PREDICTED BY IDOCK:   -6.95 KCAL/MOL
REMARK 922        TOTAL FREE ENERGY PREDICTED BY IDOCK:  -11.03 KCAL/MOL
REMARK 923 INTER-LIGAND FREE ENERGY PREDICTED BY IDOCK:  -10.96 KCAL/MOL
REMARK 924 INTRA-LIGAND FREE ENERGY PREDICTED BY IDOCK:   -0.08 KCAL/MOL
REMARK 927      BINDING AFFINITY PREDICTED BY RF-SCORE:    0.00 PKD
ROOT
HETATM    1  C   UNL     1     -11.049  13.691  66.934  1.00  0.00    -0.304 C  
HETATM    2  O   UNL     1     -11.351  12.735  63.765  1.00  0.00    -0.409 OA 
HETATM    3  O   UNL     1      -9.930  14.149  66.161  1.00  0.00    -0.292 OA 
HETATM    4  H   UNL     1     -13.168  11.787  65.239  1.00  0.00     0.000 HD 
HETATM    5  C   UNL     1     -10.418  14.693  64.920  1.00  0.00    -0.387 C  
HETATM    6  H   UNL     1     -12.127  12.230  63.553  1.00  0.00     0.000 HD 
HETATM    7  C   UNL     1     -11.660  13.882  64.581  1.00  0.00    -0.385 C  
HETATM    8  O   UNL     1     -12.471  11.977  65.855  1.00  0.00    -0.337 OA 
HETATM    9  C   UNL     1     -12.184  13.383  65.930  1.00  0.00    -0.450 C  
ENDROOT
BRANCH   1  10
HETATM   10  O   UNL     1     -11.481  14.712  67.837  1.00  0.00    -0.299 OA 
BRANCH  10  11
HETATM   11  C   UNL     1     -11.415  14.438  69.264  1.00  0.00    -0.285 C  
HETATM   12  O   UNL     1     -12.024  12.105  68.978  1.00  0.00    -0.297 OA 
HETATM   13  H2  UNL     1     -11.888  16.254  73.525  1.00  0.00     0.000 HD 
HETATM   14  H   UNL     1     -12.613  11.406  69.237  1.00  0.00     0.000 HD 
HETATM   15  C   UNL     1     -12.368  13.307  69.681  1.00  0.00    -0.097 C  
HETATM   16  H1  UNL     1     -11.181  17.222  72.327  1.00  0.00     0.000 HD 
HETATM   17  C   UNL     1     -12.598  14.219  72.003  1.00  0.00    -0.381 C  
HETATM   18  N   UNL     1     -13.245  11.893  71.490  1.00  0.00    -0.291 NA 
HETATM   19  N   UNL     1     -11.860  16.489  72.533  1.00  0.00    -0.494 NA 
HETATM   20  H1  UNL     1     -13.198  11.673  72.484  1.00  0.00     0.000 HD 
HETATM   21  H2  UNL     1     -13.095  11.070  70.906  1.00  0.00     0.000 HD 
HETATM   22  C   UNL     1     -11.577  15.321  71.692  1.00  0.00    -0.408 C  
HETATM   23  C   UNL     1     -12.298  12.976  71.177  1.00  0.00    -0.175 C  
HETATM   24  C   UNL     1     -11.552  15.698  70.171  1.00  0.00    -0.354 C  
BRANCH  24  25
HETATM   25  O   UNL     1     -10.596  16.738  69.831  1.00  0.00    -0.250 OA 
BRANCH  25  26
HETATM   26  C   UNL     1     -10.001  16.662  68.529  1.00  0.00    -0.261 C  
HETATM   27  O   UNL     1     -10.229  17.861  67.786  1.00  0.00    -0.332 OA 
HETATM   28  C   UNL     1      -9.586  19.006  68.365  1.00  0.00    -0.373 C  
HETATM   29  C   UNL     1      -8.063  18.833  68.303  1.00  0.00    -0.324 C  
HETATM   30  H2  UNL     1      -8.628  14.339  69.043  1.00  0.00     0.000 HD 
HETATM   31  C   UNL     1      -7.679  17.571  69.076  1.00  0.00    -0.139 C  
HETATM   32  O   UNL     1      -7.338  19.918  68.902  1.00  0.00    -0.310 OA 
HETATM   33  H1  UNL     1      -7.114  14.949  69.411  1.00  0.00     0.000 HD 
HETATM   34  H   UNL     1      -6.395  19.810  68.864  1.00  0.00     0.000 HD 
HETATM   35  H   UNL     1      -6.029  16.548  69.401  1.00  0.00     0.000 HD 
HETATM   36  N   UNL     1      -8.113  15.153  69.377  1.00  0.00    -0.214 NA 
HETATM   37  O   UNL     1      -6.268  17.333  68.921  1.00  0.00    -0.168 OA 
HETATM   38  C   UNL     1      -8.472  16.350  68.583  1.00  0.00    -0.229 C  
BRANCH  28  39
HETATM   39  C   UNL     1     -10.102  20.251  67.621  1.00  0.00    -0.375 C  
HETATM   40  H2  UNL     1      -8.777  20.144  66.044  1.00  0.00     0.000 HD 
HETATM   41  N   UNL     1      -9.118  20.842  66.704  1.00  0.00    -0.443 NA 
HETATM   42  H1  UNL     1      -9.460  21.667  66.211  1.00  0.00     0.000 HD 
ENDBRANCH  28  39
ENDBRANCH  25  26
ENDBRANCH  24  25
ENDBRANCH  10  11
ENDBRANCH   1  10
BRANCH   5  43
HETATM   43  C   UNL     1     -10.717  16.195  65.024  1.00  0.00    -0.337 C  
HETATM   44  O   UNL     1     -11.394  16.630  63.840  1.00  0.00    -1.558 OA 
HETATM   45  H   UNL     1     -11.579  17.559  63.904  1.00  0.00     0.000 HD 
ENDBRANCH   5  43
TORSDOF 6
ENDMDL
MODEL       22
REMARK 921   NORMALIZED FREE ENERGY PREDICTED BY IDOCK:   -6.91 KCAL/MOL
REMARK 922        TOTAL FREE ENERGY PREDICTED BY IDOCK:  -10.98 KCAL/MOL
REMARK 923 INTER-LIGAND FREE ENERGY PREDICTED BY IDOCK:   -9.63 KCAL/MOL
REMARK 924 INTRA-LIGAND FREE ENERGY PREDICTED BY IDOCK:   -1.35 KCAL/MOL
REMARK 927      BINDING AFFINITY PREDICTED BY RF-SCORE:    0.00 PKD
ROOT
HETATM    1  C   UNL     1     -10.151  12.957  65.969  1.00  0.00    -0.285 C  
HETATM    2  O   UNL     1      -8.763  11.246  63.479  1.00  0.00    -0.404 OA 
HETATM    3  O   UNL     1     -10.208  13.708  64.747  1.00  0.00    -0.392 OA 
HETATM    4  H   UNL     1      -8.510  10.088  65.709  1.00  0.00     0.000 HD 
HETATM    5  C   UNL     1     -10.630  12.831  63.686  1.00  0.00    -0.252 C  
HETATM    6  H   UNL     1      -8.416  10.390  63.703  1.00  0.00     0.000 HD 
HETATM    7  C   UNL     1     -10.072  11.461  64.044  1.00  0.00    -0.320 C  
HETATM    8  O   UNL     1      -8.640  10.996  65.954  1.00  0.00    -0.176 OA 
HETATM    9  C   UNL     1      -9.938  11.478  65.569  1.00  0.00    -0.242 C  
ENDROOT
BRANCH   1  10
HETATM   10  O   UNL     1     -11.381  13.080  66.688  1.00  0.00    -0.299 OA 
BRANCH  10  11
HETATM   11  C   UNL     1     -11.318  13.214  68.135  1.00  0.00    -0.292 C  
HETATM   12  O   UNL     1     -11.389  10.814  68.492  1.00  0.00    -0.259 OA 
HETATM   13  H2  UNL     1     -12.359  15.938  71.763  1.00  0.00     0.000 HD 
HETATM   14  H   UNL     1     -11.822  10.095  68.938  1.00  0.00     0.000 HD 
HETATM   15  C   UNL     1     -12.018  12.051  68.855  1.00  0.00    -0.246 C  
HETATM   16  H1  UNL     1     -11.830  16.687  70.339  1.00  0.00     0.000 HD 
HETATM   17  C   UNL     1     -12.541  13.469  70.852  1.00  0.00    -0.414 C  
HETATM   18  N   UNL     1     -12.642  11.007  70.990  1.00  0.00    -0.388 NA 
HETATM   19  N   UNL     1     -12.340  15.903  70.745  1.00  0.00    -0.374 NA 
HETATM   20  H1  UNL     1     -12.591  11.073  72.006  1.00  0.00     0.000 HD 
HETATM   21  H2  UNL     1     -12.290  10.113  70.645  1.00  0.00     0.000 HD 
HETATM   22  C   UNL     1     -11.773  14.648  70.241  1.00  0.00    -0.297 C  
HETATM   23  C   UNL     1     -11.941  12.151  70.383  1.00  0.00    -0.272 C  
HETATM   24  C   UNL     1     -11.765  14.606  68.675  1.00  0.00    -0.329 C  
BRANCH  24  25
HETATM   25  O   UNL     1     -11.046  15.705  68.053  1.00  0.00    -0.313 OA 
BRANCH  25  26
HETATM   26  C   UNL     1     -10.091  16.392  68.871  1.00  0.00    -0.255 C  
HETATM   27  O   UNL     1      -8.944  15.576  69.122  1.00  0.00    -0.219 OA 
HETATM   28  C   UNL     1      -8.196  15.287  67.932  1.00  0.00    -0.145 C  
HETATM   29  C   UNL     1      -7.597  16.582  67.368  1.00  0.00    -0.149 C  
HETATM   30  H2  UNL     1     -11.368  18.819  68.723  1.00  0.00     0.000 HD 
HETATM   31  C   UNL     1      -8.734  17.553  67.048  1.00  0.00    -0.240 C  
HETATM   32  O   UNL     1      -6.864  16.390  66.148  1.00  0.00     0.035 OA 
HETATM   33  H1  UNL     1     -10.477  19.564  67.517  1.00  0.00     0.000 HD 
HETATM   34  H   UNL     1      -6.493  17.192  65.799  1.00  0.00     0.000 HD 
HETATM   35  H   UNL     1      -8.883  19.417  66.436  1.00  0.00     0.000 HD 
HETATM   36  N   UNL     1     -10.766  18.669  67.914  1.00  0.00    -0.350 NA 
HETATM   37  O   UNL     1      -8.176  18.814  66.634  1.00  0.00    -0.269 OA 
HETATM   38  C   UNL     1      -9.650  17.760  68.264  1.00  0.00    -0.312 C  
BRANCH  28  39
HETATM   39  C   UNL     1      -7.147  14.221  68.293  1.00  0.00    -0.111 C  
HETATM   40  H2  UNL     1      -6.497  13.872  66.368  1.00  0.00     0.000 HD 
HETATM   41  N   UNL     1      -6.798  13.331  67.178  1.00  0.00    -0.434 NA 
HETATM   42  H1  UNL     1      -6.102  12.625  67.418  1.00  0.00     0.000 HD 
ENDBRANCH  28  39
ENDBRANCH  25  26
ENDBRANCH  24  25
ENDBRANCH  10  11
ENDBRANCH   1  10
BRANCH   5  43
HETATM   43  C   UNL     1     -12.155  12.811  63.522  1.00  0.00    -0.559 C  
HETATM   44  O   UNL     1     -12.634  14.147  63.339  1.00  0.00    -1.070 OA 
HETATM   45  H   UNL     1     -13.579  14.135  63.239  1.00  0.00     0.000 HD 
ENDBRANCH   5  43
TORSDOF 6
ENDMDL
MODEL       23
REMARK 921   NORMALIZED FREE ENERGY PREDICTED BY IDOCK:   -6.91 KCAL/MOL
REMARK 922        TOTAL FREE ENERGY PREDICTED BY IDOCK:  -10.97 KCAL/MOL
REMARK 923 INTER-LIGAND FREE ENERGY PREDICTED BY IDOCK:   -9.56 KCAL/MOL
REMARK 924 INTRA-LIGAND FREE ENERGY PREDICTED BY IDOCK:   -1.41 KCAL/MOL
REMARK 927      BINDING AFFINITY PREDICTED BY RF-SCORE:    0.00 PKD
ROOT
HETATM    1  C   UNL     1     -10.317  10.494  67.508  1.00  0.00    -0.223 C  
HETATM    2  O   UNL     1      -7.516   8.705  67.596  1.00  0.00    -0.088 OA 
HETATM    3  O   UNL     1     -10.283   9.556  66.423  1.00  0.00    -0.264 OA 
HETATM    4  H   UNL     1      -7.556  10.528  69.343  1.00  0.00     0.000 HD 
HETATM    5  C   UNL     1      -9.843   8.281  66.927  1.00  0.00    -0.247 C  
HETATM    6  H   UNL     1      -6.914   8.906  68.303  1.00  0.00     0.000 HD 
HETATM    7  C   UNL     1      -8.877   8.604  68.059  1.00  0.00    -0.141 C  
HETATM    8  O   UNL     1      -8.172  10.843  68.692  1.00  0.00    -0.130 OA 
HETATM    9  C   UNL     1      -9.314   9.980  68.567  1.00  0.00    -0.145 C  
ENDROOT
BRANCH   1  10
HETATM   10  O   UNL     1     -11.626  10.545  68.082  1.00  0.00    -0.402 OA 
BRANCH  10  11
HETATM   11  C   UNL     1     -11.762  11.069  69.431  1.00  0.00    -0.323 C  
HETATM   12  O   UNL     1     -11.945   8.857  70.414  1.00  0.00    -0.477 OA 
HETATM   13  H2  UNL     1     -13.227  14.666  71.998  1.00  0.00     0.000 HD 
HETATM   14  H   UNL     1     -12.455   8.282  70.973  1.00  0.00     0.000 HD 
HETATM   15  C   UNL     1     -12.586  10.138  70.334  1.00  0.00    -0.145 C  
HETATM   16  H1  UNL     1     -12.485  15.005  70.513  1.00  0.00     0.000 HD 
HETATM   17  C   UNL     1     -13.345  12.040  71.776  1.00  0.00    -0.338 C  
HETATM   18  N   UNL     1     -13.528   9.707  72.562  1.00  0.00    -0.646 NA 
HETATM   19  N   UNL     1     -13.068  14.355  71.041  1.00  0.00    -0.359 NA 
HETATM   20  H1  UNL     1     -13.618  10.049  73.519  1.00  0.00     0.000 HD 
HETATM   21  H2  UNL     1     -13.156   8.758  72.527  1.00  0.00     0.000 HD 
HETATM   22  C   UNL     1     -12.469  13.017  70.983  1.00  0.00    -0.296 C  
HETATM   23  C   UNL     1     -12.720  10.652  71.773  1.00  0.00    -0.383 C  
HETATM   24  C   UNL     1     -12.244  12.550  69.504  1.00  0.00    -0.080 C  
BRANCH  24  25
HETATM   25  O   UNL     1     -11.416  13.447  68.715  1.00  0.00    -0.261 OA 
BRANCH  25  26
HETATM   26  C   UNL     1     -12.104  14.419  67.917  1.00  0.00    -0.245 C  
HETATM   27  O   UNL     1     -11.686  15.746  68.246  1.00  0.00    -0.345 OA 
HETATM   28  C   UNL     1     -10.308  15.990  67.931  1.00  0.00    -0.269 C  
HETATM   29  C   UNL     1     -10.102  15.918  66.412  1.00  0.00    -0.292 C  
HETATM   30  H2  UNL     1     -13.235  12.569  66.231  1.00  0.00     0.000 HD 
HETATM   31  C   UNL     1     -10.511  14.527  65.925  1.00  0.00    -0.312 C  
HETATM   32  O   UNL     1      -8.737  16.109  66.009  1.00  0.00    -0.331 OA 
HETATM   33  H1  UNL     1     -12.176  12.642  64.937  1.00  0.00     0.000 HD 
HETATM   34  H   UNL     1      -8.610  16.064  65.069  1.00  0.00     0.000 HD 
HETATM   35  H   UNL     1     -10.693  13.626  64.185  1.00  0.00     0.000 HD 
HETATM   36  N   UNL     1     -12.287  12.804  65.938  1.00  0.00    -0.576 NA 
HETATM   37  O   UNL     1     -10.438  14.490  64.488  1.00  0.00    -0.317 OA 
HETATM   38  C   UNL     1     -11.934  14.171  66.385  1.00  0.00    -0.436 C  
BRANCH  28  39
HETATM   39  C   UNL     1      -9.927  17.348  68.547  1.00  0.00    -0.331 C  
HETATM   40  H2  UNL     1      -8.126  17.552  67.563  1.00  0.00     0.000 HD 
HETATM   41  N   UNL     1      -8.485  17.629  68.514  1.00  0.00    -0.289 NA 
HETATM   42  H1  UNL     1      -8.233  18.529  68.923  1.00  0.00     0.000 HD 
ENDBRANCH  28  39
ENDBRANCH  25  26
ENDBRANCH  24  25
ENDBRANCH  10  11
ENDBRANCH   1  10
BRANCH   5  43
HETATM   43  C   UNL     1     -11.013   7.407  67.396  1.00  0.00    -0.144 C  
HETATM   44  O   UNL     1     -11.178   6.306  66.496  1.00  0.00    -0.726 OA 
HETATM   45  H   UNL     1     -11.902   5.765  66.786  1.00  0.00     0.000 HD 
ENDBRANCH   5  43
TORSDOF 6
ENDMDL
MODEL       24
REMARK 921   NORMALIZED FREE ENERGY PREDICTED BY IDOCK:   -6.84 KCAL/MOL
REMARK 922        TOTAL FREE ENERGY PREDICTED BY IDOCK:  -10.88 KCAL/MOL
REMARK 923 INTER-LIGAND FREE ENERGY PREDICTED BY IDOCK:   -9.44 KCAL/MOL
REMARK 924 INTRA-LIGAND FREE ENERGY PREDICTED BY IDOCK:   -1.44 KCAL/MOL
REMARK 927      BINDING AFFINITY PREDICTED BY RF-SCORE:    0.00 PKD
ROOT
HETATM    1  C   UNL     1     -11.990  14.470  69.637  1.00  0.00    -0.328 C  
HETATM    2  O   UNL     1     -14.264  13.380  71.803  1.00  0.00    -0.108 OA 
HETATM    3  O   UNL     1     -12.863  15.538  70.032  1.00  0.00    -0.235 OA 
HETATM    4  H   UNL     1     -12.825  11.517  70.892  1.00  0.00     0.000 HD 
HETATM    5  C   UNL     1     -13.043  15.485  71.460  1.00  0.00    -0.496 C  
HETATM    6  H   UNL     1     -14.217  12.459  72.031  1.00  0.00     0.000 HD 
HETATM    7  C   UNL     1     -12.968  14.009  71.824  1.00  0.00    -0.353 C  
HETATM    8  O   UNL     1     -12.751  12.189  70.226  1.00  0.00    -0.009 OA 
HETATM    9  C   UNL     1     -12.112  13.376  70.724  1.00  0.00    -0.250 C  
ENDROOT
BRANCH   1  10
HETATM   10  O   UNL     1     -10.637  14.929  69.577  1.00  0.00    -0.246 OA 
BRANCH  10  11
HETATM   11  C   UNL     1     -10.230  15.710  68.420  1.00  0.00    -0.222 C  
HETATM   12  O   UNL     1     -10.011  17.754  69.712  1.00  0.00     0.211 OA 
HETATM   13  H2  UNL     1     -10.562  16.141  63.797  1.00  0.00     0.000 HD 
HETATM   14  H   UNL     1     -10.259  18.668  69.791  1.00  0.00     0.000 HD 
HETATM   15  C   UNL     1     -10.630  17.188  68.549  1.00  0.00    -0.361 C  
HETATM   16  H1  UNL     1     -10.466  14.576  64.440  1.00  0.00     0.000 HD 
HETATM   17  C   UNL     1     -10.759  17.476  66.064  1.00  0.00    -0.116 C  
HETATM   18  N   UNL     1     -10.617  19.436  67.557  1.00  0.00    -0.460 NA 
HETATM   19  N   UNL     1     -10.794  15.532  64.581  1.00  0.00    -0.365 NA 
HETATM   20  H1  UNL     1     -10.322  20.004  66.763  1.00  0.00     0.000 HD 
HETATM   21  H2  UNL     1     -10.289  19.816  68.445  1.00  0.00     0.000 HD 
HETATM   22  C   UNL     1     -10.267  16.038  65.853  1.00  0.00    -0.365 C  
HETATM   23  C   UNL     1     -10.186  18.042  67.356  1.00  0.00    -0.363 C  
HETATM   24  C   UNL     1     -10.643  15.097  67.048  1.00  0.00    -0.300 C  
BRANCH  24  25
HETATM   25  O   UNL     1     -10.194  13.724  66.891  1.00  0.00    -0.255 OA 
BRANCH  25  26
HETATM   26  C   UNL     1     -11.200  12.707  66.975  1.00  0.00    -0.300 C  
HETATM   27  O   UNL     1     -11.905  12.574  65.738  1.00  0.00    -0.408 OA 
HETATM   28  C   UNL     1     -11.069  12.111  64.668  1.00  0.00    -0.317 C  
HETATM   29  C   UNL     1     -10.593  10.682  64.962  1.00  0.00    -0.117 C  
HETATM   30  H2  UNL     1     -10.367  11.764  69.417  1.00  0.00     0.000 HD 
HETATM   31  C   UNL     1      -9.809  10.684  66.275  1.00  0.00    -0.214 C  
HETATM   32  O   UNL     1      -9.713  10.153  63.958  1.00  0.00    -0.306 OA 
HETATM   33  H1  UNL     1      -9.448  10.448  68.943  1.00  0.00     0.000 HD 
HETATM   34  H   UNL     1      -9.419   9.268  64.141  1.00  0.00     0.000 HD 
HETATM   35  H   UNL     1      -8.978   9.332  67.438  1.00  0.00     0.000 HD 
HETATM   36  N   UNL     1      -9.825  11.352  68.658  1.00  0.00    -0.204 NA 
HETATM   37  O   UNL     1      -9.464   9.330  66.622  1.00  0.00    -0.166 OA 
HETATM   38  C   UNL     1     -10.624  11.324  67.411  1.00  0.00    -0.224 C  
BRANCH  28  39
HETATM   39  C   UNL     1     -11.874  12.243  63.363  1.00  0.00    -0.473 C  
HETATM   40  H2  UNL     1     -11.634  14.280  63.147  1.00  0.00     0.000 HD 
HETATM   41  N   UNL     1     -12.391  13.596  63.120  1.00  0.00    -1.076 NA 
HETATM   42  H1  UNL     1     -12.924  13.683  62.255  1.00  0.00     0.000 HD 
ENDBRANCH  28  39
ENDBRANCH  25  26
ENDBRANCH  24  25
ENDBRANCH  10  11
ENDBRANCH   1  10
BRANCH   5  43
HETATM   43  C   UNL     1     -11.994  16.319  72.207  1.00  0.00    -0.520 C  
HETATM   44  O   UNL     1     -12.368  16.433  73.585  1.00  0.00    -0.495 OA 
HETATM   45  H   UNL     1     -11.719  16.950  74.048  1.00  0.00     0.000 HD 
ENDBRANCH   5  43
TORSDOF 6
ENDMDL
MODEL       25
REMARK 921   NORMALIZED FREE ENERGY PREDICTED BY IDOCK:   -6.74 KCAL/MOL
REMARK 922        TOTAL FREE ENERGY PREDICTED BY IDOCK:  -10.75 KCAL/MOL
REMARK 923 INTER-LIGAND FREE ENERGY PREDICTED BY IDOCK:   -8.89 KCAL/MOL
REMARK 924 INTRA-LIGAND FREE ENERGY PREDICTED BY IDOCK:   -1.86 KCAL/MOL
REMARK 927      BINDING AFFINITY PREDICTED BY RF-SCORE:    0.00 PKD
ROOT
HETATM    1  C   UNL     1     -10.145  13.099  66.768  1.00  0.00    -0.253 C  
HETATM    2  O   UNL     1     -12.887  14.128  65.195  1.00  0.00    -0.686 OA 
HETATM    3  O   UNL     1     -10.036  14.486  66.419  1.00  0.00    -0.270 OA 
HETATM    4  H   UNL     1     -12.908  11.645  65.651  1.00  0.00     0.000 HD 
HETATM    5  C   UNL     1     -11.273  15.144  66.745  1.00  0.00    -0.285 C  
HETATM    6  H   UNL     1     -13.564  13.475  65.064  1.00  0.00     0.000 HD 
HETATM    7  C   UNL     1     -12.358  14.098  66.535  1.00  0.00    -0.372 C  
HETATM    8  O   UNL     1     -11.982  11.857  65.668  1.00  0.00    -0.429 OA 
HETATM    9  C   UNL     1     -11.653  12.754  66.741  1.00  0.00    -0.370 C  
ENDROOT
BRANCH   1  10
HETATM   10  O   UNL     1      -9.633  12.874  68.084  1.00  0.00    -0.214 OA 
BRANCH  10  11
HETATM   11  C   UNL     1      -8.472  12.010  68.228  1.00  0.00    -0.167 C  
HETATM   12  O   UNL     1      -6.995  13.585  67.118  1.00  0.00    -0.384 OA 
HETATM   13  H2  UNL     1      -7.015   7.600  68.562  1.00  0.00     0.000 HD 
HETATM   14  H   UNL     1      -6.361  13.717  66.423  1.00  0.00     0.000 HD 
HETATM   15  C   UNL     1      -7.447  12.224  67.104  1.00  0.00    -0.113 C  
HETATM   16  H1  UNL     1      -8.464   8.015  69.337  1.00  0.00     0.000 HD 
HETATM   17  C   UNL     1      -6.593   9.877  67.296  1.00  0.00    -0.070 C  
HETATM   18  N   UNL     1      -5.277  11.607  66.128  1.00  0.00    -0.447 NA 
HETATM   19  N   UNL     1      -7.848   8.188  68.542  1.00  0.00    -0.116 NA 
HETATM   20  H1  UNL     1      -4.447  11.023  66.224  1.00  0.00     0.000 HD 
HETATM   21  H2  UNL     1      -5.044  12.597  66.045  1.00  0.00     0.000 HD 
HETATM   22  C   UNL     1      -7.519   9.617  68.491  1.00  0.00    -0.079 C  
HETATM   23  C   UNL     1      -6.198  11.346  67.247  1.00  0.00    -0.093 C  
HETATM   24  C   UNL     1      -8.811  10.504  68.448  1.00  0.00    -0.140 C  
BRANCH  24  25
HETATM   25  O   UNL     1      -9.717  10.292  69.564  1.00  0.00    -0.224 OA 
BRANCH  25  26
HETATM   26  C   UNL     1     -11.054   9.891  69.237  1.00  0.00    -0.181 C  
HETATM   27  O   UNL     1     -11.192   8.469  69.283  1.00  0.00     0.059 OA 
HETATM   28  C   UNL     1     -11.011   7.934  70.602  1.00  0.00    -0.245 C  
HETATM   29  C   UNL     1     -12.133   8.431  71.523  1.00  0.00    -0.301 C  
HETATM   30  H2  UNL     1     -12.075  12.440  69.288  1.00  0.00     0.000 HD 
HETATM   31  C   UNL     1     -12.094   9.959  71.567  1.00  0.00    -0.410 C  
HETATM   32  O   UNL     1     -12.006   7.976  72.878  1.00  0.00    -0.611 OA 
HETATM   33  H1  UNL     1     -12.742  12.475  70.823  1.00  0.00     0.000 HD 
HETATM   34  H   UNL     1     -12.701   8.284  73.448  1.00  0.00     0.000 HD 
HETATM   35  H   UNL     1     -13.192  11.388  72.356  1.00  0.00     0.000 HD 
HETATM   36  N   UNL     1     -12.042  12.038  70.224  1.00  0.00    -0.340 NA 
HETATM   37  O   UNL     1     -13.217  10.439  72.329  1.00  0.00    -0.400 OA 
HETATM   38  C   UNL     1     -12.125  10.560  70.153  1.00  0.00    -0.300 C  
BRANCH  28  39
HETATM   39  C   UNL     1     -10.943   6.402  70.474  1.00  0.00    -0.306 C  
HETATM   40  H2  UNL     1     -11.009   5.997  72.495  1.00  0.00     0.000 HD 
HETATM   41  N   UNL     1     -10.453   5.728  71.684  1.00  0.00    -0.224 NA 
HETATM   42  H1  UNL     1     -10.409   4.712  71.599  1.00  0.00     0.000 HD 
ENDBRANCH  28  39
ENDBRANCH  25  26
ENDBRANCH  24  25
ENDBRANCH  10  11
ENDBRANCH   1  10
BRANCH   5  43
HETATM   43  C   UNL     1     -11.275  15.700  68.176  1.00  0.00    -0.345 C  
HETATM   44  O   UNL     1     -12.296  15.050  68.940  1.00  0.00    -0.577 OA 
HETATM   45  H   UNL     1     -12.297  15.394  69.825  1.00  0.00     0.000 HD 
ENDBRANCH   5  43
TORSDOF 6
ENDMDL
MODEL       26
REMARK 921   NORMALIZED FREE ENERGY PREDICTED BY IDOCK:   -6.74 KCAL/MOL
REMARK 922        TOTAL FREE ENERGY PREDICTED BY IDOCK:  -10.75 KCAL/MOL
REMARK 923 INTER-LIGAND FREE ENERGY PREDICTED BY IDOCK:   -9.20 KCAL/MOL
REMARK 924 INTRA-LIGAND FREE ENERGY PREDICTED BY IDOCK:   -1.55 KCAL/MOL
REMARK 927      BINDING AFFINITY PREDICTED BY RF-SCORE:    0.00 PKD
ROOT
HETATM    1  C   UNL     1     -10.075  13.288  65.620  1.00  0.00    -0.272 C  
HETATM    2  O   UNL     1      -9.833  10.314  64.155  1.00  0.00    -0.317 OA 
HETATM    3  O   UNL     1     -10.050  13.429  64.192  1.00  0.00    -0.338 OA 
HETATM    4  H   UNL     1      -9.663  10.170  66.670  1.00  0.00     0.000 HD 
HETATM    5  C   UNL     1     -10.929  12.446  63.615  1.00  0.00    -0.470 C  
HETATM    6  H   UNL     1      -9.791   9.564  64.736  1.00  0.00     0.000 HD 
HETATM    7  C   UNL     1     -10.861  11.244  64.546  1.00  0.00    -0.284 C  
HETATM    8  O   UNL     1      -9.411  11.068  66.490  1.00  0.00    -0.173 OA 
HETATM    9  C   UNL     1     -10.486  11.826  65.912  1.00  0.00    -0.255 C  
ENDROOT
BRANCH   1  10
HETATM   10  O   UNL     1     -11.040  14.174  66.192  1.00  0.00    -0.305 OA 
BRANCH  10  11
HETATM   11  C   UNL     1     -10.557  15.299  66.978  1.00  0.00    -0.306 C  
HETATM   12  O   UNL     1     -10.828  16.867  65.145  1.00  0.00    -0.602 OA 
HETATM   13  H2  UNL     1      -7.789  16.589  70.491  1.00  0.00     0.000 HD 
HETATM   14  H   UNL     1     -10.412  17.530  64.605  1.00  0.00     0.000 HD 
HETATM   15  C   UNL     1      -9.886  16.370  66.105  1.00  0.00    -0.338 C  
HETATM   16  H1  UNL     1      -8.635  15.129  70.646  1.00  0.00     0.000 HD 
HETATM   17  C   UNL     1      -8.423  17.134  67.989  1.00  0.00    -0.219 C  
HETATM   18  N   UNL     1      -8.757  18.550  65.995  1.00  0.00    -0.497 NA 
HETATM   19  N   UNL     1      -8.175  15.778  70.008  1.00  0.00     0.347 NA 
HETATM   20  H1  UNL     1      -8.430  19.356  66.527  1.00  0.00     0.000 HD 
HETATM   21  H2  UNL     1      -9.374  18.820  65.229  1.00  0.00     0.000 HD 
HETATM   22  C   UNL     1      -9.115  16.158  68.948  1.00  0.00    -0.246 C  
HETATM   23  C   UNL     1      -9.393  17.582  66.904  1.00  0.00    -0.269 C  
HETATM   24  C   UNL     1      -9.688  14.900  68.208  1.00  0.00    -0.215 C  
BRANCH  24  25
HETATM   25  O   UNL     1     -10.354  13.948  69.080  1.00  0.00    -0.200 OA 
BRANCH  25  26
HETATM   26  C   UNL     1     -11.772  13.815  68.919  1.00  0.00    -0.336 C  
HETATM   27  O   UNL     1     -12.128  12.477  68.561  1.00  0.00    -0.266 OA 
HETATM   28  C   UNL     1     -11.833  11.527  69.596  1.00  0.00    -0.354 C  
HETATM   29  C   UNL     1     -12.704  11.811  70.826  1.00  0.00    -0.167 C  
HETATM   30  H2  UNL     1     -12.350  16.300  69.936  1.00  0.00     0.000 HD 
HETATM   31  C   UNL     1     -12.413  13.229  71.320  1.00  0.00    -0.258 C  
HETATM   32  O   UNL     1     -12.442  10.930  71.929  1.00  0.00    -0.233 OA 
HETATM   33  H1  UNL     1     -12.756  15.903  71.511  1.00  0.00     0.000 HD 
HETATM   34  H   UNL     1     -12.982  11.106  72.691  1.00  0.00     0.000 HD 
HETATM   35  H   UNL     1     -13.131  14.430  72.703  1.00  0.00     0.000 HD 
HETATM   36  N   UNL     1     -12.237  15.614  70.682  1.00  0.00    -0.393 NA 
HETATM   37  O   UNL     1     -13.312  13.548  72.397  1.00  0.00    -0.493 OA 
HETATM   38  C   UNL     1     -12.567  14.257  70.187  1.00  0.00    -0.282 C  
BRANCH  28  39
HETATM   39  C   UNL     1     -12.033  10.121  69.002  1.00  0.00     0.314 C  
HETATM   40  H2  UNL     1     -10.090   9.481  69.263  1.00  0.00     0.000 HD 
HETATM   41  N   UNL     1     -10.791   9.499  68.523  1.00  0.00    -0.397 NA 
HETATM   42  H1  UNL     1     -10.924   8.567  68.130  1.00  0.00     0.000 HD 
ENDBRANCH  28  39
ENDBRANCH  25  26
ENDBRANCH  24  25
ENDBRANCH  10  11
ENDBRANCH   1  10
BRANCH   5  43
HETATM   43  C   UNL     1     -12.361  12.972  63.452  1.00  0.00    -0.394 C  
HETATM   44  O   UNL     1     -12.385  14.381  63.710  1.00  0.00    -0.990 OA 
HETATM   45  H   UNL     1     -13.271  14.707  63.610  1.00  0.00     0.000 HD 
ENDBRANCH   5  43
TORSDOF 6
ENDMDL
MODEL       27
REMARK 921   NORMALIZED FREE ENERGY PREDICTED BY IDOCK:   -6.66 KCAL/MOL
REMARK 922        TOTAL FREE ENERGY PREDICTED BY IDOCK:  -10.64 KCAL/MOL
REMARK 923 INTER-LIGAND FREE ENERGY PREDICTED BY IDOCK:   -9.91 KCAL/MOL
REMARK 924 INTRA-LIGAND FREE ENERGY PREDICTED BY IDOCK:   -0.73 KCAL/MOL
REMARK 927      BINDING AFFINITY PREDICTED BY RF-SCORE:    0.00 PKD
ROOT
HETATM    1  C   UNL     1      -9.448  15.722  66.511  1.00  0.00    -0.272 C  
HETATM    2  O   UNL     1     -10.815  18.321  64.953  1.00  0.00    -0.619 OA 
HETATM    3  O   UNL     1      -8.519  16.813  66.441  1.00  0.00    -0.251 OA 
HETATM    4  H   UNL     1     -12.306  16.284  64.928  1.00  0.00     0.000 HD 
HETATM    5  C   UNL     1      -9.207  18.029  66.789  1.00  0.00    -0.280 C  
HETATM    6  H   UNL     1     -11.707  18.204  64.649  1.00  0.00     0.000 HD 
HETATM    7  C   UNL     1     -10.636  17.842  66.301  1.00  0.00    -0.220 C  
HETATM    8  O   UNL     1     -11.441  15.913  65.057  1.00  0.00    -0.204 OA 
HETATM    9  C   UNL     1     -10.856  16.326  66.302  1.00  0.00    -0.098 C  
ENDROOT
BRANCH   1  10
HETATM   10  O   UNL     1      -9.387  15.098  67.796  1.00  0.00    -0.187 OA 
BRANCH  10  11
HETATM   11  C   UNL     1     -10.575  14.414  68.282  1.00  0.00    -0.243 C  
HETATM   12  O   UNL     1     -11.378  16.371  69.472  1.00  0.00    -0.288 OA 
HETATM   13  H2  UNL     1     -12.377  10.297  69.498  1.00  0.00     0.000 HD 
HETATM   14  H   UNL     1     -11.679  16.722  70.303  1.00  0.00     0.000 HD 
HETATM   15  C   UNL     1     -11.062  14.981  69.625  1.00  0.00    -0.273 C  
HETATM   16  H1  UNL     1     -11.318  10.337  68.176  1.00  0.00     0.000 HD 
HETATM   17  C   UNL     1     -12.099  12.799  70.287  1.00  0.00    -0.373 C  
HETATM   18  N   UNL     1     -12.720  14.893  71.436  1.00  0.00    -0.311 NA 
HETATM   19  N   UNL     1     -11.561  10.742  69.080  1.00  0.00    -0.297 NA 
HETATM   20  H1  UNL     1     -13.564  14.438  71.783  1.00  0.00     0.000 HD 
HETATM   21  H2  UNL     1     -12.827  15.906  71.375  1.00  0.00     0.000 HD 
HETATM   22  C   UNL     1     -11.733  12.191  68.927  1.00  0.00    -0.327 C  
HETATM   23  C   UNL     1     -12.331  14.297  70.147  1.00  0.00    -0.353 C  
HETATM   24  C   UNL     1     -10.464  12.859  68.297  1.00  0.00    -0.242 C  
BRANCH  24  25
HETATM   25  O   UNL     1     -10.082  12.314  67.005  1.00  0.00    -0.211 OA 
BRANCH  25  26
HETATM   26  C   UNL     1     -10.787  11.144  66.569  1.00  0.00    -0.245 C  
HETATM   27  O   UNL     1     -11.785  11.474  65.600  1.00  0.00    -0.204 OA 
HETATM   28  C   UNL     1     -11.228  11.987  64.380  1.00  0.00    -0.344 C  
HETATM   29  C   UNL     1     -10.404  10.894  63.686  1.00  0.00    -0.298 C  
HETATM   30  H2  UNL     1      -9.091   9.379  67.815  1.00  0.00     0.000 HD 
HETATM   31  C   UNL     1      -9.283  10.449  64.626  1.00  0.00    -0.240 C  
HETATM   32  O   UNL     1      -9.774  11.335  62.474  1.00  0.00    -0.574 OA 
HETATM   33  H1  UNL     1      -8.105   8.942  66.535  1.00  0.00     0.000 HD 
HETATM   34  H   UNL     1      -9.264  10.658  62.044  1.00  0.00     0.000 HD 
HETATM   35  H   UNL     1      -7.885   9.065  64.619  1.00  0.00     0.000 HD 
HETATM   36  N   UNL     1      -8.726   9.661  66.905  1.00  0.00    -0.130 NA 
HETATM   37  O   UNL     1      -8.581   9.341  64.034  1.00  0.00    -0.187 OA 
HETATM   38  C   UNL     1      -9.836  10.044  66.002  1.00  0.00    -0.257 C  
BRANCH  28  39
HETATM   39  C   UNL     1     -12.394  12.522  63.530  1.00  0.00    -0.525 C  
HETATM   40  H2  UNL     1     -11.432  14.219  62.860  1.00  0.00     0.000 HD 
HETATM   41  N   UNL     1     -12.327  13.968  63.278  1.00  0.00    -1.145 NA 
HETATM   42  H1  UNL     1     -13.100  14.323  62.714  1.00  0.00     0.000 HD 
ENDBRANCH  28  39
ENDBRANCH  25  26
ENDBRANCH  24  25
ENDBRANCH  10  11
ENDBRANCH   1  10
BRANCH   5  43
HETATM   43  C   UNL     1      -9.143  18.321  68.294  1.00  0.00    -0.305 C  
HETATM   44  O   UNL     1     -10.135  19.295  68.634  1.00  0.00    -0.406 OA 
HETATM   45  H   UNL     1     -10.096  19.476  69.566  1.00  0.00     0.000 HD 
ENDBRANCH   5  43
TORSDOF 6
ENDMDL
MODEL       28
REMARK 921   NORMALIZED FREE ENERGY PREDICTED BY IDOCK:   -6.65 KCAL/MOL
REMARK 922        TOTAL FREE ENERGY PREDICTED BY IDOCK:  -10.62 KCAL/MOL
REMARK 923 INTER-LIGAND FREE ENERGY PREDICTED BY IDOCK:   -9.80 KCAL/MOL
REMARK 924 INTRA-LIGAND FREE ENERGY PREDICTED BY IDOCK:   -0.82 KCAL/MOL
REMARK 927      BINDING AFFINITY PREDICTED BY RF-SCORE:    0.00 PKD
ROOT
HETATM    1  C   UNL     1     -12.613  13.052  70.125  1.00  0.00     0.023 C  
HETATM    2  O   UNL     1     -14.159  14.152  72.854  1.00  0.00    -0.546 OA 
HETATM    3  O   UNL     1     -12.952  14.439  69.988  1.00  0.00    -0.161 OA 
HETATM    4  H   UNL     1     -13.723  11.667  72.925  1.00  0.00     0.000 HD 
HETATM    5  C   UNL     1     -12.612  15.121  71.209  1.00  0.00    -0.353 C  
HETATM    6  H   UNL     1     -14.291  13.515  73.546  1.00  0.00     0.000 HD 
HETATM    7  C   UNL     1     -12.823  14.099  72.317  1.00  0.00    -0.331 C  
HETATM    8  O   UNL     1     -13.711  11.859  71.995  1.00  0.00    -0.225 OA 
HETATM    9  C   UNL     1     -12.633  12.740  71.640  1.00  0.00    -0.089 C  
ENDROOT
BRANCH   1  10
HETATM   10  O   UNL     1     -11.303  12.805  69.608  1.00  0.00    -0.204 OA 
BRANCH  10  11
HETATM   11  C   UNL     1     -11.142  11.745  68.626  1.00  0.00    -0.238 C  
HETATM   12  O   UNL     1     -12.159  10.076  70.066  1.00  0.00    -0.448 OA 
HETATM   13  H2  UNL     1      -8.571  10.201  65.065  1.00  0.00     0.000 HD 
HETATM   14  H   UNL     1     -12.066   9.222  70.472  1.00  0.00     0.000 HD 
HETATM   15  C   UNL     1     -10.992  10.364  69.284  1.00  0.00    -0.242 C  
HETATM   16  H1  UNL     1      -8.839  11.870  65.182  1.00  0.00     0.000 HD 
HETATM   17  C   UNL     1      -9.659   9.477  67.358  1.00  0.00    -0.178 C  
HETATM   18  N   UNL     1     -10.704   7.942  68.983  1.00  0.00    -0.387 NA 
HETATM   19  N   UNL     1      -8.713  10.994  65.690  1.00  0.00    -0.181 NA 
HETATM   20  H1  UNL     1     -10.609   7.183  68.309  1.00  0.00     0.000 HD 
HETATM   21  H2  UNL     1     -11.465   7.779  69.642  1.00  0.00     0.000 HD 
HETATM   22  C   UNL     1      -9.849  10.794  66.595  1.00  0.00    -0.200 C  
HETATM   23  C   UNL     1     -10.850   9.222  68.270  1.00  0.00    -0.080 C  
HETATM   24  C   UNL     1     -10.043  12.018  67.555  1.00  0.00    -0.195 C  
BRANCH  24  25
HETATM   25  O   UNL     1     -10.228  13.288  66.874  1.00  0.00    -0.245 OA 
BRANCH  25  26
HETATM   26  C   UNL     1     -11.518  13.900  66.999  1.00  0.00    -0.346 C  
HETATM   27  O   UNL     1     -11.402  15.302  67.251  1.00  0.00    -0.332 OA 
HETATM   28  C   UNL     1     -10.813  16.018  66.155  1.00  0.00    -0.179 C  
HETATM   29  C   UNL     1     -11.738  15.950  64.933  1.00  0.00     0.057 C  
HETATM   30  H2  UNL     1     -12.904  11.683  66.156  1.00  0.00     0.000 HD 
HETATM   31  C   UNL     1     -11.943  14.484  64.550  1.00  0.00    -0.468 C  
HETATM   32  O   UNL     1     -11.205  16.607  63.773  1.00  0.00    -1.329 OA 
HETATM   33  H1  UNL     1     -13.165  12.073  64.550  1.00  0.00     0.000 HD 
HETATM   34  H   UNL     1     -11.778  16.565  63.017  1.00  0.00     0.000 HD 
HETATM   35  H   UNL     1     -13.033  13.492  63.246  1.00  0.00     0.000 HD 
HETATM   36  N   UNL     1     -12.572  12.233  65.365  1.00  0.00    -0.454 NA 
HETATM   37  O   UNL     1     -12.906  14.404  63.483  1.00  0.00    -0.587 OA 
HETATM   38  C   UNL     1     -12.425  13.655  65.752  1.00  0.00    -0.477 C  
BRANCH  28  39
HETATM   39  C   UNL     1     -10.526  17.449  66.640  1.00  0.00    -0.253 C  
HETATM   40  H2  UNL     1     -10.618  18.346  64.785  1.00  0.00     0.000 HD 
HETATM   41  N   UNL     1      -9.997  18.334  65.593  1.00  0.00    -0.445 NA 
HETATM   42  H1  UNL     1      -9.806  19.283  65.915  1.00  0.00     0.000 HD 
ENDBRANCH  28  39
ENDBRANCH  25  26
ENDBRANCH  24  25
ENDBRANCH  10  11
ENDBRANCH   1  10
BRANCH   5  43
HETATM   43  C   UNL     1     -11.177  15.665  71.189  1.00  0.00    -0.355 C  
HETATM   44  O   UNL     1     -10.948  16.363  69.960  1.00  0.00    -0.354 OA 
HETATM   45  H   UNL     1     -10.060  16.700  69.947  1.00  0.00     0.000 HD 
ENDBRANCH   5  43
TORSDOF 6
ENDMDL
MODEL       29
REMARK 921   NORMALIZED FREE ENERGY PREDICTED BY IDOCK:   -6.61 KCAL/MOL
REMARK 922        TOTAL FREE ENERGY PREDICTED BY IDOCK:  -10.58 KCAL/MOL
REMARK 923 INTER-LIGAND FREE ENERGY PREDICTED BY IDOCK:   -8.84 KCAL/MOL
REMARK 924 INTRA-LIGAND FREE ENERGY PREDICTED BY IDOCK:   -1.73 KCAL/MOL
REMARK 927      BINDING AFFINITY PREDICTED BY RF-SCORE:    0.00 PKD
ROOT
HETATM    1  C   UNL     1      -9.939  14.212  68.974  1.00  0.00    -0.058 C  
HETATM    2  O   UNL     1      -6.967  15.250  67.906  1.00  0.00    -0.117 OA 
HETATM    3  O   UNL     1      -9.833  15.639  69.086  1.00  0.00    -0.213 OA 
HETATM    4  H   UNL     1      -7.156  12.733  67.946  1.00  0.00     0.000 HD 
HETATM    5  C   UNL     1      -9.252  16.156  67.875  1.00  0.00    -0.200 C  
HETATM    6  H   UNL     1      -6.373  14.574  67.601  1.00  0.00     0.000 HD 
HETATM    7  C   UNL     1      -8.300  15.073  67.386  1.00  0.00    -0.190 C  
HETATM    8  O   UNL     1      -7.815  13.006  68.572  1.00  0.00    -0.137 OA 
HETATM    9  C   UNL     1      -8.865  13.768  67.954  1.00  0.00    -0.186 C  
ENDROOT
BRANCH   1  10
HETATM   10  O   UNL     1     -11.233  13.846  68.488  1.00  0.00    -0.244 OA 
BRANCH  10  11
HETATM   11  C   UNL     1     -12.263  13.521  69.462  1.00  0.00    -0.236 C  
HETATM   12  O   UNL     1     -13.027  15.820  69.619  1.00  0.00    -0.510 OA 
HETATM   13  H2  UNL     1     -13.488  10.633  72.902  1.00  0.00     0.000 HD 
HETATM   14  H   UNL     1     -13.218  16.550  70.196  1.00  0.00     0.000 HD 
HETATM   15  C   UNL     1     -12.573  14.702  70.394  1.00  0.00    -0.343 C  
HETATM   16  H1  UNL     1     -12.665   9.977  71.574  1.00  0.00     0.000 HD 
HETATM   17  C   UNL     1     -13.299  13.182  72.248  1.00  0.00    -0.621 C  
HETATM   18  N   UNL     1     -13.902  15.575  72.268  1.00  0.00    -0.522 NA 
HETATM   19  N   UNL     1     -12.791  10.792  72.175  1.00  0.00    -0.256 NA 
HETATM   20  H1  UNL     1     -14.637  15.372  72.945  1.00  0.00     0.000 HD 
HETATM   21  H2  UNL     1     -14.103  16.414  71.722  1.00  0.00     0.000 HD 
HETATM   22  C   UNL     1     -13.109  11.957  71.344  1.00  0.00    -0.204 C  
HETATM   23  C   UNL     1     -13.678  14.397  71.413  1.00  0.00    -0.348 C  
HETATM   24  C   UNL     1     -12.020  12.193  70.242  1.00  0.00    -0.305 C  
BRANCH  24  25
HETATM   25  O   UNL     1     -11.808  11.058  69.360  1.00  0.00    -0.287 OA 
BRANCH  25  26
HETATM   26  C   UNL     1     -10.474  10.537  69.295  1.00  0.00    -0.235 C  
HETATM   27  O   UNL     1     -10.207   9.663  70.394  1.00  0.00    -0.255 OA 
HETATM   28  C   UNL     1     -11.015   8.477  70.372  1.00  0.00    -0.238 C  
HETATM   29  C   UNL     1     -10.657   7.627  69.145  1.00  0.00    -0.186 C  
HETATM   30  H2  UNL     1      -9.979  11.495  66.769  1.00  0.00     0.000 HD 
HETATM   31  C   UNL     1     -10.907   8.454  67.883  1.00  0.00     0.032 C  
HETATM   32  O   UNL     1     -11.451   6.438  69.021  1.00  0.00    -0.580 OA 
HETATM   33  H1  UNL     1     -10.278  10.125  65.855  1.00  0.00     0.000 HD 
HETATM   34  H   UNL     1     -11.230   5.912  68.262  1.00  0.00     0.000 HD 
HETATM   35  H   UNL     1     -10.613   8.225  65.951  1.00  0.00     0.000 HD 
HETATM   36  N   UNL     1     -10.472  10.603  66.735  1.00  0.00    -0.245 NA 
HETATM   37  O   UNL     1     -10.459   7.711  66.735  1.00  0.00    -0.314 OA 
HETATM   38  C   UNL     1     -10.178   9.806  67.948  1.00  0.00    -0.194 C  
BRANCH  28  39
HETATM   39  C   UNL     1     -10.809   7.752  71.713  1.00  0.00    -0.236 C  
HETATM   40  H2  UNL     1     -12.808   7.512  72.159  1.00  0.00     0.000 HD 
HETATM   41  N   UNL     1     -11.961   7.844  72.620  1.00  0.00    -0.582 NA 
HETATM   42  H1  UNL     1     -11.824   7.363  73.509  1.00  0.00     0.000 HD 
ENDBRANCH  28  39
ENDBRANCH  25  26
ENDBRANCH  24  25
ENDBRANCH  10  11
ENDBRANCH   1  10
BRANCH   5  43
HETATM   43  C   UNL     1     -10.315  16.508  66.826  1.00  0.00    -0.296 C  
HETATM   44  O   UNL     1      -9.673  16.876  65.600  1.00  0.00    -0.538 OA 
HETATM   45  H   UNL     1     -10.331  17.094  64.951  1.00  0.00     0.000 HD 
ENDBRANCH   5  43
TORSDOF 6
ENDMDL
MODEL       30
REMARK 921   NORMALIZED FREE ENERGY PREDICTED BY IDOCK:   -6.61 KCAL/MOL
REMARK 922        TOTAL FREE ENERGY PREDICTED BY IDOCK:  -10.57 KCAL/MOL
REMARK 923 INTER-LIGAND FREE ENERGY PREDICTED BY IDOCK:   -9.18 KCAL/MOL
REMARK 924 INTRA-LIGAND FREE ENERGY PREDICTED BY IDOCK:   -1.39 KCAL/MOL
REMARK 927      BINDING AFFINITY PREDICTED BY RF-SCORE:    0.00 PKD
ROOT
HETATM    1  C   UNL     1     -10.735  13.135  65.833  1.00  0.00    -0.274 C  
HETATM    2  O   UNL     1     -12.610  14.368  63.380  1.00  0.00    -1.054 OA 
HETATM    3  O   UNL     1      -9.948  13.960  64.962  1.00  0.00    -0.306 OA 
HETATM    4  H   UNL     1     -13.870  12.731  64.831  1.00  0.00     0.000 HD 
HETATM    5  C   UNL     1     -10.682  15.166  64.679  1.00  0.00    -0.208 C  
HETATM    6  H   UNL     1     -13.525  14.115  63.386  1.00  0.00     0.000 HD 
HETATM    7  C   UNL     1     -12.149  14.760  64.688  1.00  0.00    -0.427 C  
HETATM    8  O   UNL     1     -12.963  12.486  64.971  1.00  0.00    -0.779 OA 
HETATM    9  C   UNL     1     -12.212  13.534  65.604  1.00  0.00    -0.458 C  
ENDROOT
BRANCH   1  10
HETATM   10  O   UNL     1     -10.386  13.375  67.198  1.00  0.00    -0.244 OA 
BRANCH  10  11
HETATM   11  C   UNL     1     -11.358  13.033  68.224  1.00  0.00    -0.288 C  
HETATM   12  O   UNL     1     -12.304  15.268  68.261  1.00  0.00    -0.507 OA 
HETATM   13  H2  UNL     1     -12.243  10.288  71.879  1.00  0.00     0.000 HD 
HETATM   14  H   UNL     1     -12.538  16.017  68.797  1.00  0.00     0.000 HD 
HETATM   15  C   UNL     1     -11.738  14.244  69.090  1.00  0.00    -0.320 C  
HETATM   16  H1  UNL     1     -11.406   9.614  70.568  1.00  0.00     0.000 HD 
HETATM   17  C   UNL     1     -12.284  12.795  71.059  1.00  0.00    -0.202 C  
HETATM   18  N   UNL     1     -13.081  15.128  70.948  1.00  0.00    -0.511 NA 
HETATM   19  N   UNL     1     -11.582  10.454  71.120  1.00  0.00    -0.300 NA 
HETATM   20  H1  UNL     1     -13.777  14.911  71.661  1.00  0.00     0.000 HD 
HETATM   21  H2  UNL     1     -13.366  15.910  70.358  1.00  0.00     0.000 HD 
HETATM   22  C   UNL     1     -12.019  11.533  70.228  1.00  0.00    -0.368 C  
HETATM   23  C   UNL     1     -12.784  13.919  70.162  1.00  0.00    -0.123 C  
HETATM   24  C   UNL     1     -10.984  11.783  69.077  1.00  0.00    -0.227 C  
BRANCH  24  25
HETATM   25  O   UNL     1     -10.704  10.613  68.263  1.00  0.00    -0.189 OA 
BRANCH  25  26
HETATM   26  C   UNL     1      -9.337  10.405  67.888  1.00  0.00    -0.138 C  
HETATM   27  O   UNL     1      -8.540  10.046  69.020  1.00  0.00    -0.132 OA 
HETATM   28  C   UNL     1      -8.913   8.781  69.585  1.00  0.00    -0.145 C  
HETATM   29  C   UNL     1      -8.629   7.658  68.578  1.00  0.00    -0.129 C  
HETATM   30  H2  UNL     1      -9.823  10.511  65.187  1.00  0.00     0.000 HD 
HETATM   31  C   UNL     1      -9.435   7.921  67.306  1.00  0.00    -0.149 C  
HETATM   32  O   UNL     1      -9.013   6.358  69.048  1.00  0.00    -0.128 OA 
HETATM   33  H1  UNL     1      -9.897   8.879  64.822  1.00  0.00     0.000 HD 
HETATM   34  H   UNL     1      -8.837   5.663  68.425  1.00  0.00     0.000 HD 
HETATM   35  H   UNL     1      -9.583   7.106  65.521  1.00  0.00     0.000 HD 
HETATM   36  N   UNL     1     -10.002   9.578  65.557  1.00  0.00    -0.250 NA 
HETATM   37  O   UNL     1      -9.082   6.942  66.312  1.00  0.00    -0.156 OA 
HETATM   38  C   UNL     1      -9.176   9.335  66.763  1.00  0.00    -0.147 C  
BRANCH  28  39
HETATM   39  C   UNL     1      -8.157   8.630  70.917  1.00  0.00    -0.136 C  
HETATM   40  H2  UNL     1      -7.150  10.427  70.818  1.00  0.00     0.000 HD 
HETATM   41  N   UNL     1      -6.939   9.446  71.002  1.00  0.00    -0.236 NA 
HETATM   42  H1  UNL     1      -6.438   9.346  71.885  1.00  0.00     0.000 HD 
ENDBRANCH  28  39
ENDBRANCH  25  26
ENDBRANCH  24  25
ENDBRANCH  10  11
ENDBRANCH   1  10
BRANCH   5  43
HETATM   43  C   UNL     1     -10.383  16.278  65.693  1.00  0.00    -0.363 C  
HETATM   44  O   UNL     1      -9.086  16.070  66.262  1.00  0.00    -0.284 OA 
HETATM   45  H   UNL     1      -8.900  16.758  66.889  1.00  0.00     0.000 HD 
ENDBRANCH   5  43
TORSDOF 6
ENDMDL
MODEL       31
REMARK 921   NORMALIZED FREE ENERGY PREDICTED BY IDOCK:   -6.55 KCAL/MOL
REMARK 922        TOTAL FREE ENERGY PREDICTED BY IDOCK:  -10.49 KCAL/MOL
REMARK 923 INTER-LIGAND FREE ENERGY PREDICTED BY IDOCK:  -10.06 KCAL/MOL
REMARK 924 INTRA-LIGAND FREE ENERGY PREDICTED BY IDOCK:   -0.43 KCAL/MOL
REMARK 927      BINDING AFFINITY PREDICTED BY RF-SCORE:    0.00 PKD
ROOT
HETATM    1  C   UNL     1     -10.138  13.281  66.596  1.00  0.00    -0.266 C  
HETATM    2  O   UNL     1     -12.851  12.421  64.877  1.00  0.00    -0.711 OA 
HETATM    3  O   UNL     1      -9.984  13.615  65.209  1.00  0.00    -0.283 OA 
HETATM    4  H   UNL     1     -12.953  11.670  67.286  1.00  0.00     0.000 HD 
HETATM    5  C   UNL     1     -11.197  14.234  64.745  1.00  0.00    -0.385 C  
HETATM    6  H   UNL     1     -13.550  12.015  65.376  1.00  0.00     0.000 HD 
HETATM    7  C   UNL     1     -12.318  13.583  65.543  1.00  0.00    -0.481 C  
HETATM    8  O   UNL     1     -12.021  11.766  67.131  1.00  0.00    -0.617 OA 
HETATM    9  C   UNL     1     -11.657  13.126  66.847  1.00  0.00    -0.368 C  
ENDROOT
BRANCH   1  10
HETATM   10  O   UNL     1      -9.628  14.331  67.422  1.00  0.00    -0.207 OA 
BRANCH  10  11
HETATM   11  C   UNL     1      -8.277  14.196  67.944  1.00  0.00    -0.155 C  
HETATM   12  O   UNL     1      -8.391  11.772  67.985  1.00  0.00    -0.139 OA 
HETATM   13  H2  UNL     1      -4.962  16.214  70.516  1.00  0.00     0.000 HD 
HETATM   14  H   UNL     1      -8.286  10.985  68.508  1.00  0.00     0.000 HD 
HETATM   15  C   UNL     1      -8.106  12.924  68.789  1.00  0.00     0.087 C  
HETATM   16  H1  UNL     1      -5.906  17.209  69.521  1.00  0.00     0.000 HD 
HETATM   17  C   UNL     1      -6.276  13.954  70.154  1.00  0.00    -0.123 C  
HETATM   18  N   UNL     1      -6.611  11.509  70.130  1.00  0.00    -0.434 NA 
HETATM   19  N   UNL     1      -5.878  16.366  70.095  1.00  0.00    -0.195 NA 
HETATM   20  H1  UNL     1      -5.664  11.388  70.488  1.00  0.00     0.000 HD 
HETATM   21  H2  UNL     1      -6.933  10.692  69.610  1.00  0.00     0.000 HD 
HETATM   22  C   UNL     1      -6.318  15.221  69.290  1.00  0.00    -0.126 C  
HETATM   23  C   UNL     1      -6.682  12.742  69.328  1.00  0.00    -0.058 C  
HETATM   24  C   UNL     1      -7.733  15.468  68.663  1.00  0.00    -0.144 C  
BRANCH  24  25
HETATM   25  O   UNL     1      -7.818  16.659  67.834  1.00  0.00    -0.161 OA 
BRANCH  25  26
HETATM   26  C   UNL     1      -8.264  17.858  68.479  1.00  0.00    -0.295 C  
HETATM   27  O   UNL     1      -7.275  18.887  68.397  1.00  0.00    -0.260 OA 
HETATM   28  C   UNL     1      -7.031  19.319  67.051  1.00  0.00    -0.198 C  
HETATM   29  C   UNL     1      -8.291  19.989  66.484  1.00  0.00    -0.311 C  
HETATM   30  H2  UNL     1     -10.844  16.981  68.830  1.00  0.00     0.000 HD 
HETATM   31  C   UNL     1      -9.440  18.980  66.510  1.00  0.00    -0.345 C  
HETATM   32  O   UNL     1      -8.148  20.415  65.121  1.00  0.00    -0.345 OA 
HETATM   33  H1  UNL     1     -11.599  17.713  67.528  1.00  0.00     0.000 HD 
HETATM   34  H   UNL     1      -8.928  20.830  64.771  1.00  0.00     0.000 HD 
HETATM   35  H   UNL     1     -11.367  19.008  66.113  1.00  0.00     0.000 HD 
HETATM   36  N   UNL     1     -10.711  17.373  67.898  1.00  0.00    -0.384 NA 
HETATM   37  O   UNL     1     -10.653  19.635  66.096  1.00  0.00    -0.472 OA 
HETATM   38  C   UNL     1      -9.623  18.378  67.912  1.00  0.00    -0.293 C  
BRANCH  28  39
HETATM   39  C   UNL     1      -5.797  20.236  67.076  1.00  0.00    -0.167 C  
HETATM   40  H2  UNL     1      -6.016  20.866  69.028  1.00  0.00     0.000 HD 
HETATM   41  N   UNL     1      -5.855  21.279  68.110  1.00  0.00    -0.324 NA 
HETATM   42  H1  UNL     1      -5.036  21.887  68.127  1.00  0.00     0.000 HD 
ENDBRANCH  28  39
ENDBRANCH  25  26
ENDBRANCH  24  25
ENDBRANCH  10  11
ENDBRANCH   1  10
BRANCH   5  43
HETATM   43  C   UNL     1     -11.174  15.759  64.919  1.00  0.00    -0.350 C  
HETATM   44  O   UNL     1     -11.722  16.381  63.752  1.00  0.00    -1.553 OA 
HETATM   45  H   UNL     1     -11.707  17.325  63.859  1.00  0.00     0.000 HD 
ENDBRANCH   5  43
TORSDOF 6
ENDMDL
MODEL       32
REMARK 921   NORMALIZED FREE ENERGY PREDICTED BY IDOCK:   -6.55 KCAL/MOL
REMARK 922        TOTAL FREE ENERGY PREDICTED BY IDOCK:  -10.49 KCAL/MOL
REMARK 923 INTER-LIGAND FREE ENERGY PREDICTED BY IDOCK:   -9.57 KCAL/MOL
REMARK 924 INTRA-LIGAND FREE ENERGY PREDICTED BY IDOCK:   -0.92 KCAL/MOL
REMARK 927      BINDING AFFINITY PREDICTED BY RF-SCORE:    0.00 PKD
ROOT
HETATM    1  C   UNL     1     -11.868  15.485  69.325  1.00  0.00    -0.353 C  
HETATM    2  O   UNL     1     -13.366  13.024  70.984  1.00  0.00    -0.010 OA 
HETATM    3  O   UNL     1     -12.921  16.001  70.151  1.00  0.00    -0.145 OA 
HETATM    4  H   UNL     1     -11.645  12.176  69.342  1.00  0.00     0.000 HD 
HETATM    5  C   UNL     1     -12.839  15.380  71.447  1.00  0.00    -0.439 C  
HETATM    6  H   UNL     1     -13.032  12.149  70.826  1.00  0.00     0.000 HD 
HETATM    7  C   UNL     1     -12.305  13.977  71.192  1.00  0.00    -0.365 C  
HETATM    8  O   UNL     1     -11.869  13.031  68.994  1.00  0.00    -0.302 OA 
HETATM    9  C   UNL     1     -11.504  14.092  69.892  1.00  0.00    -0.226 C  
ENDROOT
BRANCH   1  10
HETATM   10  O   UNL     1     -10.721  16.336  69.388  1.00  0.00    -0.273 OA 
BRANCH  10  11
HETATM   11  C   UNL     1     -10.275  16.976  68.161  1.00  0.00    -0.322 C  
HETATM   12  O   UNL     1      -9.441  18.934  69.329  1.00  0.00    -0.181 OA 
HETATM   13  H2  UNL     1     -11.014  17.384  63.582  1.00  0.00     0.000 HD 
HETATM   14  H   UNL     1      -9.458  19.882  69.392  1.00  0.00     0.000 HD 
HETATM   15  C   UNL     1     -10.302  18.509  68.264  1.00  0.00    -0.344 C  
HETATM   16  H1  UNL     1     -11.215  15.854  64.282  1.00  0.00     0.000 HD 
HETATM   17  C   UNL     1     -10.638  18.771  65.795  1.00  0.00    -0.321 C  
HETATM   18  N   UNL     1      -9.876  20.670  67.175  1.00  0.00    -0.564 NA 
HETATM   19  N   UNL     1     -11.292  16.863  64.413  1.00  0.00    -1.090 NA 
HETATM   20  H1  UNL     1      -9.547  21.136  66.330  1.00  0.00     0.000 HD 
HETATM   21  H2  UNL     1      -9.370  20.979  68.006  1.00  0.00     0.000 HD 
HETATM   22  C   UNL     1     -10.522  17.254  65.599  1.00  0.00    -0.181 C  
HETATM   23  C   UNL     1      -9.807  19.210  66.993  1.00  0.00    -0.336 C  
HETATM   24  C   UNL     1     -10.971  16.452  66.868  1.00  0.00    -0.018 C  
BRANCH  24  25
HETATM   25  O   UNL     1     -10.876  15.009  66.727  1.00  0.00    -0.307 OA 
BRANCH  25  26
HETATM   26  C   UNL     1      -9.852  14.516  65.854  1.00  0.00    -0.321 C  
HETATM   27  O   UNL     1      -8.666  14.189  66.583  1.00  0.00    -0.169 OA 
HETATM   28  C   UNL     1      -8.857  13.101  67.499  1.00  0.00    -0.199 C  
HETATM   29  C   UNL     1      -9.164  11.815  66.719  1.00  0.00    -0.194 C  
HETATM   30  H2  UNL     1     -11.495  14.321  63.662  1.00  0.00     0.000 HD 
HETATM   31  C   UNL     1     -10.431  12.030  65.890  1.00  0.00    -0.255 C  
HETATM   32  O   UNL     1      -9.412  10.680  67.563  1.00  0.00    -0.152 OA 
HETATM   33  H1  UNL     1     -11.876  12.692  63.705  1.00  0.00     0.000 HD 
HETATM   34  H   UNL     1      -9.602   9.884  67.080  1.00  0.00     0.000 HD 
HETATM   35  H   UNL     1     -11.444  11.008  64.548  1.00  0.00     0.000 HD 
HETATM   36  N   UNL     1     -11.572  13.496  64.255  1.00  0.00    -0.392 NA 
HETATM   37  O   UNL     1     -10.657  10.874  65.064  1.00  0.00    -0.286 OA 
HETATM   38  C   UNL     1     -10.317  13.287  65.013  1.00  0.00    -0.340 C  
BRANCH  28  39
HETATM   39  C   UNL     1      -7.599  13.011  68.379  1.00  0.00    -0.133 C  
HETATM   40  H2  UNL     1      -7.852  11.044  68.946  1.00  0.00     0.000 HD 
HETATM   41  N   UNL     1      -7.656  11.943  69.386  1.00  0.00    -0.329 NA 
HETATM   42  H1  UNL     1      -6.821  11.883  69.969  1.00  0.00     0.000 HD 
ENDBRANCH  28  39
ENDBRANCH  25  26
ENDBRANCH  24  25
ENDBRANCH  10  11
ENDBRANCH   1  10
BRANCH   5  43
HETATM   43  C   UNL     1     -11.948  16.171  72.414  1.00  0.00    -0.554 C  
HETATM   44  O   UNL     1     -12.029  15.590  73.721  1.00  0.00    -0.465 OA 
HETATM   45  H   UNL     1     -11.478  16.080  74.320  1.00  0.00     0.000 HD 
ENDBRANCH   5  43
TORSDOF 6
ENDMDL
MODEL       33
REMARK 921   NORMALIZED FREE ENERGY PREDICTED BY IDOCK:   -6.51 KCAL/MOL
REMARK 922        TOTAL FREE ENERGY PREDICTED BY IDOCK:  -10.44 KCAL/MOL
REMARK 923 INTER-LIGAND FREE ENERGY PREDICTED BY IDOCK:   -9.32 KCAL/MOL
REMARK 924 INTRA-LIGAND FREE ENERGY PREDICTED BY IDOCK:   -1.12 KCAL/MOL
REMARK 927      BINDING AFFINITY PREDICTED BY RF-SCORE:    0.00 PKD
ROOT
HETATM    1  C   UNL     1     -11.267  14.545  69.510  1.00  0.00    -0.264 C  
HETATM    2  O   UNL     1     -11.553  16.337  72.295  1.00  0.00    -0.448 OA 
HETATM    3  O   UNL     1     -11.224  13.694  70.665  1.00  0.00     0.296 OA 
HETATM    4  H   UNL     1     -11.401  17.779  70.228  1.00  0.00     0.000 HD 
HETATM    5  C   UNL     1     -12.263  14.097  71.576  1.00  0.00    -0.258 C  
HETATM    6  H   UNL     1     -11.640  17.276  72.181  1.00  0.00     0.000 HD 
HETATM    7  C   UNL     1     -12.402  15.602  71.393  1.00  0.00    -0.426 C  
HETATM    8  O   UNL     1     -10.997  16.966  69.951  1.00  0.00    -0.211 OA 
HETATM    9  C   UNL     1     -11.926  15.870  69.962  1.00  0.00    -0.281 C  
ENDROOT
BRANCH   1  10
HETATM   10  O   UNL     1     -12.061  13.950  68.481  1.00  0.00    -0.362 OA 
BRANCH  10  11
HETATM   11  C   UNL     1     -11.500  13.872  67.141  1.00  0.00    -0.347 C  
HETATM   12  O   UNL     1     -10.979  16.242  67.079  1.00  0.00    -0.231 OA 
HETATM   13  H2  UNL     1     -11.640  11.616  63.071  1.00  0.00     0.000 HD 
HETATM   14  H   UNL     1     -11.074  17.059  66.603  1.00  0.00     0.000 HD 
HETATM   15  C   UNL     1     -11.654  15.193  66.372  1.00  0.00    -0.089 C  
HETATM   16  H1  UNL     1     -11.821  10.704  64.488  1.00  0.00     0.000 HD 
HETATM   17  C   UNL     1     -11.670  14.020  64.159  1.00  0.00    -0.340 C  
HETATM   18  N   UNL     1     -11.243  16.447  64.299  1.00  0.00    -1.298 NA 
HETATM   19  N   UNL     1     -11.988  11.600  64.029  1.00  0.00    -0.260 NA 
HETATM   20  H1  UNL     1     -10.838  16.417  63.364  1.00  0.00     0.000 HD 
HETATM   21  H2  UNL     1     -10.879  17.224  64.851  1.00  0.00     0.000 HD 
HETATM   22  C   UNL     1     -11.417  12.674  64.849  1.00  0.00    -0.322 C  
HETATM   23  C   UNL     1     -11.044  15.149  64.966  1.00  0.00    -0.419 C  
HETATM   24  C   UNL     1     -11.975  12.640  66.313  1.00  0.00    -0.374 C  
BRANCH  24  25
HETATM   25  O   UNL     1     -11.756  11.382  67.006  1.00  0.00    -0.535 OA 
BRANCH  25  26
HETATM   26  C   UNL     1     -10.479  11.209  67.634  1.00  0.00    -0.196 C  
HETATM   27  O   UNL     1     -10.602  11.201  69.059  1.00  0.00    -0.207 OA 
HETATM   28  C   UNL     1     -11.353  10.079  69.546  1.00  0.00    -0.169 C  
HETATM   29  C   UNL     1     -10.597   8.778  69.245  1.00  0.00    -0.197 C  
HETATM   30  H2  UNL     1      -9.154  10.627  65.300  1.00  0.00     0.000 HD 
HETATM   31  C   UNL     1     -10.402   8.660  67.733  1.00  0.00    -0.242 C  
HETATM   32  O   UNL     1     -11.300   7.598  69.663  1.00  0.00    -0.453 OA 
HETATM   33  H1  UNL     1      -9.121   8.955  65.372  1.00  0.00     0.000 HD 
HETATM   34  H   UNL     1     -10.832   6.793  69.477  1.00  0.00     0.000 HD 
HETATM   35  H   UNL     1      -9.467   7.433  66.511  1.00  0.00     0.000 HD 
HETATM   36  N   UNL     1      -9.604   9.797  65.685  1.00  0.00    -0.244 NA 
HETATM   37  O   UNL     1      -9.589   7.507  67.451  1.00  0.00    -0.139 OA 
HETATM   38  C   UNL     1      -9.741   9.921  67.155  1.00  0.00    -0.178 C  
BRANCH  28  39
HETATM   39  C   UNL     1     -11.615  10.315  71.044  1.00  0.00    -0.343 C  
HETATM   40  H2  UNL     1     -12.584   8.528  71.394  1.00  0.00     0.000 HD 
HETATM   41  N   UNL     1     -12.727   9.520  71.582  1.00  0.00    -0.360 NA 
HETATM   42  H1  UNL     1     -12.901   9.677  72.576  1.00  0.00     0.000 HD 
ENDBRANCH  28  39
ENDBRANCH  25  26
ENDBRANCH  24  25
ENDBRANCH  10  11
ENDBRANCH   1  10
BRANCH   5  43
HETATM   43  C   UNL     1     -13.582  13.358  71.315  1.00  0.00     0.078 C  
HETATM   44  O   UNL     1     -13.722  12.285  72.253  1.00  0.00    -0.500 OA 
HETATM   45  H   UNL     1     -14.538  11.828  72.091  1.00  0.00     0.000 HD 
ENDBRANCH   5  43
TORSDOF 6
ENDMDL
MODEL       34
REMARK 921   NORMALIZED FREE ENERGY PREDICTED BY IDOCK:   -6.49 KCAL/MOL
REMARK 922        TOTAL FREE ENERGY PREDICTED BY IDOCK:  -10.41 KCAL/MOL
REMARK 923 INTER-LIGAND FREE ENERGY PREDICTED BY IDOCK:   -8.71 KCAL/MOL
REMARK 924 INTRA-LIGAND FREE ENERGY PREDICTED BY IDOCK:   -1.71 KCAL/MOL
REMARK 927      BINDING AFFINITY PREDICTED BY RF-SCORE:    0.00 PKD
ROOT
HETATM    1  C   UNL     1      -8.261  11.224  67.257  1.00  0.00    -0.140 C  
HETATM    2  O   UNL     1      -5.378  11.407  68.902  1.00  0.00    -0.041 OA 
HETATM    3  O   UNL     1      -7.297  10.326  66.688  1.00  0.00    -0.102 OA 
HETATM    4  H   UNL     1      -7.058  13.113  69.702  1.00  0.00     0.000 HD 
HETATM    5  C   UNL     1      -6.629   9.629  67.756  1.00  0.00    -0.065 C  
HETATM    6  H   UNL     1      -5.348  12.020  69.627  1.00  0.00     0.000 HD 
HETATM    7  C   UNL     1      -6.580  10.613  68.916  1.00  0.00    -0.055 C  
HETATM    8  O   UNL     1      -7.357  12.915  68.823  1.00  0.00    -0.109 OA 
HETATM    9  C   UNL     1      -7.773  11.546  68.689  1.00  0.00    -0.139 C  
ENDROOT
BRANCH   1  10
HETATM   10  O   UNL     1      -9.545  10.601  67.324  1.00  0.00    -0.160 OA 
BRANCH  10  11
HETATM   11  C   UNL     1     -10.502  10.887  66.267  1.00  0.00    -0.245 C  
HETATM   12  O   UNL     1      -9.325   9.514  64.648  1.00  0.00    -0.373 OA 
HETATM   13  H2  UNL     1     -13.536  14.004  64.608  1.00  0.00     0.000 HD 
HETATM   14  H   UNL     1      -8.928   9.476  63.786  1.00  0.00     0.000 HD 
HETATM   15  C   UNL     1      -9.860  10.825  64.872  1.00  0.00    -0.292 C  
HETATM   16  H1  UNL     1     -13.434  13.817  66.289  1.00  0.00     0.000 HD 
HETATM   17  C   UNL     1     -11.513  12.452  63.927  1.00  0.00    -0.509 C  
HETATM   18  N   UNL     1     -10.156  11.024  62.441  1.00  0.00    -0.534 NA 
HETATM   19  N   UNL     1     -12.932  13.791  65.401  1.00  0.00    -0.727 NA 
HETATM   20  H1  UNL     1     -10.817  11.203  61.686  1.00  0.00     0.000 HD 
HETATM   21  H2  UNL     1      -9.661  10.141  62.318  1.00  0.00     0.000 HD 
HETATM   22  C   UNL     1     -12.268  12.491  65.262  1.00  0.00    -0.433 C  
HETATM   23  C   UNL     1     -10.854  11.094  63.736  1.00  0.00    -0.262 C  
HETATM   24  C   UNL     1     -11.335  12.187  66.484  1.00  0.00    -0.350 C  
BRANCH  24  25
HETATM   25  O   UNL     1     -12.009  12.211  67.771  1.00  0.00    -0.506 OA 
BRANCH  25  26
HETATM   26  C   UNL     1     -11.204  12.535  68.911  1.00  0.00    -0.281 C  
HETATM   27  O   UNL     1     -10.763  13.894  68.863  1.00  0.00    -0.247 OA 
HETATM   28  C   UNL     1     -11.844  14.834  68.956  1.00  0.00    -0.302 C  
HETATM   29  C   UNL     1     -12.510  14.724  70.335  1.00  0.00    -0.349 C  
HETATM   30  H2  UNL     1     -11.750  10.198  70.246  1.00  0.00     0.000 HD 
HETATM   31  C   UNL     1     -13.037  13.300  70.515  1.00  0.00     0.262 C  
HETATM   32  O   UNL     1     -13.633  15.602  70.500  1.00  0.00    -0.833 OA 
HETATM   33  H1  UNL     1     -12.960  10.710  71.284  1.00  0.00     0.000 HD 
HETATM   34  H   UNL     1     -14.045  15.534  71.353  1.00  0.00     0.000 HD 
HETATM   35  H   UNL     1     -13.881  12.267  71.962  1.00  0.00     0.000 HD 
HETATM   36  N   UNL     1     -12.483  10.890  70.400  1.00  0.00    -0.329 NA 
HETATM   37  O   UNL     1     -13.554  13.152  71.850  1.00  0.00    -0.432 OA 
HETATM   38  C   UNL     1     -11.934  12.259  70.263  1.00  0.00    -0.290 C  
BRANCH  28  39
HETATM   39  C   UNL     1     -11.271  16.229  68.652  1.00  0.00    -0.354 C  
HETATM   40  H2  UNL     1     -10.277  16.468  70.443  1.00  0.00     0.000 HD 
HETATM   41  N   UNL     1     -10.917  16.998  69.852  1.00  0.00    -0.300 NA 
HETATM   42  H1  UNL     1     -10.536  17.923  69.649  1.00  0.00     0.000 HD 
ENDBRANCH  28  39
ENDBRANCH  25  26
ENDBRANCH  24  25
ENDBRANCH  10  11
ENDBRANCH   1  10
BRANCH   5  43
HETATM   43  C   UNL     1      -7.342   8.324  68.133  1.00  0.00    -0.096 C  
HETATM   44  O   UNL     1      -8.134   7.876  67.027  1.00  0.00    -0.113 OA 
HETATM   45  H   UNL     1      -8.576   7.068  67.260  1.00  0.00     0.000 HD 
ENDBRANCH   5  43
TORSDOF 6
ENDMDL
MODEL       35
REMARK 921   NORMALIZED FREE ENERGY PREDICTED BY IDOCK:   -6.49 KCAL/MOL
REMARK 922        TOTAL FREE ENERGY PREDICTED BY IDOCK:  -10.41 KCAL/MOL
REMARK 923 INTER-LIGAND FREE ENERGY PREDICTED BY IDOCK:   -9.10 KCAL/MOL
REMARK 924 INTRA-LIGAND FREE ENERGY PREDICTED BY IDOCK:   -1.31 KCAL/MOL
REMARK 927      BINDING AFFINITY PREDICTED BY RF-SCORE:    0.00 PKD
ROOT
HETATM    1  C   UNL     1     -11.320  12.072  66.057  1.00  0.00    -0.343 C  
HETATM    2  O   UNL     1     -10.919  15.361  65.787  1.00  0.00    -0.330 OA 
HETATM    3  O   UNL     1     -12.502  12.682  65.521  1.00  0.00    -0.622 OA 
HETATM    4  H   UNL     1      -8.965  14.239  66.925  1.00  0.00     0.000 HD 
HETATM    5  C   UNL     1     -12.115  13.634  64.512  1.00  0.00    -0.419 C  
HETATM    6  H   UNL     1     -10.080  15.705  66.071  1.00  0.00     0.000 HD 
HETATM    7  C   UNL     1     -10.771  14.185  64.968  1.00  0.00    -0.416 C  
HETATM    8  O   UNL     1      -9.675  13.624  67.064  1.00  0.00    -0.237 OA 
HETATM    9  C   UNL     1     -10.164  13.075  65.830  1.00  0.00    -0.290 C  
ENDROOT
BRANCH   1  10
HETATM   10  O   UNL     1     -11.031  10.853  65.368  1.00  0.00    -0.115 OA 
BRANCH  10  11
HETATM   11  C   UNL     1      -9.784  10.171  65.677  1.00  0.00    -0.259 C  
HETATM   12  O   UNL     1      -8.606  11.201  63.821  1.00  0.00    -0.380 OA 
HETATM   13  H2  UNL     1      -7.886   6.352  67.544  1.00  0.00     0.000 HD 
HETATM   14  H   UNL     1      -8.074  11.058  63.047  1.00  0.00     0.000 HD 
HETATM   15  C   UNL     1      -8.924   9.940  64.424  1.00  0.00    -0.239 C  
HETATM   16  H1  UNL     1      -9.265   6.995  68.289  1.00  0.00     0.000 HD 
HETATM   17  C   UNL     1      -7.835   7.916  65.420  1.00  0.00    -0.112 C  
HETATM   18  N   UNL     1      -6.837   9.058  63.473  1.00  0.00    -0.089 NA 
HETATM   19  N   UNL     1      -8.767   6.847  67.411  1.00  0.00    -0.120 NA 
HETATM   20  H1  UNL     1      -5.949   8.598  63.673  1.00  0.00     0.000 HD 
HETATM   21  H2  UNL     1      -6.710   9.933  62.964  1.00  0.00     0.000 HD 
HETATM   22  C   UNL     1      -8.584   8.138  66.740  1.00  0.00    -0.132 C  
HETATM   23  C   UNL     1      -7.590   9.248  64.725  1.00  0.00    -0.109 C  
HETATM   24  C   UNL     1      -9.950   8.879  66.533  1.00  0.00    -0.288 C  
BRANCH  24  25
HETATM   25  O   UNL     1     -10.694   9.112  67.759  1.00  0.00    -0.245 OA 
BRANCH  25  26
HETATM   26  C   UNL     1      -9.948   9.610  68.877  1.00  0.00    -0.178 C  
HETATM   27  O   UNL     1     -10.236  10.990  69.117  1.00  0.00    -0.210 OA 
HETATM   28  C   UNL     1     -11.597  11.214  69.515  1.00  0.00    -0.321 C  
HETATM   29  C   UNL     1     -11.855  10.553  70.876  1.00  0.00    -0.355 C  
HETATM   30  H2  UNL     1      -9.036   7.140  69.660  1.00  0.00     0.000 HD 
HETATM   31  C   UNL     1     -11.584   9.053  70.755  1.00  0.00    -0.265 C  
HETATM   32  O   UNL     1     -13.209  10.692  71.332  1.00  0.00    -0.375 OA 
HETATM   33  H1  UNL     1     -10.124   6.783  70.881  1.00  0.00     0.000 HD 
HETATM   34  H   UNL     1     -13.368  10.283  72.175  1.00  0.00     0.000 HD 
HETATM   35  H   UNL     1     -11.537   7.513  71.979  1.00  0.00     0.000 HD 
HETATM   36  N   UNL     1      -9.968   7.324  70.031  1.00  0.00    -0.183 NA 
HETATM   37  O   UNL     1     -11.705   8.445  72.054  1.00  0.00    -0.304 OA 
HETATM   38  C   UNL     1     -10.186   8.782  70.178  1.00  0.00    -0.190 C  
BRANCH  28  39
HETATM   39  C   UNL     1     -11.837  12.733  69.504  1.00  0.00    -0.316 C  
HETATM   40  H2  UNL     1     -11.292  13.068  71.465  1.00  0.00     0.000 HD 
HETATM   41  N   UNL     1     -12.060  13.306  70.838  1.00  0.00    -0.484 NA 
HETATM   42  H1  UNL     1     -12.219  14.314  70.831  1.00  0.00     0.000 HD 
ENDBRANCH  28  39
ENDBRANCH  25  26
ENDBRANCH  24  25
ENDBRANCH  10  11
ENDBRANCH   1  10
BRANCH   5  43
HETATM   43  C   UNL     1     -12.038  13.001  63.117  1.00  0.00    -0.246 C  
HETATM   44  O   UNL     1     -12.657  11.710  63.143  1.00  0.00    -0.926 OA 
HETATM   45  H   UNL     1     -12.610  11.318  62.279  1.00  0.00     0.000 HD 
ENDBRANCH   5  43
TORSDOF 6
ENDMDL
MODEL       36
REMARK 921   NORMALIZED FREE ENERGY PREDICTED BY IDOCK:   -6.49 KCAL/MOL
REMARK 922        TOTAL FREE ENERGY PREDICTED BY IDOCK:  -10.41 KCAL/MOL
REMARK 923 INTER-LIGAND FREE ENERGY PREDICTED BY IDOCK:   -8.93 KCAL/MOL
REMARK 924 INTRA-LIGAND FREE ENERGY PREDICTED BY IDOCK:   -1.48 KCAL/MOL
REMARK 927      BINDING AFFINITY PREDICTED BY RF-SCORE:    0.00 PKD
ROOT
HETATM    1  C   UNL     1      -8.703  11.754  66.564  1.00  0.00    -0.173 C  
HETATM    2  O   UNL     1      -6.372   9.417  66.959  1.00  0.00    -0.064 OA 
HETATM    3  O   UNL     1      -9.300  10.450  66.617  1.00  0.00    -0.154 OA 
HETATM    4  H   UNL     1      -5.389  11.720  66.639  1.00  0.00     0.000 HD 
HETATM    5  C   UNL     1      -8.699   9.710  67.695  1.00  0.00    -0.126 C  
HETATM    6  H   UNL     1      -5.476   9.725  67.010  1.00  0.00     0.000 HD 
HETATM    7  C   UNL     1      -7.262  10.204  67.776  1.00  0.00    -0.087 C  
HETATM    8  O   UNL     1      -6.249  11.799  66.245  1.00  0.00    -0.054 OA 
HETATM    9  C   UNL     1      -7.302  11.625  67.207  1.00  0.00    -0.136 C  
ENDROOT
BRANCH   1  10
HETATM   10  O   UNL     1      -9.482  12.690  67.314  1.00  0.00    -0.189 OA 
BRANCH  10  11
HETATM   11  C   UNL     1     -10.599  13.341  66.647  1.00  0.00    -0.281 C  
HETATM   12  O   UNL     1     -11.864  11.277  66.462  1.00  0.00    -0.251 OA 
HETATM   13  H2  UNL     1     -11.861  16.866  63.880  1.00  0.00     0.000 HD 
HETATM   14  H   UNL     1     -12.330  10.686  65.882  1.00  0.00     0.000 HD 
HETATM   15  C   UNL     1     -11.351  12.384  65.709  1.00  0.00    -0.352 C  
HETATM   16  H1  UNL     1     -10.651  17.157  65.030  1.00  0.00     0.000 HD 
HETATM   17  C   UNL     1     -12.103  14.262  64.231  1.00  0.00    -0.467 C  
HETATM   18  N   UNL     1     -13.207  12.057  64.131  1.00  0.00    -0.682 NA 
HETATM   19  N   UNL     1     -11.078  16.475  64.403  1.00  0.00    -0.933 NA 
HETATM   20  H1  UNL     1     -14.006  12.491  63.670  1.00  0.00     0.000 HD 
HETATM   21  H2  UNL     1     -13.467  11.204  64.628  1.00  0.00     0.000 HD 
HETATM   22  C   UNL     1     -11.460  15.287  65.174  1.00  0.00    -0.260 C  
HETATM   23  C   UNL     1     -12.552  13.037  65.015  1.00  0.00    -0.454 C  
HETATM   24  C   UNL     1     -10.241  14.693  65.959  1.00  0.00    -0.311 C  
BRANCH  24  25
HETATM   25  O   UNL     1      -9.602  15.631  66.867  1.00  0.00    -0.221 OA 
BRANCH  25  26
HETATM   26  C   UNL     1      -8.381  16.229  66.416  1.00  0.00    -0.330 C  
HETATM   27  O   UNL     1      -8.605  17.552  65.924  1.00  0.00    -0.528 OA 
HETATM   28  C   UNL     1      -9.048  18.459  66.945  1.00  0.00    -0.286 C  
HETATM   29  C   UNL     1      -7.937  18.649  67.987  1.00  0.00    -0.273 C  
HETATM   30  H2  UNL     1      -6.770  14.246  67.424  1.00  0.00     0.000 HD 
HETATM   31  C   UNL     1      -7.601  17.290  68.603  1.00  0.00    -0.260 C  
HETATM   32  O   UNL     1      -8.312  19.511  69.072  1.00  0.00    -0.339 OA 
HETATM   33  H1  UNL     1      -6.276  14.948  68.860  1.00  0.00     0.000 HD 
HETATM   34  H   UNL     1      -7.624  19.628  69.717  1.00  0.00     0.000 HD 
HETATM   35  H   UNL     1      -6.269  16.594  69.873  1.00  0.00     0.000 HD 
HETATM   36  N   UNL     1      -6.998  14.935  68.140  1.00  0.00    -0.114 NA 
HETATM   37  O   UNL     1      -6.478  17.438  69.491  1.00  0.00    -0.249 OA 
HETATM   38  C   UNL     1      -7.276  16.250  67.518  1.00  0.00    -0.153 C  
BRANCH  28  39
HETATM   39  C   UNL     1      -9.479  19.762  66.251  1.00  0.00    -0.406 C  
HETATM   40  H2  UNL     1     -11.431  19.198  65.892  1.00  0.00     0.000 HD 
HETATM   41  N   UNL     1     -10.651  19.607  65.378  1.00  0.00    -0.405 NA 
HETATM   42  H1  UNL     1     -10.937  20.472  64.917  1.00  0.00     0.000 HD 
ENDBRANCH  28  39
ENDBRANCH  25  26
ENDBRANCH  24  25
ENDBRANCH  10  11
ENDBRANCH   1  10
BRANCH   5  43
HETATM   43  C   UNL     1      -9.452   9.899  69.019  1.00  0.00    -0.183 C  
HETATM   44  O   UNL     1     -10.824  10.206  68.748  1.00  0.00    -0.208 OA 
HETATM   45  H   UNL     1     -11.290  10.324  69.567  1.00  0.00     0.000 HD 
ENDBRANCH   5  43
TORSDOF 6
ENDMDL
MODEL       37
REMARK 921   NORMALIZED FREE ENERGY PREDICTED BY IDOCK:   -6.46 KCAL/MOL
REMARK 922        TOTAL FREE ENERGY PREDICTED BY IDOCK:  -10.37 KCAL/MOL
REMARK 923 INTER-LIGAND FREE ENERGY PREDICTED BY IDOCK:   -8.51 KCAL/MOL
REMARK 924 INTRA-LIGAND FREE ENERGY PREDICTED BY IDOCK:   -1.86 KCAL/MOL
REMARK 927      BINDING AFFINITY PREDICTED BY RF-SCORE:    0.00 PKD
ROOT
HETATM    1  C   UNL     1      -8.346  10.902  65.087  1.00  0.00     0.001 C  
HETATM    2  O   UNL     1      -5.199   9.890  64.741  1.00  0.00    -0.056 OA 
HETATM    3  O   UNL     1      -8.006  10.778  63.699  1.00  0.00     0.002 OA 
HETATM    4  H   UNL     1      -5.810  10.344  67.148  1.00  0.00     0.000 HD 
HETATM    5  C   UNL     1      -7.295   9.541  63.506  1.00  0.00    -0.107 C  
HETATM    6  H   UNL     1      -4.715   9.748  65.545  1.00  0.00     0.000 HD 
HETATM    7  C   UNL     1      -6.519   9.314  64.796  1.00  0.00    -0.076 C  
HETATM    8  O   UNL     1      -6.441  10.865  66.666  1.00  0.00    -0.099 OA 
HETATM    9  C   UNL     1      -7.319  10.052  65.871  1.00  0.00    -0.115 C  
ENDROOT
BRANCH   1  10
HETATM   10  O   UNL     1      -9.661  10.394  65.326  1.00  0.00    -0.234 OA 
BRANCH  10  11
HETATM   11  C   UNL     1     -10.744  11.349  65.501  1.00  0.00    -0.253 C  
HETATM   12  O   UNL     1     -11.393  11.241  63.164  1.00  0.00    -0.837 OA 
HETATM   13  H2  UNL     1     -12.248  15.005  67.961  1.00  0.00     0.000 HD 
HETATM   14  H   UNL     1     -11.569  11.733  62.370  1.00  0.00     0.000 HD 
HETATM   15  C   UNL     1     -11.028  12.144  64.216  1.00  0.00    -0.339 C  
HETATM   16  H1  UNL     1     -11.408  13.787  68.787  1.00  0.00     0.000 HD 
HETATM   17  C   UNL     1     -11.903  14.107  65.503  1.00  0.00    -0.364 C  
HETATM   18  N   UNL     1     -12.382  13.861  63.095  1.00  0.00    -1.106 NA 
HETATM   19  N   UNL     1     -11.516  14.297  67.910  1.00  0.00    -0.297 NA 
HETATM   20  H1  UNL     1     -13.152  14.522  63.193  1.00  0.00     0.000 HD 
HETATM   21  H2  UNL     1     -12.518  13.226  62.308  1.00  0.00     0.000 HD 
HETATM   22  C   UNL     1     -11.741  13.340  66.822  1.00  0.00    -0.385 C  
HETATM   23  C   UNL     1     -12.185  13.139  64.363  1.00  0.00    -0.398 C  
HETATM   24  C   UNL     1     -10.599  12.268  66.751  1.00  0.00    -0.224 C  
BRANCH  24  25
HETATM   25  O   UNL     1     -10.412  11.515  67.980  1.00  0.00    -0.179 OA 
BRANCH  25  26
HETATM   26  C   UNL     1     -11.393  10.512  68.274  1.00  0.00    -0.264 C  
HETATM   27  O   UNL     1     -11.002   9.239  67.752  1.00  0.00    -0.186 OA 
HETATM   28  C   UNL     1      -9.819   8.721  68.377  1.00  0.00    -0.171 C  
HETATM   29  C   UNL     1     -10.097   8.431  69.858  1.00  0.00    -0.195 C  
HETATM   30  H2  UNL     1     -12.845  12.105  69.976  1.00  0.00     0.000 HD 
HETATM   31  C   UNL     1     -10.526   9.729  70.543  1.00  0.00    -0.301 C  
HETATM   32  O   UNL     1      -8.950   7.947  70.572  1.00  0.00    -0.143 OA 
HETATM   33  H1  UNL     1     -12.258  11.591  71.457  1.00  0.00     0.000 HD 
HETATM   34  H   UNL     1      -9.123   7.767  71.489  1.00  0.00     0.000 HD 
HETATM   35  H   UNL     1     -11.173  10.249  72.327  1.00  0.00     0.000 HD 
HETATM   36  N   UNL     1     -12.060  11.669  70.459  1.00  0.00    -0.377 NA 
HETATM   37  O   UNL     1     -10.907   9.443  71.901  1.00  0.00    -0.310 OA 
HETATM   38  C   UNL     1     -11.696  10.393  69.800  1.00  0.00    -0.237 C  
BRANCH  28  39
HETATM   39  C   UNL     1      -9.374   7.487  67.573  1.00  0.00    -0.138 C  
HETATM   40  H2  UNL     1     -10.199   8.072  65.775  1.00  0.00     0.000 HD 
HETATM   41  N   UNL     1     -10.180   7.243  66.369  1.00  0.00    -0.475 NA 
HETATM   42  H1  UNL     1      -9.885   6.425  65.836  1.00  0.00     0.000 HD 
ENDBRANCH  28  39
ENDBRANCH  25  26
ENDBRANCH  24  25
ENDBRANCH  10  11
ENDBRANCH   1  10
BRANCH   5  43
HETATM   43  C   UNL     1      -8.238   8.374  63.185  1.00  0.00    -0.127 C  
HETATM   44  O   UNL     1      -9.403   8.871  62.518  1.00  0.00    -0.516 OA 
HETATM   45  H   UNL     1      -9.987   8.148  62.320  1.00  0.00     0.000 HD 
ENDBRANCH   5  43
TORSDOF 6
ENDMDL
MODEL       38
REMARK 921   NORMALIZED FREE ENERGY PREDICTED BY IDOCK:   -6.43 KCAL/MOL
REMARK 922        TOTAL FREE ENERGY PREDICTED BY IDOCK:  -10.33 KCAL/MOL
REMARK 923 INTER-LIGAND FREE ENERGY PREDICTED BY IDOCK:   -8.90 KCAL/MOL
REMARK 924 INTRA-LIGAND FREE ENERGY PREDICTED BY IDOCK:   -1.44 KCAL/MOL
REMARK 927      BINDING AFFINITY PREDICTED BY RF-SCORE:    0.00 PKD
ROOT
HETATM    1  C   UNL     1     -12.111  13.657  68.866  1.00  0.00    -0.300 C  
HETATM    2  O   UNL     1     -13.492  12.796  71.765  1.00  0.00    -0.390 OA 
HETATM    3  O   UNL     1     -12.896  14.737  69.391  1.00  0.00     0.090 OA 
HETATM    4  H   UNL     1     -12.271  10.878  70.667  1.00  0.00     0.000 HD 
HETATM    5  C   UNL     1     -12.611  14.876  70.795  1.00  0.00    -0.354 C  
HETATM    6  H   UNL     1     -13.303  11.918  72.073  1.00  0.00     0.000 HD 
HETATM    7  C   UNL     1     -12.309  13.468  71.290  1.00  0.00    -0.235 C  
HETATM    8  O   UNL     1     -12.465  11.453  69.937  1.00  0.00    -0.221 OA 
HETATM    9  C   UNL     1     -11.797  12.720  70.056  1.00  0.00    -0.281 C  
ENDROOT
BRANCH   1  10
HETATM   10  O   UNL     1     -10.887  14.151  68.317  1.00  0.00    -0.237 OA 
BRANCH  10  11
HETATM   11  C   UNL     1     -10.704  14.081  66.876  1.00  0.00    -0.285 C  
HETATM   12  O   UNL     1     -10.631  16.495  66.634  1.00  0.00    -0.291 OA 
HETATM   13  H2  UNL     1     -11.551  11.583  63.040  1.00  0.00     0.000 HD 
HETATM   14  H   UNL     1     -10.989  17.255  66.190  1.00  0.00     0.000 HD 
HETATM   15  C   UNL     1     -11.283  15.310  66.158  1.00  0.00    -0.225 C  
HETATM   16  H1  UNL     1     -11.184  10.743  64.465  1.00  0.00     0.000 HD 
HETATM   17  C   UNL     1     -11.696  14.014  64.055  1.00  0.00    -0.276 C  
HETATM   18  N   UNL     1     -11.669  16.482  64.033  1.00  0.00    -1.442 NA 
HETATM   19  N   UNL     1     -11.620  11.571  64.057  1.00  0.00    -0.275 NA 
HETATM   20  H1  UNL     1     -11.532  16.460  63.023  1.00  0.00     0.000 HD 
HETATM   21  H2  UNL     1     -11.307  17.340  64.451  1.00  0.00     0.000 HD 
HETATM   22  C   UNL     1     -11.041  12.771  64.669  1.00  0.00    -0.318 C  
HETATM   23  C   UNL     1     -11.078  15.277  64.639  1.00  0.00    -0.332 C  
HETATM   24  C   UNL     1     -11.168  12.740  66.231  1.00  0.00    -0.300 C  
BRANCH  24  25
HETATM   25  O   UNL     1     -10.558  11.578  66.856  1.00  0.00    -0.225 OA 
BRANCH  25  26
HETATM   26  C   UNL     1      -9.239  11.231  66.415  1.00  0.00    -0.192 C  
HETATM   27  O   UNL     1      -8.270  12.161  66.904  1.00  0.00    -0.177 OA 
HETATM   28  C   UNL     1      -8.146  12.136  68.334  1.00  0.00    -0.149 C  
HETATM   29  C   UNL     1      -7.596  10.776  68.784  1.00  0.00    -0.113 C  
HETATM   30  H2  UNL     1      -9.975   8.787  65.401  1.00  0.00     0.000 HD 
HETATM   31  C   UNL     1      -8.556   9.678  68.323  1.00  0.00    -0.119 C  
HETATM   32  O   UNL     1      -7.480  10.648  70.209  1.00  0.00    -0.447 OA 
HETATM   33  H1  UNL     1      -9.533   7.782  66.664  1.00  0.00     0.000 HD 
HETATM   34  H   UNL     1      -7.139   9.806  70.488  1.00  0.00     0.000 HD 
HETATM   35  H   UNL     1      -8.584   7.711  68.345  1.00  0.00     0.000 HD 
HETATM   36  N   UNL     1      -9.799   8.732  66.403  1.00  0.00    -0.270 NA 
HETATM   37  O   UNL     1      -7.987   8.393  68.632  1.00  0.00    -0.116 OA 
HETATM   38  C   UNL     1      -8.834   9.778  66.814  1.00  0.00    -0.138 C  
BRANCH  28  39
HETATM   39  C   UNL     1      -7.266  13.330  68.743  1.00  0.00    -0.088 C  
HETATM   40  H2  UNL     1      -8.620  14.182  70.044  1.00  0.00     0.000 HD 
HETATM   41  N   UNL     1      -8.025  14.472  69.269  1.00  0.00    -0.338 NA 
HETATM   42  H1  UNL     1      -7.441  15.264  69.540  1.00  0.00     0.000 HD 
ENDBRANCH  28  39
ENDBRANCH  25  26
ENDBRANCH  24  25
ENDBRANCH  10  11
ENDBRANCH   1  10
BRANCH   5  43
HETATM   43  C   UNL     1     -11.450  15.843  71.058  1.00  0.00    -0.418 C  
HETATM   44  O   UNL     1     -11.570  16.387  72.378  1.00  0.00    -0.435 OA 
HETATM   45  H   UNL     1     -10.851  16.986  72.541  1.00  0.00     0.000 HD 
ENDBRANCH   5  43
TORSDOF 6
ENDMDL
MODEL       39
REMARK 921   NORMALIZED FREE ENERGY PREDICTED BY IDOCK:   -6.43 KCAL/MOL
REMARK 922        TOTAL FREE ENERGY PREDICTED BY IDOCK:  -10.33 KCAL/MOL
REMARK 923 INTER-LIGAND FREE ENERGY PREDICTED BY IDOCK:   -8.93 KCAL/MOL
REMARK 924 INTRA-LIGAND FREE ENERGY PREDICTED BY IDOCK:   -1.40 KCAL/MOL
REMARK 927      BINDING AFFINITY PREDICTED BY RF-SCORE:    0.00 PKD
ROOT
HETATM    1  C   UNL     1     -10.700   9.782  71.059  1.00  0.00    -0.272 C  
HETATM    2  O   UNL     1     -13.305   9.084  73.003  1.00  0.00    -0.847 OA 
HETATM    3  O   UNL     1     -10.369   8.743  71.991  1.00  0.00    -0.324 OA 
HETATM    4  H   UNL     1     -13.735  11.050  71.479  1.00  0.00     0.000 HD 
HETATM    5  C   UNL     1     -11.452   7.795  72.030  1.00  0.00    -0.289 C  
HETATM    6  H   UNL     1     -14.092   9.590  72.845  1.00  0.00     0.000 HD 
HETATM    7  C   UNL     1     -12.713   8.608  71.778  1.00  0.00    -0.359 C  
HETATM    8  O   UNL     1     -12.787  11.026  71.534  1.00  0.00    -0.421 OA 
HETATM    9  C   UNL     1     -12.244   9.821  70.970  1.00  0.00    -0.347 C  
ENDROOT
BRANCH   1  10
HETATM   10  O   UNL     1     -10.160   9.485  69.769  1.00  0.00    -0.189 OA 
BRANCH  10  11
HETATM   11  C   UNL     1      -8.768   9.821  69.515  1.00  0.00    -0.185 C  
HETATM   12  O   UNL     1      -7.940   7.915  70.769  1.00  0.00    -0.095 OA 
HETATM   13  H2  UNL     1      -5.770  13.284  68.681  1.00  0.00     0.000 HD 
HETATM   14  H   UNL     1      -7.367   7.617  71.466  1.00  0.00     0.000 HD 
HETATM   15  C   UNL     1      -7.841   9.340  70.642  1.00  0.00    -0.158 C  
HETATM   16  H1  UNL     1      -7.308  13.382  67.976  1.00  0.00     0.000 HD 
HETATM   17  C   UNL     1      -6.173  11.151  70.182  1.00  0.00    -0.147 C  
HETATM   18  N   UNL     1      -5.550   9.169  71.514  1.00  0.00    -0.053 NA 
HETATM   19  N   UNL     1      -6.761  13.064  68.776  1.00  0.00    -0.095 NA 
HETATM   20  H1  UNL     1      -4.567   9.379  71.343  1.00  0.00     0.000 HD 
HETATM   21  H2  UNL     1      -5.705   8.178  71.701  1.00  0.00     0.000 HD 
HETATM   22  C   UNL     1      -6.996  11.630  68.979  1.00  0.00    -0.111 C  
HETATM   23  C   UNL     1      -6.362   9.655  70.386  1.00  0.00    -0.081 C  
HETATM   24  C   UNL     1      -8.523  11.313  69.136  1.00  0.00     0.100 C  
BRANCH  24  25
HETATM   25  O   UNL     1      -9.341  11.748  68.017  1.00  0.00    -0.171 OA 
BRANCH  25  26
HETATM   26  C   UNL     1     -10.314  12.764  68.290  1.00  0.00    -0.243 C  
HETATM   27  O   UNL     1      -9.806  14.063  67.978  1.00  0.00    -0.216 OA 
HETATM   28  C   UNL     1      -9.546  14.238  66.578  1.00  0.00    -0.297 C  
HETATM   29  C   UNL     1     -10.864  14.171  65.793  1.00  0.00    -0.297 C  
HETATM   30  H2  UNL     1     -12.366  10.995  68.746  1.00  0.00     0.000 HD 
HETATM   31  C   UNL     1     -11.515  12.810  66.038  1.00  0.00    -0.350 C  
HETATM   32  O   UNL     1     -10.691  14.295  64.373  1.00  0.00    -0.605 OA 
HETATM   33  H1  UNL     1     -13.136  11.026  67.261  1.00  0.00     0.000 HD 
HETATM   34  H   UNL     1     -11.506  14.253  63.888  1.00  0.00     0.000 HD 
HETATM   35  H   UNL     1     -13.213  11.938  65.559  1.00  0.00     0.000 HD 
HETATM   36  N   UNL     1     -12.255  11.182  67.750  1.00  0.00    -0.165 NA 
HETATM   37  O   UNL     1     -12.808  12.784  65.406  1.00  0.00    -0.586 OA 
HETATM   38  C   UNL     1     -11.662  12.524  67.541  1.00  0.00    -0.374 C  
BRANCH  28  39
HETATM   39  C   UNL     1      -8.789  15.566  66.411  1.00  0.00    -0.324 C  
HETATM   40  H2  UNL     1     -10.458  16.764  66.227  1.00  0.00     0.000 HD 
HETATM   41  N   UNL     1      -9.572  16.615  65.744  1.00  0.00    -0.528 NA 
HETATM   42  H1  UNL     1      -9.070  17.496  65.633  1.00  0.00     0.000 HD 
ENDBRANCH  28  39
ENDBRANCH  25  26
ENDBRANCH  24  25
ENDBRANCH  10  11
ENDBRANCH   1  10
BRANCH   5  43
HETATM   43  C   UNL     1     -11.273   6.669  71.004  1.00  0.00    -0.300 C  
HETATM   44  O   UNL     1     -12.301   6.760  70.011  1.00  0.00    -0.605 OA 
HETATM   45  H   UNL     1     -12.190   6.063  69.375  1.00  0.00     0.000 HD 
ENDBRANCH   5  43
TORSDOF 6
ENDMDL
MODEL       40
REMARK 921   NORMALIZED FREE ENERGY PREDICTED BY IDOCK:   -6.43 KCAL/MOL
REMARK 922        TOTAL FREE ENERGY PREDICTED BY IDOCK:  -10.33 KCAL/MOL
REMARK 923 INTER-LIGAND FREE ENERGY PREDICTED BY IDOCK:   -9.19 KCAL/MOL
REMARK 924 INTRA-LIGAND FREE ENERGY PREDICTED BY IDOCK:   -1.14 KCAL/MOL
REMARK 927      BINDING AFFINITY PREDICTED BY RF-SCORE:    0.00 PKD
ROOT
HETATM    1  C   UNL     1     -10.870  14.739  66.771  1.00  0.00    -0.316 C  
HETATM    2  O   UNL     1     -11.909  16.144  63.943  1.00  0.00    -1.359 OA 
HETATM    3  O   UNL     1     -12.285  14.560  66.608  1.00  0.00    -0.379 OA 
HETATM    4  H   UNL     1      -9.471  16.602  64.412  1.00  0.00     0.000 HD 
HETATM    5  C   UNL     1     -12.547  14.163  65.250  1.00  0.00    -0.442 C  
HETATM    6  H   UNL     1     -11.242  16.573  63.419  1.00  0.00     0.000 HD 
HETATM    7  C   UNL     1     -11.479  14.851  64.412  1.00  0.00    -0.247 C  
HETATM    8  O   UNL     1      -9.821  16.407  65.273  1.00  0.00    -0.482 OA 
HETATM    9  C   UNL     1     -10.301  15.056  65.368  1.00  0.00    -0.383 C  
ENDROOT
BRANCH   1  10
HETATM   10  O   UNL     1     -10.269  13.540  67.265  1.00  0.00    -0.239 OA 
BRANCH  10  11
HETATM   11  C   UNL     1      -8.966  13.639  67.903  1.00  0.00    -0.195 C  
HETATM   12  O   UNL     1      -9.624  15.547  69.252  1.00  0.00    -0.231 OA 
HETATM   13  H2  UNL     1      -4.403  12.860  67.402  1.00  0.00     0.000 HD 
HETATM   14  H   UNL     1      -9.419  16.438  69.512  1.00  0.00     0.000 HD 
HETATM   15  C   UNL     1      -8.635  15.080  68.324  1.00  0.00    -0.156 C  
HETATM   16  H1  UNL     1      -5.476  11.723  66.748  1.00  0.00     0.000 HD 
HETATM   17  C   UNL     1      -6.171  14.680  68.127  1.00  0.00    -0.146 C  
HETATM   18  N   UNL     1      -7.039  16.617  69.386  1.00  0.00    -0.214 NA 
HETATM   19  N   UNL     1      -5.313  12.705  66.968  1.00  0.00    -0.341 NA 
HETATM   20  H1  UNL     1      -6.137  16.703  69.853  1.00  0.00     0.000 HD 
HETATM   21  H2  UNL     1      -7.799  17.006  69.944  1.00  0.00     0.000 HD 
HETATM   22  C   UNL     1      -6.417  13.203  67.796  1.00  0.00    -0.153 C  
HETATM   23  C   UNL     1      -7.279  15.209  69.026  1.00  0.00    -0.149 C  
HETATM   24  C   UNL     1      -7.805  12.969  67.108  1.00  0.00    -0.063 C  
BRANCH  24  25
HETATM   25  O   UNL     1      -8.081  11.581  66.778  1.00  0.00    -0.156 OA 
BRANCH  25  26
HETATM   26  C   UNL     1      -7.732  10.605  67.768  1.00  0.00    -0.100 C  
HETATM   27  O   UNL     1      -8.734  10.520  68.785  1.00  0.00    -0.137 OA 
HETATM   28  C   UNL     1      -9.991  10.038  68.289  1.00  0.00    -0.153 C  
HETATM   29  C   UNL     1      -9.840   8.586  67.815  1.00  0.00    -0.175 C  
HETATM   30  H2  UNL     1      -5.608   9.593  66.351  1.00  0.00     0.000 HD 
HETATM   31  C   UNL     1      -8.787   8.536  66.707  1.00  0.00    -0.139 C  
HETATM   32  O   UNL     1     -11.045   8.036  67.262  1.00  0.00    -0.478 OA 
HETATM   33  H1  UNL     1      -6.316   8.247  65.653  1.00  0.00     0.000 HD 
HETATM   34  H   UNL     1     -10.951   7.137  66.968  1.00  0.00     0.000 HD 
HETATM   35  H   UNL     1      -7.895   7.134  65.654  1.00  0.00     0.000 HD 
HETATM   36  N   UNL     1      -6.486   9.170  66.052  1.00  0.00    -0.067 NA 
HETATM   37  O   UNL     1      -8.550   7.165  66.342  1.00  0.00    -0.122 OA 
HETATM   38  C   UNL     1      -7.472   9.193  67.157  1.00  0.00    -0.087 C  
BRANCH  28  39
HETATM   39  C   UNL     1     -11.031  10.222  69.408  1.00  0.00    -0.247 C  
HETATM   40  H2  UNL     1     -12.698  10.003  68.215  1.00  0.00     0.000 HD 
HETATM   41  N   UNL     1     -12.352  10.647  68.926  1.00  0.00    -0.790 NA 
HETATM   42  H1  UNL     1     -13.041  10.769  69.668  1.00  0.00     0.000 HD 
ENDBRANCH  28  39
ENDBRANCH  25  26
ENDBRANCH  24  25
ENDBRANCH  10  11
ENDBRANCH   1  10
BRANCH   5  43
HETATM   43  C   UNL     1     -12.525  12.638  65.077  1.00  0.00    -0.487 C  
HETATM   44  O   UNL     1     -12.255  12.018  66.339  1.00  0.00    -0.551 OA 
HETATM   45  H   UNL     1     -12.242  11.075  66.232  1.00  0.00     0.000 HD 
ENDBRANCH   5  43
TORSDOF 6
ENDMDL
MODEL       41
REMARK 921   NORMALIZED FREE ENERGY PREDICTED BY IDOCK:   -6.42 KCAL/MOL
REMARK 922        TOTAL FREE ENERGY PREDICTED BY IDOCK:  -10.31 KCAL/MOL
REMARK 923 INTER-LIGAND FREE ENERGY PREDICTED BY IDOCK:   -8.12 KCAL/MOL
REMARK 924 INTRA-LIGAND FREE ENERGY PREDICTED BY IDOCK:   -2.20 KCAL/MOL
REMARK 927      BINDING AFFINITY PREDICTED BY RF-SCORE:    0.00 PKD
ROOT
HETATM    1  C   UNL     1     -10.834   7.123  69.257  1.00  0.00    -0.183 C  
HETATM    2  O   UNL     1     -10.275   4.663  67.091  1.00  0.00    -0.177 OA 
HETATM    3  O   UNL     1     -11.189   5.856  69.830  1.00  0.00    -0.389 OA 
HETATM    4  H   UNL     1      -9.882   6.946  66.086  1.00  0.00     0.000 HD 
HETATM    5  C   UNL     1     -10.148   4.907  69.534  1.00  0.00    -0.216 C  
HETATM    6  H   UNL     1      -9.929   4.922  66.245  1.00  0.00     0.000 HD 
HETATM    7  C   UNL     1      -9.594   5.321  68.178  1.00  0.00    -0.129 C  
HETATM    8  O   UNL     1     -10.470   7.129  66.809  1.00  0.00    -0.271 OA 
HETATM    9  C   UNL     1      -9.876   6.823  68.080  1.00  0.00    -0.137 C  
ENDROOT
BRANCH   1  10
HETATM   10  O   UNL     1     -10.158   7.934  70.221  1.00  0.00    -0.192 OA 
BRANCH  10  11
HETATM   11  C   UNL     1     -10.920   8.973  70.896  1.00  0.00    -0.268 C  
HETATM   12  O   UNL     1     -11.710   7.458  72.621  1.00  0.00    -0.470 OA 
HETATM   13  H2  UNL     1     -13.247  12.968  70.344  1.00  0.00     0.000 HD 
HETATM   14  H   UNL     1     -12.466   7.109  73.079  1.00  0.00     0.000 HD 
HETATM   15  C   UNL     1     -12.142   8.407  71.637  1.00  0.00    -0.313 C  
HETATM   16  H1  UNL     1     -11.840  12.739  69.428  1.00  0.00     0.000 HD 
HETATM   17  C   UNL     1     -13.402  10.561  71.415  1.00  0.00    -0.339 C  
HETATM   18  N   UNL     1     -14.100   8.852  73.053  1.00  0.00    -1.139 NA 
HETATM   19  N   UNL     1     -12.648  12.295  69.865  1.00  0.00     0.122 NA 
HETATM   20  H1  UNL     1     -14.635   9.564  73.549  1.00  0.00     0.000 HD 
HETATM   21  H2  UNL     1     -13.820   8.086  73.666  1.00  0.00     0.000 HD 
HETATM   22  C   UNL     1     -12.187  11.226  70.757  1.00  0.00    -0.380 C  
HETATM   23  C   UNL     1     -12.947   9.477  72.383  1.00  0.00    -0.317 C  
HETATM   24  C   UNL     1     -11.280  10.196  70.000  1.00  0.00    -0.299 C  
BRANCH  24  25
HETATM   25  O   UNL     1     -10.114  10.784  69.362  1.00  0.00    -0.212 OA 
BRANCH  25  26
HETATM   26  C   UNL     1      -9.925  10.489  67.972  1.00  0.00    -0.155 C  
HETATM   27  O   UNL     1     -10.748  11.322  67.152  1.00  0.00    -0.225 OA 
HETATM   28  C   UNL     1     -10.393  12.710  67.235  1.00  0.00    -0.224 C  
HETATM   29  C   UNL     1      -8.985  12.922  66.661  1.00  0.00    -0.136 C  
HETATM   30  H2  UNL     1      -7.763   8.845  68.380  1.00  0.00     0.000 HD 
HETATM   31  C   UNL     1      -7.994  12.079  67.464  1.00  0.00    -0.159 C  
HETATM   32  O   UNL     1      -8.532  14.281  66.744  1.00  0.00    -0.393 OA 
HETATM   33  H1  UNL     1      -6.506   9.902  68.056  1.00  0.00     0.000 HD 
HETATM   34  H   UNL     1      -7.660  14.412  66.389  1.00  0.00     0.000 HD 
HETATM   35  H   UNL     1      -6.076  11.651  67.357  1.00  0.00     0.000 HD 
HETATM   36  N   UNL     1      -7.481   9.824  68.347  1.00  0.00    -0.082 NA 
HETATM   37  O   UNL     1      -6.692  12.175  66.858  1.00  0.00    -0.110 OA 
HETATM   38  C   UNL     1      -8.434  10.608  67.528  1.00  0.00    -0.121 C  
BRANCH  28  39
HETATM   39  C   UNL     1     -11.488  13.511  66.509  1.00  0.00    -0.339 C  
HETATM   40  H2  UNL     1     -11.866  14.833  68.047  1.00  0.00     0.000 HD 
HETATM   41  N   UNL     1     -12.393  14.231  67.415  1.00  0.00    -0.591 NA 
HETATM   42  H1  UNL     1     -13.119  14.762  66.934  1.00  0.00     0.000 HD 
ENDBRANCH  28  39
ENDBRANCH  25  26
ENDBRANCH  24  25
ENDBRANCH  10  11
ENDBRANCH   1  10
BRANCH   5  43
HETATM   43  C   UNL     1      -9.062   4.879  70.618  1.00  0.00    -0.128 C  
HETATM   44  O   UNL     1      -9.582   5.441  71.828  1.00  0.00    -0.145 OA 
HETATM   45  H   UNL     1      -8.910   5.424  72.499  1.00  0.00     0.000 HD 
ENDBRANCH   5  43
TORSDOF 6
ENDMDL
MODEL       42
REMARK 921   NORMALIZED FREE ENERGY PREDICTED BY IDOCK:   -6.39 KCAL/MOL
REMARK 922        TOTAL FREE ENERGY PREDICTED BY IDOCK:  -10.27 KCAL/MOL
REMARK 923 INTER-LIGAND FREE ENERGY PREDICTED BY IDOCK:   -8.53 KCAL/MOL
REMARK 924 INTRA-LIGAND FREE ENERGY PREDICTED BY IDOCK:   -1.74 KCAL/MOL
REMARK 927      BINDING AFFINITY PREDICTED BY RF-SCORE:    0.00 PKD
ROOT
HETATM    1  C   UNL     1     -10.545  12.555  66.147  1.00  0.00    -0.253 C  
HETATM    2  O   UNL     1     -12.837  14.532  64.772  1.00  0.00    -0.603 OA 
HETATM    3  O   UNL     1     -10.033  13.886  65.988  1.00  0.00    -0.298 OA 
HETATM    4  H   UNL     1     -13.581  12.122  64.888  1.00  0.00     0.000 HD 
HETATM    5  C   UNL     1     -11.037  14.823  66.421  1.00  0.00    -0.340 C  
HETATM    6  H   UNL     1     -13.670  14.125  64.565  1.00  0.00     0.000 HD 
HETATM    7  C   UNL     1     -12.371  14.170  66.088  1.00  0.00    -0.436 C  
HETATM    8  O   UNL     1     -12.634  12.055  64.918  1.00  0.00    -0.418 OA 
HETATM    9  C   UNL     1     -12.087  12.666  66.098  1.00  0.00    -0.333 C  
ENDROOT
BRANCH   1  10
HETATM   10  O   UNL     1     -10.150  12.018  67.412  1.00  0.00    -0.193 OA 
BRANCH  10  11
HETATM   11  C   UNL     1      -9.001  11.126  67.449  1.00  0.00    -0.139 C  
HETATM   12  O   UNL     1      -7.446  12.889  66.845  1.00  0.00    -0.383 OA 
HETATM   13  H2  UNL     1      -7.561   6.734  66.890  1.00  0.00     0.000 HD 
HETATM   14  H   UNL     1      -6.758  13.165  66.251  1.00  0.00     0.000 HD 
HETATM   15  C   UNL     1      -7.889  11.573  66.487  1.00  0.00    -0.071 C  
HETATM   16  H1  UNL     1      -9.069   6.985  67.621  1.00  0.00     0.000 HD 
HETATM   17  C   UNL     1      -7.046   9.231  66.210  1.00  0.00    -0.087 C  
HETATM   18  N   UNL     1      -5.646  11.161  65.573  1.00  0.00    -0.450 NA 
HETATM   19  N   UNL     1      -8.391   7.324  66.938  1.00  0.00    -0.116 NA 
HETATM   20  H1  UNL     1      -4.824  10.558  65.600  1.00  0.00     0.000 HD 
HETATM   21  H2  UNL     1      -5.410  12.140  65.735  1.00  0.00     0.000 HD 
HETATM   22  C   UNL     1      -8.065   8.722  67.238  1.00  0.00    -0.101 C  
HETATM   23  C   UNL     1      -6.653  10.667  66.527  1.00  0.00    -0.108 C  
HETATM   24  C   UNL     1      -9.352   9.615  67.294  1.00  0.00    -0.138 C  
BRANCH  24  25
HETATM   25  O   UNL     1     -10.345   9.170  68.257  1.00  0.00    -0.199 OA 
BRANCH  25  26
HETATM   26  C   UNL     1      -9.968   9.225  69.639  1.00  0.00    -0.191 C  
HETATM   27  O   UNL     1     -10.577  10.340  70.295  1.00  0.00    -0.282 OA 
HETATM   28  C   UNL     1     -12.007  10.237  70.357  1.00  0.00    -0.303 C  
HETATM   29  C   UNL     1     -12.404   9.044  71.237  1.00  0.00    -0.302 C  
HETATM   30  H2  UNL     1      -8.755   6.761  69.643  1.00  0.00     0.000 HD 
HETATM   31  C   UNL     1     -11.813   7.768  70.635  1.00  0.00    -0.124 C  
HETATM   32  O   UNL     1     -13.823   8.840  71.319  1.00  0.00    -0.546 OA 
HETATM   33  H1  UNL     1      -9.978   5.815  70.286  1.00  0.00     0.000 HD 
HETATM   34  H   UNL     1     -14.069   8.102  71.864  1.00  0.00     0.000 HD 
HETATM   35  H   UNL     1     -11.709   5.870  71.143  1.00  0.00     0.000 HD 
HETATM   36  N   UNL     1      -9.762   6.676  69.784  1.00  0.00    -0.159 NA 
HETATM   37  O   UNL     1     -12.077   6.663  71.517  1.00  0.00    -0.336 OA 
HETATM   38  C   UNL     1     -10.300   7.908  70.407  1.00  0.00    -0.212 C  
BRANCH  28  39
HETATM   39  C   UNL     1     -12.546  11.587  70.859  1.00  0.00    -0.341 C  
HETATM   40  H2  UNL     1     -12.744  11.038  72.837  1.00  0.00     0.000 HD 
HETATM   41  N   UNL     1     -13.302  11.493  72.115  1.00  0.00    -0.562 NA 
HETATM   42  H1  UNL     1     -13.659  12.389  72.448  1.00  0.00     0.000 HD 
ENDBRANCH  28  39
ENDBRANCH  25  26
ENDBRANCH  24  25
ENDBRANCH  10  11
ENDBRANCH   1  10
BRANCH   5  43
HETATM   43  C   UNL     1     -10.913  15.157  67.913  1.00  0.00    -0.302 C  
HETATM   44  O   UNL     1      -9.662  14.670  68.410  1.00  0.00    -0.205 OA 
HETATM   45  H   UNL     1      -9.585  14.877  69.333  1.00  0.00     0.000 HD 
ENDBRANCH   5  43
TORSDOF 6
ENDMDL
MODEL       43
REMARK 921   NORMALIZED FREE ENERGY PREDICTED BY IDOCK:   -6.38 KCAL/MOL
REMARK 922        TOTAL FREE ENERGY PREDICTED BY IDOCK:  -10.27 KCAL/MOL
REMARK 923 INTER-LIGAND FREE ENERGY PREDICTED BY IDOCK:   -9.55 KCAL/MOL
REMARK 924 INTRA-LIGAND FREE ENERGY PREDICTED BY IDOCK:   -0.72 KCAL/MOL
REMARK 927      BINDING AFFINITY PREDICTED BY RF-SCORE:    0.00 PKD
ROOT
HETATM    1  C   UNL     1     -10.229  13.017  66.154  1.00  0.00    -0.284 C  
HETATM    2  O   UNL     1     -13.221  12.502  64.800  1.00  0.00    -0.839 OA 
HETATM    3  O   UNL     1     -10.241  13.438  64.782  1.00  0.00    -0.360 OA 
HETATM    4  H   UNL     1     -13.052  11.589  67.147  1.00  0.00     0.000 HD 
HETATM    5  C   UNL     1     -11.448  14.184  64.538  1.00  0.00    -0.372 C  
HETATM    6  H   UNL     1     -13.877  12.118  65.369  1.00  0.00     0.000 HD 
HETATM    7  C   UNL     1     -12.499  13.567  65.450  1.00  0.00    -0.497 C  
HETATM    8  O   UNL     1     -12.146  11.621  66.865  1.00  0.00    -0.512 OA 
HETATM    9  C   UNL     1     -11.706  12.966  66.613  1.00  0.00    -0.390 C  
ENDROOT
BRANCH   1  10
HETATM   10  O   UNL     1      -9.517  13.960  66.959  1.00  0.00    -0.236 OA 
BRANCH  10  11
HETATM   11  C   UNL     1      -8.166  13.621  67.378  1.00  0.00    -0.179 C  
HETATM   12  O   UNL     1      -8.018  11.747  65.842  1.00  0.00    -0.343 OA 
HETATM   13  H2  UNL     1      -5.122  13.733  70.898  1.00  0.00     0.000 HD 
HETATM   14  H   UNL     1      -7.834  10.820  65.744  1.00  0.00     0.000 HD 
HETATM   15  C   UNL     1      -7.869  12.122  67.218  1.00  0.00    -0.176 C  
HETATM   16  H1  UNL     1      -6.155  15.062  70.704  1.00  0.00     0.000 HD 
HETATM   17  C   UNL     1      -6.178  12.156  69.066  1.00  0.00    -0.081 C  
HETATM   18  N   UNL     1      -6.247  10.291  67.450  1.00  0.00    -0.057 NA 
HETATM   19  N   UNL     1      -6.044  14.053  70.602  1.00  0.00    -0.178 NA 
HETATM   20  H1  UNL     1      -5.297  10.038  67.721  1.00  0.00     0.000 HD 
HETATM   21  H2  UNL     1      -6.472   9.984  66.504  1.00  0.00     0.000 HD 
HETATM   22  C   UNL     1      -6.347  13.673  69.218  1.00  0.00    -0.108 C  
HETATM   23  C   UNL     1      -6.441  11.740  67.625  1.00  0.00    -0.082 C  
HETATM   24  C   UNL     1      -7.772  14.161  68.786  1.00  0.00    -0.121 C  
BRANCH  24  25
HETATM   25  O   UNL     1      -7.975  15.594  68.913  1.00  0.00    -0.162 OA 
BRANCH  25  26
HETATM   26  C   UNL     1      -7.526  16.405  67.820  1.00  0.00    -0.142 C  
HETATM   27  O   UNL     1      -8.629  16.981  67.116  1.00  0.00    -0.193 OA 
HETATM   28  C   UNL     1      -9.377  17.908  67.916  1.00  0.00    -0.271 C  
HETATM   29  C   UNL     1      -8.501  19.120  68.261  1.00  0.00    -0.332 C  
HETATM   30  H2  UNL     1      -4.878  16.317  68.546  1.00  0.00     0.000 HD 
HETATM   31  C   UNL     1      -7.272  18.637  69.031  1.00  0.00    -0.256 C  
HETATM   32  O   UNL     1      -9.160  20.083  69.099  1.00  0.00    -0.022 OA 
HETATM   33  H1  UNL     1      -4.729  17.778  69.348  1.00  0.00     0.000 HD 
HETATM   34  H   UNL     1      -8.617  20.833  69.312  1.00  0.00     0.000 HD 
HETATM   35  H   UNL     1      -5.621  19.449  69.731  1.00  0.00     0.000 HD 
HETATM   36  N   UNL     1      -5.376  17.046  69.056  1.00  0.00    -0.137 NA 
HETATM   37  O   UNL     1      -6.385  19.749  69.252  1.00  0.00    -0.291 OA 
HETATM   38  C   UNL     1      -6.536  17.525  68.268  1.00  0.00    -0.182 C  
BRANCH  28  39
HETATM   39  C   UNL     1     -10.655  18.265  67.137  1.00  0.00    -0.367 C  
HETATM   40  H2  UNL     1      -9.815  19.752  65.982  1.00  0.00     0.000 HD 
HETATM   41  N   UNL     1     -10.641  19.617  66.564  1.00  0.00    -0.477 NA 
HETATM   42  H1  UNL     1     -11.488  19.853  66.047  1.00  0.00     0.000 HD 
ENDBRANCH  28  39
ENDBRANCH  25  26
ENDBRANCH  24  25
ENDBRANCH  10  11
ENDBRANCH   1  10
BRANCH   5  43
HETATM   43  C   UNL     1     -11.265  15.685  64.799  1.00  0.00    -0.382 C  
HETATM   44  O   UNL     1     -11.755  16.428  63.678  1.00  0.00    -1.520 OA 
HETATM   45  H   UNL     1     -11.641  17.357  63.839  1.00  0.00     0.000 HD 
ENDBRANCH   5  43
TORSDOF 6
ENDMDL
MODEL       44
REMARK 921   NORMALIZED FREE ENERGY PREDICTED BY IDOCK:   -6.36 KCAL/MOL
REMARK 922        TOTAL FREE ENERGY PREDICTED BY IDOCK:  -10.24 KCAL/MOL
REMARK 923 INTER-LIGAND FREE ENERGY PREDICTED BY IDOCK:   -9.83 KCAL/MOL
REMARK 924 INTRA-LIGAND FREE ENERGY PREDICTED BY IDOCK:   -0.40 KCAL/MOL
REMARK 927      BINDING AFFINITY PREDICTED BY RF-SCORE:    0.00 PKD
ROOT
HETATM    1  C   UNL     1     -11.463   9.800  70.921  1.00  0.00    -0.369 C  
HETATM    2  O   UNL     1     -13.970   9.258  73.035  1.00  0.00    -0.978 OA 
HETATM    3  O   UNL     1     -11.181   8.670  71.759  1.00  0.00    -0.280 OA 
HETATM    4  H   UNL     1     -14.291  11.358  71.672  1.00  0.00     0.000 HD 
HETATM    5  C   UNL     1     -12.358   7.844  71.834  1.00  0.00    -0.315 C  
HETATM    6  H   UNL     1     -14.705   9.857  72.975  1.00  0.00     0.000 HD 
HETATM    7  C   UNL     1     -13.535   8.805  71.738  1.00  0.00    -0.393 C  
HETATM    8  O   UNL     1     -13.351  11.228  71.644  1.00  0.00    -0.356 OA 
HETATM    9  C   UNL     1     -12.995  10.012  70.966  1.00  0.00    -0.360 C  
ENDROOT
BRANCH   1  10
HETATM   10  O   UNL     1     -11.063   9.534  69.574  1.00  0.00    -0.223 OA 
BRANCH  10  11
HETATM   11  C   UNL     1      -9.704   9.875  69.183  1.00  0.00    -0.198 C  
HETATM   12  O   UNL     1      -8.722   8.202  70.641  1.00  0.00    -0.129 OA 
HETATM   13  H2  UNL     1      -6.912  13.276  67.664  1.00  0.00     0.000 HD 
HETATM   14  H   UNL     1      -8.096   8.028  71.334  1.00  0.00     0.000 HD 
HETATM   15  C   UNL     1      -8.691   9.595  70.304  1.00  0.00    -0.208 C  
HETATM   16  H1  UNL     1      -8.492  13.220  67.055  1.00  0.00     0.000 HD 
HETATM   17  C   UNL     1      -7.133  11.374  69.479  1.00  0.00    -0.020 C  
HETATM   18  N   UNL     1      -6.346   9.630  71.038  1.00  0.00    -0.178 NA 
HETATM   19  N   UNL     1      -7.885  13.040  67.855  1.00  0.00    -0.134 NA 
HETATM   20  H1  UNL     1      -5.385   9.845  70.774  1.00  0.00     0.000 HD 
HETATM   21  H2  UNL     1      -6.447   8.673  71.376  1.00  0.00     0.000 HD 
HETATM   22  C   UNL     1      -8.046  11.644  68.277  1.00  0.00    -0.150 C  
HETATM   23  C   UNL     1      -7.245   9.918  69.908  1.00  0.00    -0.129 C  
HETATM   24  C   UNL     1      -9.546  11.303  68.579  1.00  0.00    -0.198 C  
BRANCH  24  25
HETATM   25  O   UNL     1     -10.448  11.542  67.465  1.00  0.00    -0.189 OA 
BRANCH  25  26
HETATM   26  C   UNL     1     -10.171  12.689  66.650  1.00  0.00    -0.236 C  
HETATM   27  O   UNL     1      -9.754  12.301  65.338  1.00  0.00    -0.224 OA 
HETATM   28  C   UNL     1     -10.786  11.627  64.603  1.00  0.00    -0.315 C  
HETATM   29  C   UNL     1     -11.949  12.592  64.337  1.00  0.00    -0.404 C  
HETATM   30  H2  UNL     1     -11.198  14.497  68.445  1.00  0.00     0.000 HD 
HETATM   31  C   UNL     1     -12.498  13.083  65.677  1.00  0.00    -0.390 C  
HETATM   32  O   UNL     1     -13.048  11.986  63.640  1.00  0.00    -0.756 OA 
HETATM   33  H1  UNL     1     -12.724  14.737  67.803  1.00  0.00     0.000 HD 
HETATM   34  H   UNL     1     -13.768  12.583  63.476  1.00  0.00     0.000 HD 
HETATM   35  H   UNL     1     -13.848  14.386  66.270  1.00  0.00     0.000 HD 
HETATM   36  N   UNL     1     -11.933  14.096  67.864  1.00  0.00    -0.363 NA 
HETATM   37  O   UNL     1     -13.507  14.081  65.437  1.00  0.00    -0.679 OA 
HETATM   38  C   UNL     1     -11.382  13.669  66.557  1.00  0.00    -0.319 C  
BRANCH  28  39
HETATM   39  C   UNL     1     -10.145  11.058  63.325  1.00  0.00    -0.348 C  
HETATM   40  H2  UNL     1     -10.129   9.087  63.932  1.00  0.00     0.000 HD 
HETATM   41  N   UNL     1      -9.483   9.761  63.522  1.00  0.00    -0.481 NA 
HETATM   42  H1  UNL     1      -9.058   9.384  62.674  1.00  0.00     0.000 HD 
ENDBRANCH  28  39
ENDBRANCH  25  26
ENDBRANCH  24  25
ENDBRANCH  10  11
ENDBRANCH   1  10
BRANCH   5  43
HETATM   43  C   UNL     1     -12.389   6.778  70.732  1.00  0.00    -0.232 C  
HETATM   44  O   UNL     1     -11.064   6.570  70.230  1.00  0.00    -0.277 OA 
HETATM   45  H   UNL     1     -11.084   5.910  69.547  1.00  0.00     0.000 HD 
ENDBRANCH   5  43
TORSDOF 6
ENDMDL
MODEL       45
REMARK 921   NORMALIZED FREE ENERGY PREDICTED BY IDOCK:   -6.35 KCAL/MOL
REMARK 922        TOTAL FREE ENERGY PREDICTED BY IDOCK:  -10.22 KCAL/MOL
REMARK 923 INTER-LIGAND FREE ENERGY PREDICTED BY IDOCK:   -8.67 KCAL/MOL
REMARK 924 INTRA-LIGAND FREE ENERGY PREDICTED BY IDOCK:   -1.55 KCAL/MOL
REMARK 927      BINDING AFFINITY PREDICTED BY RF-SCORE:    0.00 PKD
ROOT
HETATM    1  C   UNL     1     -11.274  10.297  70.596  1.00  0.00    -0.325 C  
HETATM    2  O   UNL     1     -13.339  12.117  72.460  1.00  0.00    -0.572 OA 
HETATM    3  O   UNL     1     -11.535   9.642  71.846  1.00  0.00    -0.300 OA 
HETATM    4  H   UNL     1     -12.656  13.299  70.336  1.00  0.00     0.000 HD 
HETATM    5  C   UNL     1     -12.947   9.714  72.119  1.00  0.00    -0.406 C  
HETATM    6  H   UNL     1     -13.629  12.938  72.082  1.00  0.00     0.000 HD 
HETATM    7  C   UNL     1     -13.411  11.032  71.514  1.00  0.00    -0.163 C  
HETATM    8  O   UNL     1     -11.954  12.673  70.467  1.00  0.00    -0.325 OA 
HETATM    9  C   UNL     1     -12.418  11.316  70.384  1.00  0.00    -0.271 C  
ENDROOT
BRANCH   1  10
HETATM   10  O   UNL     1     -11.280   9.349  69.526  1.00  0.00    -0.164 OA 
BRANCH  10  11
HETATM   11  C   UNL     1     -10.006   8.802  69.088  1.00  0.00    -0.191 C  
HETATM   12  O   UNL     1     -10.405   6.661  70.160  1.00  0.00    -0.194 OA 
HETATM   13  H2  UNL     1      -5.611   9.817  67.937  1.00  0.00     0.000 HD 
HETATM   14  H   UNL     1     -10.072   6.004  70.761  1.00  0.00     0.000 HD 
HETATM   15  C   UNL     1      -9.466   7.740  70.059  1.00  0.00    -0.161 C  
HETATM   16  H1  UNL     1      -6.823  10.899  67.458  1.00  0.00     0.000 HD 
HETATM   17  C   UNL     1      -7.092   8.214  69.420  1.00  0.00    -0.055 C  
HETATM   18  N   UNL     1      -7.691   6.128  70.595  1.00  0.00    -0.102 NA 
HETATM   19  N   UNL     1      -6.514  10.231  68.165  1.00  0.00    -0.056 NA 
HETATM   20  H1  UNL     1      -6.807   5.719  70.294  1.00  0.00     0.000 HD 
HETATM   21  H2  UNL     1      -8.401   5.419  70.775  1.00  0.00     0.000 HD 
HETATM   22  C   UNL     1      -7.557   9.219  68.359  1.00  0.00    -0.086 C  
HETATM   23  C   UNL     1      -8.137   7.124  69.606  1.00  0.00    -0.129 C  
HETATM   24  C   UNL     1      -8.935   9.873  68.720  1.00  0.00    -0.140 C  
BRANCH  24  25
HETATM   25  O   UNL     1      -9.416  10.831  67.740  1.00  0.00    -0.153 OA 
BRANCH  25  26
HETATM   26  C   UNL     1     -10.540  10.428  66.946  1.00  0.00    -0.230 C  
HETATM   27  O   UNL     1     -11.526  11.461  66.886  1.00  0.00    -0.445 OA 
HETATM   28  C   UNL     1     -11.061  12.637  66.208  1.00  0.00    -0.293 C  
HETATM   29  C   UNL     1     -10.793  12.313  64.732  1.00  0.00    -0.304 C  
HETATM   30  H2  UNL     1      -9.340   8.147  65.997  1.00  0.00     0.000 HD 
HETATM   31  C   UNL     1      -9.736  11.211  64.653  1.00  0.00    -0.262 C  
HETATM   32  O   UNL     1     -10.281  13.427  63.985  1.00  0.00    -0.718 OA 
HETATM   33  H1  UNL     1      -8.808   8.677  64.501  1.00  0.00     0.000 HD 
HETATM   34  H   UNL     1     -10.116  13.227  63.072  1.00  0.00     0.000 HD 
HETATM   35  H   UNL     1      -8.910  10.130  63.231  1.00  0.00     0.000 HD 
HETATM   36  N   UNL     1      -9.073   8.961  65.444  1.00  0.00    -0.194 NA 
HETATM   37  O   UNL     1      -9.567  10.815  63.280  1.00  0.00    -0.285 OA 
HETATM   38  C   UNL     1     -10.134   9.994  65.503  1.00  0.00    -0.255 C  
BRANCH  28  39
HETATM   39  C   UNL     1     -12.112  13.740  66.422  1.00  0.00    -0.444 C  
HETATM   40  H2  UNL     1     -13.464  13.047  65.028  1.00  0.00     0.000 HD 
HETATM   41  N   UNL     1     -13.015  13.928  65.279  1.00  0.00    -0.774 NA 
HETATM   42  H1  UNL     1     -13.712  14.659  65.422  1.00  0.00     0.000 HD 
ENDBRANCH  28  39
ENDBRANCH  25  26
ENDBRANCH  24  25
ENDBRANCH  10  11
ENDBRANCH   1  10
BRANCH   5  43
HETATM   43  C   UNL     1     -13.711   8.513  71.547  1.00  0.00    -0.318 C  
HETATM   44  O   UNL     1     -12.862   7.360  71.554  1.00  0.00    -0.349 OA 
HETATM   45  H   UNL     1     -13.335   6.616  71.200  1.00  0.00     0.000 HD 
ENDBRANCH   5  43
TORSDOF 6
ENDMDL
MODEL       46
REMARK 921   NORMALIZED FREE ENERGY PREDICTED BY IDOCK:   -6.32 KCAL/MOL
REMARK 922        TOTAL FREE ENERGY PREDICTED BY IDOCK:  -10.18 KCAL/MOL
REMARK 923 INTER-LIGAND FREE ENERGY PREDICTED BY IDOCK:   -8.85 KCAL/MOL
REMARK 924 INTRA-LIGAND FREE ENERGY PREDICTED BY IDOCK:   -1.32 KCAL/MOL
REMARK 927      BINDING AFFINITY PREDICTED BY RF-SCORE:    0.00 PKD
ROOT
HETATM    1  C   UNL     1     -11.017  15.044  67.655  1.00  0.00    -0.305 C  
HETATM    2  O   UNL     1     -12.107  16.153  70.593  1.00  0.00    -0.474 OA 
HETATM    3  O   UNL     1     -11.204  16.466  67.619  1.00  0.00    -0.218 OA 
HETATM    4  H   UNL     1     -11.959  13.635  70.504  1.00  0.00     0.000 HD 
HETATM    5  C   UNL     1     -10.651  17.036  68.820  1.00  0.00    -0.346 C  
HETATM    6  H   UNL     1     -12.233  15.496  71.267  1.00  0.00     0.000 HD 
HETATM    7  C   UNL     1     -10.855  15.983  69.900  1.00  0.00    -0.351 C  
HETATM    8  O   UNL     1     -12.029  13.876  69.589  1.00  0.00    -0.302 OA 
HETATM    9  C   UNL     1     -10.902  14.651  69.146  1.00  0.00    -0.259 C  
ENDROOT
BRANCH   1  10
HETATM   10  O   UNL     1      -9.811  14.683  66.977  1.00  0.00    -0.236 OA 
BRANCH  10  11
HETATM   11  C   UNL     1      -9.915  13.844  65.794  1.00  0.00    -0.284 C  
HETATM   12  O   UNL     1     -11.205  15.498  64.572  1.00  0.00    -0.644 OA 
HETATM   13  H2  UNL     1     -10.038   9.464  64.221  1.00  0.00     0.000 HD 
HETATM   14  H   UNL     1     -11.997  15.673  64.077  1.00  0.00     0.000 HD 
HETATM   15  C   UNL     1     -11.196  14.127  64.993  1.00  0.00    -0.356 C  
HETATM   16  H1  UNL     1      -8.997   9.811  65.512  1.00  0.00     0.000 HD 
HETATM   17  C   UNL     1     -11.261  11.797  64.077  1.00  0.00    -0.461 C  
HETATM   18  N   UNL     1     -12.572  13.605  63.025  1.00  0.00    -0.884 NA 
HETATM   19  N   UNL     1      -9.882  10.031  65.054  1.00  0.00    -0.323 NA 
HETATM   20  H1  UNL     1     -12.652  13.039  62.181  1.00  0.00     0.000 HD 
HETATM   21  H2  UNL     1     -12.653  14.603  62.829  1.00  0.00     0.000 HD 
HETATM   22  C   UNL     1      -9.931  11.468  64.766  1.00  0.00    -0.260 C  
HETATM   23  C   UNL     1     -11.317  13.277  63.723  1.00  0.00    -0.251 C  
HETATM   24  C   UNL     1      -9.702  12.323  66.060  1.00  0.00    -0.242 C  
BRANCH  24  25
HETATM   25  O   UNL     1      -8.451  12.045  66.745  1.00  0.00    -0.183 OA 
BRANCH  25  26
HETATM   26  C   UNL     1      -8.440  12.243  68.165  1.00  0.00    -0.176 C  
HETATM   27  O   UNL     1      -9.607  11.686  68.773  1.00  0.00    -0.167 OA 
HETATM   28  C   UNL     1      -9.672  10.258  68.650  1.00  0.00    -0.167 C  
HETATM   29  C   UNL     1      -8.520   9.616  69.434  1.00  0.00    -0.156 C  
HETATM   30  H2  UNL     1      -5.850  13.155  68.246  1.00  0.00     0.000 HD 
HETATM   31  C   UNL     1      -7.194  10.130  68.873  1.00  0.00    -0.079 C  
HETATM   32  O   UNL     1      -8.484   8.185  69.330  1.00  0.00    -0.125 OA 
HETATM   33  H1  UNL     1      -5.045  11.759  68.698  1.00  0.00     0.000 HD 
HETATM   34  H   UNL     1      -7.770   7.788  69.816  1.00  0.00     0.000 HD 
HETATM   35  H   UNL     1      -5.289   9.950  69.331  1.00  0.00     0.000 HD 
HETATM   36  N   UNL     1      -5.882  12.136  68.255  1.00  0.00    -0.050 NA 
HETATM   37  O   UNL     1      -6.113   9.630  69.680  1.00  0.00    -0.042 OA 
HETATM   38  C   UNL     1      -7.158  11.666  68.843  1.00  0.00    -0.115 C  
BRANCH  28  39
HETATM   39  C   UNL     1     -11.068   9.816  69.121  1.00  0.00    -0.123 C  
HETATM   40  H2  UNL     1     -12.136  10.870  67.706  1.00  0.00     0.000 HD 
HETATM   41  N   UNL     1     -12.146  10.728  68.716  1.00  0.00    -0.785 NA 
HETATM   42  H1  UNL     1     -13.072  10.435  69.028  1.00  0.00     0.000 HD 
ENDBRANCH  28  39
ENDBRANCH  25  26
ENDBRANCH  24  25
ENDBRANCH  10  11
ENDBRANCH   1  10
BRANCH   5  43
HETATM   43  C   UNL     1      -9.174  17.417  68.654  1.00  0.00    -0.265 C  
HETATM   44  O   UNL     1      -8.832  17.409  67.264  1.00  0.00    -0.226 OA 
HETATM   45  H   UNL     1      -7.918  17.645  67.161  1.00  0.00     0.000 HD 
ENDBRANCH   5  43
TORSDOF 6
ENDMDL
MODEL       47
REMARK 921   NORMALIZED FREE ENERGY PREDICTED BY IDOCK:   -6.31 KCAL/MOL
REMARK 922        TOTAL FREE ENERGY PREDICTED BY IDOCK:  -10.16 KCAL/MOL
REMARK 923 INTER-LIGAND FREE ENERGY PREDICTED BY IDOCK:   -8.28 KCAL/MOL
REMARK 924 INTRA-LIGAND FREE ENERGY PREDICTED BY IDOCK:   -1.88 KCAL/MOL
REMARK 927      BINDING AFFINITY PREDICTED BY RF-SCORE:    0.00 PKD
ROOT
HETATM    1  C   UNL     1     -11.805  13.380  68.469  1.00  0.00    -0.366 C  
HETATM    2  O   UNL     1     -13.437  13.708  71.346  1.00  0.00    -0.292 OA 
HETATM    3  O   UNL     1     -12.535  14.614  68.496  1.00  0.00    -0.042 OA 
HETATM    4  H   UNL     1     -12.302  11.463  71.128  1.00  0.00     0.000 HD 
HETATM    5  C   UNL     1     -12.332  15.243  69.776  1.00  0.00    -0.253 C  
HETATM    6  H   UNL     1     -13.338  12.996  71.966  1.00  0.00     0.000 HD 
HETATM    7  C   UNL     1     -12.176  14.100  70.769  1.00  0.00    -0.365 C  
HETATM    8  O   UNL     1     -12.401  11.741  70.226  1.00  0.00    -0.294 OA 
HETATM    9  C   UNL     1     -11.644  12.929  69.939  1.00  0.00    -0.176 C  
ENDROOT
BRANCH   1  10
HETATM   10  O   UNL     1     -10.512  13.578  67.891  1.00  0.00    -0.241 OA 
BRANCH  10  11
HETATM   11  C   UNL     1     -10.315  13.192  66.503  1.00  0.00    -0.283 C  
HETATM   12  O   UNL     1     -11.410  15.185  65.655  1.00  0.00    -0.332 OA 
HETATM   13  H2  UNL     1      -9.851   9.608  63.568  1.00  0.00     0.000 HD 
HETATM   14  H   UNL     1     -12.089  15.532  65.087  1.00  0.00     0.000 HD 
HETATM   15  C   UNL     1     -11.412  13.753  65.584  1.00  0.00    -0.310 C  
HETATM   16  H1  UNL     1      -9.129   9.478  65.095  1.00  0.00     0.000 HD 
HETATM   17  C   UNL     1     -11.148  11.874  63.950  1.00  0.00    -0.483 C  
HETATM   18  N   UNL     1     -12.309  13.954  63.306  1.00  0.00    -1.148 NA 
HETATM   19  N   UNL     1      -9.907   9.856  64.555  1.00  0.00    -0.181 NA 
HETATM   20  H1  UNL     1     -12.176  13.710  62.325  1.00  0.00     0.000 HD 
HETATM   21  H2  UNL     1     -12.404  14.961  63.442  1.00  0.00     0.000 HD 
HETATM   22  C   UNL     1      -9.977  11.306  64.762  1.00  0.00    -0.277 C  
HETATM   23  C   UNL     1     -11.213  13.386  64.109  1.00  0.00    -0.350 C  
HETATM   24  C   UNL     1     -10.076  11.667  66.284  1.00  0.00    -0.221 C  
BRANCH  24  25
HETATM   25  O   UNL     1      -8.985  11.150  67.092  1.00  0.00    -0.142 OA 
BRANCH  25  26
HETATM   26  C   UNL     1      -9.332  10.626  68.380  1.00  0.00    -0.163 C  
HETATM   27  O   UNL     1     -10.219   9.511  68.261  1.00  0.00    -0.177 OA 
HETATM   28  C   UNL     1      -9.613   8.384  67.610  1.00  0.00    -0.153 C  
HETATM   29  C   UNL     1      -8.467   7.840  68.474  1.00  0.00    -0.129 C  
HETATM   30  H2  UNL     1      -7.493  12.141  69.746  1.00  0.00     0.000 HD 
HETATM   31  C   UNL     1      -7.432   8.947  68.675  1.00  0.00    -0.088 C  
HETATM   32  O   UNL     1      -7.775   6.734  67.876  1.00  0.00    -0.107 OA 
HETATM   33  H1  UNL     1      -6.250  11.034  69.922  1.00  0.00     0.000 HD 
HETATM   34  H   UNL     1      -7.066   6.397  68.411  1.00  0.00     0.000 HD 
HETATM   35  H   UNL     1      -5.773   9.173  69.710  1.00  0.00     0.000 HD 
HETATM   36  N   UNL     1      -7.067  11.295  69.369  1.00  0.00    -0.114 NA 
HETATM   37  O   UNL     1      -6.416   8.485  69.584  1.00  0.00    -0.039 OA 
HETATM   38  C   UNL     1      -8.083  10.227  69.225  1.00  0.00    -0.155 C  
BRANCH  28  39
HETATM   39  C   UNL     1     -10.725   7.358  67.331  1.00  0.00    -0.278 C  
HETATM   40  H2  UNL     1      -9.517   5.943  66.442  1.00  0.00     0.000 HD 
HETATM   41  N   UNL     1     -10.402   6.413  66.254  1.00  0.00    -0.438 NA 
HETATM   42  H1  UNL     1     -11.139   5.733  66.070  1.00  0.00     0.000 HD 
ENDBRANCH  28  39
ENDBRANCH  25  26
ENDBRANCH  24  25
ENDBRANCH  10  11
ENDBRANCH   1  10
BRANCH   5  43
HETATM   43  C   UNL     1     -11.118  16.181  69.776  1.00  0.00    -0.350 C  
HETATM   44  O   UNL     1     -10.839  16.601  68.436  1.00  0.00    -0.336 OA 
HETATM   45  H   UNL     1     -10.087  17.181  68.435  1.00  0.00     0.000 HD 
ENDBRANCH   5  43
TORSDOF 6
ENDMDL
MODEL       48
REMARK 921   NORMALIZED FREE ENERGY PREDICTED BY IDOCK:   -6.29 KCAL/MOL
REMARK 922        TOTAL FREE ENERGY PREDICTED BY IDOCK:  -10.15 KCAL/MOL
REMARK 923 INTER-LIGAND FREE ENERGY PREDICTED BY IDOCK:   -8.69 KCAL/MOL
REMARK 924 INTRA-LIGAND FREE ENERGY PREDICTED BY IDOCK:   -1.46 KCAL/MOL
REMARK 927      BINDING AFFINITY PREDICTED BY RF-SCORE:    0.00 PKD
ROOT
HETATM    1  C   UNL     1     -10.864  11.315  66.326  1.00  0.00    -0.238 C  
HETATM    2  O   UNL     1     -10.909  11.013  63.015  1.00  0.00    -0.797 OA 
HETATM    3  O   UNL     1     -10.606   9.957  65.939  1.00  0.00    -0.079 OA 
HETATM    4  H   UNL     1     -11.569  13.325  63.785  1.00  0.00     0.000 HD 
HETATM    5  C   UNL     1      -9.663   9.957  64.851  1.00  0.00    -0.262 C  
HETATM    6  H   UNL     1     -11.087  11.807  62.525  1.00  0.00     0.000 HD 
HETATM    7  C   UNL     1      -9.948  11.230  64.066  1.00  0.00    -0.312 C  
HETATM    8  O   UNL     1     -11.754  12.786  64.545  1.00  0.00    -0.331 OA 
HETATM    9  C   UNL     1     -10.563  12.191  65.087  1.00  0.00    -0.286 C  
ENDROOT
BRANCH   1  10
HETATM   10  O   UNL     1     -10.001  11.700  67.398  1.00  0.00    -0.182 OA 
BRANCH  10  11
HETATM   11  C   UNL     1     -10.595  11.937  68.704  1.00  0.00    -0.234 C  
HETATM   12  O   UNL     1     -11.113   9.589  69.041  1.00  0.00    -0.404 OA 
HETATM   13  H2  UNL     1     -12.850  15.017  71.369  1.00  0.00     0.000 HD 
HETATM   14  H   UNL     1     -11.786   8.952  69.250  1.00  0.00     0.000 HD 
HETATM   15  C   UNL     1     -11.683  10.905  69.041  1.00  0.00    -0.320 C  
HETATM   16  H1  UNL     1     -11.639  15.601  70.338  1.00  0.00     0.000 HD 
HETATM   17  C   UNL     1     -12.891  12.515  70.533  1.00  0.00     0.081 C  
HETATM   18  N   UNL     1     -13.341  10.092  70.663  1.00  0.00    -0.585 NA 
HETATM   19  N   UNL     1     -12.370  14.903  70.477  1.00  0.00    -0.319 NA 
HETATM   20  H1  UNL     1     -13.755  10.230  71.584  1.00  0.00     0.000 HD 
HETATM   21  H2  UNL     1     -12.981   9.145  70.541  1.00  0.00     0.000 HD 
HETATM   22  C   UNL     1     -11.791  13.564  70.324  1.00  0.00    -0.257 C  
HETATM   23  C   UNL     1     -12.307  11.113  70.427  1.00  0.00    -0.344 C  
HETATM   24  C   UNL     1     -11.068  13.403  68.943  1.00  0.00    -0.266 C  
BRANCH  24  25
HETATM   25  O   UNL     1     -10.016  14.376  68.703  1.00  0.00    -0.234 OA 
BRANCH  25  26
HETATM   26  C   UNL     1      -9.802  14.767  67.341  1.00  0.00    -0.222 C  
HETATM   27  O   UNL     1     -10.383  16.044  67.072  1.00  0.00    -0.281 OA 
HETATM   28  C   UNL     1      -9.761  17.106  67.811  1.00  0.00    -0.271 C  
HETATM   29  C   UNL     1      -8.306  17.273  67.354  1.00  0.00    -0.199 C  
HETATM   30  H2  UNL     1      -8.048  12.725  66.793  1.00  0.00     0.000 HD 
HETATM   31  C   UNL     1      -7.560  15.960  67.595  1.00  0.00    -0.150 C  
HETATM   32  O   UNL     1      -7.592  18.289  68.074  1.00  0.00    -0.238 OA 
HETATM   33  H1  UNL     1      -6.585  13.517  66.975  1.00  0.00     0.000 HD 
HETATM   34  H   UNL     1      -6.691  18.392  67.791  1.00  0.00     0.000 HD 
HETATM   35  H   UNL     1      -5.765  15.251  67.207  1.00  0.00     0.000 HD 
HETATM   36  N   UNL     1      -7.572  13.511  67.233  1.00  0.00    -0.116 NA 
HETATM   37  O   UNL     1      -6.229  16.067  67.058  1.00  0.00    -0.314 OA 
HETATM   38  C   UNL     1      -8.292  14.774  66.947  1.00  0.00    -0.151 C  
BRANCH  28  39
HETATM   39  C   UNL     1     -10.622  18.367  67.621  1.00  0.00    -0.408 C  
HETATM   40  H2  UNL     1      -9.455  19.620  68.771  1.00  0.00     0.000 HD 
HETATM   41  N   UNL     1     -10.440  19.372  68.676  1.00  0.00    -0.488 NA 
HETATM   42  H1  UNL     1     -11.010  20.209  68.550  1.00  0.00     0.000 HD 
ENDBRANCH  28  39
ENDBRANCH  25  26
ENDBRANCH  24  25
ENDBRANCH  10  11
ENDBRANCH   1  10
BRANCH   5  43
HETATM   43  C   UNL     1      -8.211   9.893  65.343  1.00  0.00    -0.139 C  
HETATM   44  O   UNL     1      -7.639  11.206  65.315  1.00  0.00    -0.341 OA 
HETATM   45  H   UNL     1      -6.740  11.167  65.619  1.00  0.00     0.000 HD 
ENDBRANCH   5  43
TORSDOF 6
ENDMDL
MODEL       49
REMARK 921   NORMALIZED FREE ENERGY PREDICTED BY IDOCK:   -6.28 KCAL/MOL
REMARK 922        TOTAL FREE ENERGY PREDICTED BY IDOCK:  -10.13 KCAL/MOL
REMARK 923 INTER-LIGAND FREE ENERGY PREDICTED BY IDOCK:   -8.89 KCAL/MOL
REMARK 924 INTRA-LIGAND FREE ENERGY PREDICTED BY IDOCK:   -1.24 KCAL/MOL
REMARK 927      BINDING AFFINITY PREDICTED BY RF-SCORE:    0.00 PKD
ROOT
HETATM    1  C   UNL     1      -9.862  10.085  65.344  1.00  0.00    -0.314 C  
HETATM    2  O   UNL     1      -8.664   8.413  62.732  1.00  0.00    -0.422 OA 
HETATM    3  O   UNL     1      -9.454   8.766  65.733  1.00  0.00    -0.229 OA 
HETATM    4  H   UNL     1      -9.605  10.666  62.090  1.00  0.00     0.000 HD 
HETATM    5  C   UNL     1      -8.173   8.484  65.139  1.00  0.00    -0.152 C  
HETATM    6  H   UNL     1      -8.660   8.878  61.904  1.00  0.00     0.000 HD 
HETATM    7  C   UNL     1      -8.168   9.229  63.812  1.00  0.00    -0.166 C  
HETATM    8  O   UNL     1     -10.050  10.474  62.907  1.00  0.00    -0.204 OA 
HETATM    9  C   UNL     1      -9.137  10.397  64.013  1.00  0.00    -0.242 C  
ENDROOT
BRANCH   1  10
HETATM   10  O   UNL     1      -9.468  11.041  66.332  1.00  0.00    -0.184 OA 
BRANCH  10  11
HETATM   11  C   UNL     1     -10.453  12.017  66.771  1.00  0.00    -0.214 C  
HETATM   12  O   UNL     1     -10.136  13.415  64.812  1.00  0.00    -0.544 OA 
HETATM   13  H2  UNL     1     -12.509  13.966  70.466  1.00  0.00     0.000 HD 
HETATM   14  H   UNL     1      -9.945  14.288  64.487  1.00  0.00     0.000 HD 
HETATM   15  C   UNL     1     -10.144  13.428  66.246  1.00  0.00    -0.299 C  
HETATM   16  H1  UNL     1     -12.162  12.309  70.536  1.00  0.00     0.000 HD 
HETATM   17  C   UNL     1     -11.296  14.513  68.187  1.00  0.00    -0.319 C  
HETATM   18  N   UNL     1     -10.806  15.792  66.133  1.00  0.00    -0.283 NA 
HETATM   19  N   UNL     1     -11.875  13.220  70.180  1.00  0.00    -0.297 NA 
HETATM   20  H1  UNL     1     -11.498  16.486  66.415  1.00  0.00     0.000 HD 
HETATM   21  H2  UNL     1     -10.672  15.772  65.122  1.00  0.00     0.000 HD 
HETATM   22  C   UNL     1     -11.728  13.142  68.722  1.00  0.00    -0.324 C  
HETATM   23  C   UNL     1     -11.183  14.473  66.669  1.00  0.00    -0.346 C  
HETATM   24  C   UNL     1     -10.740  12.000  68.303  1.00  0.00    -0.224 C  
BRANCH  24  25
HETATM   25  O   UNL     1     -11.112  10.682  68.788  1.00  0.00    -0.229 OA 
BRANCH  25  26
HETATM   26  C   UNL     1     -10.530  10.268  70.031  1.00  0.00    -0.241 C  
HETATM   27  O   UNL     1     -11.448  10.440  71.113  1.00  0.00    -0.311 OA 
HETATM   28  C   UNL     1     -12.603   9.596  71.003  1.00  0.00    -0.283 C  
HETATM   29  C   UNL     1     -12.184   8.125  71.122  1.00  0.00    -0.239 C  
HETATM   30  H2  UNL     1      -8.311   9.134  68.876  1.00  0.00     0.000 HD 
HETATM   31  C   UNL     1     -11.193   7.803  70.003  1.00  0.00    -0.117 C  
HETATM   32  O   UNL     1     -13.277   7.205  70.980  1.00  0.00    -0.551 OA 
HETATM   33  H1  UNL     1      -8.763   7.523  68.853  1.00  0.00     0.000 HD 
HETATM   34  H   UNL     1     -13.018   6.294  71.053  1.00  0.00     0.000 HD 
HETATM   35  H   UNL     1     -10.085   6.262  69.483  1.00  0.00     0.000 HD 
HETATM   36  N   UNL     1      -9.098   8.486  68.876  1.00  0.00    -0.146 NA 
HETATM   37  O   UNL     1     -10.701   6.462  70.178  1.00  0.00    -0.228 OA 
HETATM   38  C   UNL     1     -10.018   8.794  69.995  1.00  0.00    -0.187 C  
BRANCH  28  39
HETATM   39  C   UNL     1     -13.608  10.046  72.079  1.00  0.00    -0.269 C  
HETATM   40  H2  UNL     1     -12.930   8.791  73.568  1.00  0.00     0.000 HD 
HETATM   41  N   UNL     1     -13.819   9.056  73.143  1.00  0.00    -1.177 NA 
HETATM   42  H1  UNL     1     -14.484   9.354  73.856  1.00  0.00     0.000 HD 
ENDBRANCH  28  39
ENDBRANCH  25  26
ENDBRANCH  24  25
ENDBRANCH  10  11
ENDBRANCH   1  10
BRANCH   5  43
HETATM   43  C   UNL     1      -7.008   8.906  66.044  1.00  0.00    -0.084 C  
HETATM   44  O   UNL     1      -6.781   7.895  67.033  1.00  0.00    -0.064 OA 
HETATM   45  H   UNL     1      -6.061   8.157  67.594  1.00  0.00     0.000 HD 
ENDBRANCH   5  43
TORSDOF 6
ENDMDL
MODEL       50
REMARK 921   NORMALIZED FREE ENERGY PREDICTED BY IDOCK:   -6.26 KCAL/MOL
REMARK 922        TOTAL FREE ENERGY PREDICTED BY IDOCK:  -10.10 KCAL/MOL
REMARK 923 INTER-LIGAND FREE ENERGY PREDICTED BY IDOCK:   -8.38 KCAL/MOL
REMARK 924 INTRA-LIGAND FREE ENERGY PREDICTED BY IDOCK:   -1.71 KCAL/MOL
REMARK 927      BINDING AFFINITY PREDICTED BY RF-SCORE:    0.00 PKD
ROOT
HETATM    1  C   UNL     1     -10.152  10.069  67.309  1.00  0.00    -0.209 C  
HETATM    2  O   UNL     1      -9.609   7.141  65.831  1.00  0.00    -0.400 OA 
HETATM    3  O   UNL     1     -11.005   9.058  67.864  1.00  0.00    -0.117 OA 
HETATM    4  H   UNL     1      -8.304   9.020  64.764  1.00  0.00     0.000 HD 
HETATM    5  C   UNL     1     -10.225   7.870  68.096  1.00  0.00    -0.205 C  
HETATM    6  H   UNL     1      -8.950   7.134  65.148  1.00  0.00     0.000 HD 
HETATM    7  C   UNL     1      -9.168   7.858  67.000  1.00  0.00    -0.148 C  
HETATM    8  O   UNL     1      -9.022   9.474  65.189  1.00  0.00    -0.182 OA 
HETATM    9  C   UNL     1      -8.982   9.329  66.618  1.00  0.00    -0.140 C  
ENDROOT
BRANCH   1  10
HETATM   10  O   UNL     1      -9.634  10.908  68.345  1.00  0.00    -0.163 OA 
BRANCH  10  11
HETATM   11  C   UNL     1      -8.413  11.651  68.078  1.00  0.00    -0.151 C  
HETATM   12  O   UNL     1      -7.038  10.107  69.351  1.00  0.00    -0.065 OA 
HETATM   13  H2  UNL     1      -6.622  15.854  67.183  1.00  0.00     0.000 HD 
HETATM   14  H   UNL     1      -6.399  10.010  70.047  1.00  0.00     0.000 HD 
HETATM   15  C   UNL     1      -7.380  11.492  69.205  1.00  0.00    -0.057 C  
HETATM   16  H1  UNL     1      -8.117  15.467  66.486  1.00  0.00     0.000 HD 
HETATM   17  C   UNL     1      -6.349  13.721  68.713  1.00  0.00    -0.092 C  
HETATM   18  N   UNL     1      -5.145  12.044  70.064  1.00  0.00    -0.075 NA 
HETATM   19  N   UNL     1      -7.497  15.342  67.287  1.00  0.00    -0.202 NA 
HETATM   20  H1  UNL     1      -4.274  12.543  69.885  1.00  0.00     0.000 HD 
HETATM   21  H2  UNL     1      -4.988  11.056  70.265  1.00  0.00     0.000 HD 
HETATM   22  C   UNL     1      -7.281  13.909  67.509  1.00  0.00    -0.161 C  
HETATM   23  C   UNL     1      -6.070  12.242  68.936  1.00  0.00    -0.073 C  
HETATM   24  C   UNL     1      -8.637  13.141  67.680  1.00  0.00    -0.193 C  
BRANCH  24  25
HETATM   25  O   UNL     1      -9.552  13.290  66.560  1.00  0.00    -0.258 OA 
BRANCH  25  26
HETATM   26  C   UNL     1     -10.877  13.739  66.869  1.00  0.00    -0.285 C  
HETATM   27  O   UNL     1     -10.897  15.143  67.137  1.00  0.00    -0.307 OA 
HETATM   28  C   UNL     1     -10.550  15.933  65.990  1.00  0.00    -0.323 C  
HETATM   29  C   UNL     1     -11.617  15.762  64.900  1.00  0.00    -0.104 C  
HETATM   30  H2  UNL     1     -12.088  11.376  66.167  1.00  0.00     0.000 HD 
HETATM   31  C   UNL     1     -11.695  14.284  64.514  1.00  0.00    -0.418 C  
HETATM   32  O   UNL     1     -11.327  16.487  63.696  1.00  0.00    -1.318 OA 
HETATM   33  H1  UNL     1     -12.608  11.743  64.619  1.00  0.00     0.000 HD 
HETATM   34  H   UNL     1     -11.988  16.381  63.021  1.00  0.00     0.000 HD 
HETATM   35  H   UNL     1     -12.824  13.177  63.343  1.00  0.00     0.000 HD 
HETATM   36  N   UNL     1     -11.934  11.968  65.351  1.00  0.00    -0.403 NA 
HETATM   37  O   UNL     1     -12.776  14.095  63.582  1.00  0.00    -0.790 OA 
HETATM   38  C   UNL     1     -11.907  13.395  65.749  1.00  0.00    -0.377 C  
BRANCH  28  39
HETATM   39  C   UNL     1     -10.374  17.386  66.465  1.00  0.00    -0.312 C  
HETATM   40  H2  UNL     1      -8.865  17.880  65.149  1.00  0.00     0.000 HD 
HETATM   41  N   UNL     1      -9.058  17.957  66.147  1.00  0.00    -0.496 NA 
HETATM   42  H1  UNL     1      -8.942  18.920  66.463  1.00  0.00     0.000 HD 
ENDBRANCH  28  39
ENDBRANCH  25  26
ENDBRANCH  24  25
ENDBRANCH  10  11
ENDBRANCH   1  10
BRANCH   5  43
HETATM   43  C   UNL     1      -9.604   7.849  69.499  1.00  0.00    -0.160 C  
HETATM   44  O   UNL     1     -10.422   8.609  70.395  1.00  0.00    -0.198 OA 
HETATM   45  H   UNL     1     -10.038   8.596  71.263  1.00  0.00     0.000 HD 
ENDBRANCH   5  43
TORSDOF 6
ENDMDL
MODEL       51
REMARK 921   NORMALIZED FREE ENERGY PREDICTED BY IDOCK:   -6.25 KCAL/MOL
REMARK 922        TOTAL FREE ENERGY PREDICTED BY IDOCK:  -10.09 KCAL/MOL
REMARK 923 INTER-LIGAND FREE ENERGY PREDICTED BY IDOCK:   -8.87 KCAL/MOL
REMARK 924 INTRA-LIGAND FREE ENERGY PREDICTED BY IDOCK:   -1.22 KCAL/MOL
REMARK 927      BINDING AFFINITY PREDICTED BY RF-SCORE:    0.00 PKD
ROOT
HETATM    1  C   UNL     1     -10.391   9.183  68.321  1.00  0.00    -0.214 C  
HETATM    2  O   UNL     1      -7.837   8.111  66.481  1.00  0.00    -0.091 OA 
HETATM    3  O   UNL     1      -9.143   9.535  68.935  1.00  0.00    -0.136 OA 
HETATM    4  H   UNL     1     -10.068   7.343  65.581  1.00  0.00     0.000 HD 
HETATM    5  C   UNL     1      -8.260  10.055  67.924  1.00  0.00    -0.113 C  
HETATM    6  H   UNL     1      -8.063   7.646  65.684  1.00  0.00     0.000 HD 
HETATM    7  C   UNL     1      -8.621   9.309  66.647  1.00  0.00    -0.127 C  
HETATM    8  O   UNL     1     -10.255   7.515  66.496  1.00  0.00    -0.210 OA 
HETATM    9  C   UNL     1     -10.085   8.902  66.831  1.00  0.00    -0.273 C  
ENDROOT
BRANCH   1  10
HETATM   10  O   UNL     1     -11.318  10.267  68.417  1.00  0.00    -0.256 OA 
BRANCH  10  11
HETATM   11  C   UNL     1     -11.636  10.780  69.740  1.00  0.00    -0.317 C  
HETATM   12  O   UNL     1     -11.848   8.560  70.697  1.00  0.00    -0.444 OA 
HETATM   13  H2  UNL     1     -13.541  14.308  72.107  1.00  0.00     0.000 HD 
HETATM   14  H   UNL     1     -12.397   7.962  71.191  1.00  0.00     0.000 HD 
HETATM   15  C   UNL     1     -12.524   9.814  70.539  1.00  0.00    -0.058 C  
HETATM   16  H1  UNL     1     -12.640  14.681  70.722  1.00  0.00     0.000 HD 
HETATM   17  C   UNL     1     -13.527  11.679  71.877  1.00  0.00    -0.269 C  
HETATM   18  N   UNL     1     -13.710   9.339  72.638  1.00  0.00    -0.740 NA 
HETATM   19  N   UNL     1     -13.255  14.006  71.176  1.00  0.00    -0.302 NA 
HETATM   20  H1  UNL     1     -13.927   9.674  73.576  1.00  0.00     0.000 HD 
HETATM   21  H2  UNL     1     -13.298   8.406  72.649  1.00  0.00     0.000 HD 
HETATM   22  C   UNL     1     -12.601  12.693  71.193  1.00  0.00    -0.258 C  
HETATM   23  C   UNL     1     -12.851  10.317  71.950  1.00  0.00    -0.426 C  
HETATM   24  C   UNL     1     -12.181  12.241  69.752  1.00  0.00    -0.134 C  
BRANCH  24  25
HETATM   25  O   UNL     1     -11.301  13.172  69.067  1.00  0.00    -0.254 OA 
BRANCH  25  26
HETATM   26  C   UNL     1     -11.923  14.101  68.170  1.00  0.00    -0.332 C  
HETATM   27  O   UNL     1     -11.458  15.433  68.401  1.00  0.00    -0.326 OA 
HETATM   28  C   UNL     1     -10.062  15.593  68.110  1.00  0.00    -0.222 C  
HETATM   29  C   UNL     1      -9.817  15.384  66.609  1.00  0.00    -0.255 C  
HETATM   30  H2  UNL     1     -13.088  12.164  66.609  1.00  0.00     0.000 HD 
HETATM   31  C   UNL     1     -10.274  13.976  66.226  1.00  0.00    -0.296 C  
HETATM   32  O   UNL     1      -8.435  15.485  66.235  1.00  0.00    -0.376 OA 
HETATM   33  H1  UNL     1     -11.991  12.084  65.347  1.00  0.00     0.000 HD 
HETATM   34  H   UNL     1      -8.284  15.356  65.306  1.00  0.00     0.000 HD 
HETATM   35  H   UNL     1     -10.446  12.940  64.563  1.00  0.00     0.000 HD 
HETATM   36  N   UNL     1     -12.123  12.334  66.327  1.00  0.00    -0.620 NA 
HETATM   37  O   UNL     1     -10.162  13.815  64.801  1.00  0.00    -0.403 OA 
HETATM   38  C   UNL     1     -11.722  13.718  66.671  1.00  0.00    -0.394 C  
BRANCH  28  39
HETATM   39  C   UNL     1      -9.639  16.980  68.623  1.00  0.00    -0.275 C  
HETATM   40  H2  UNL     1      -7.839  17.060  67.620  1.00  0.00     0.000 HD 
HETATM   41  N   UNL     1      -8.191  17.217  68.565  1.00  0.00    -0.259 NA 
HETATM   42  H1  UNL     1      -7.911  18.138  68.904  1.00  0.00     0.000 HD 
ENDBRANCH  28  39
ENDBRANCH  25  26
ENDBRANCH  24  25
ENDBRANCH  10  11
ENDBRANCH   1  10
BRANCH   5  43
HETATM   43  C   UNL     1      -8.393  11.575  67.764  1.00  0.00    -0.136 C  
HETATM   44  O   UNL     1      -8.397  12.193  69.056  1.00  0.00    -0.352 OA 
HETATM   45  H   UNL     1      -8.479  13.134  68.957  1.00  0.00     0.000 HD 
ENDBRANCH   5  43
TORSDOF 6
ENDMDL
MODEL       52
REMARK 921   NORMALIZED FREE ENERGY PREDICTED BY IDOCK:   -6.23 KCAL/MOL
REMARK 922        TOTAL FREE ENERGY PREDICTED BY IDOCK:  -10.06 KCAL/MOL
REMARK 923 INTER-LIGAND FREE ENERGY PREDICTED BY IDOCK:   -9.56 KCAL/MOL
REMARK 924 INTRA-LIGAND FREE ENERGY PREDICTED BY IDOCK:   -0.50 KCAL/MOL
REMARK 927      BINDING AFFINITY PREDICTED BY RF-SCORE:    0.00 PKD
ROOT
HETATM    1  C   UNL     1      -9.841  17.201  68.537  1.00  0.00    -0.297 C  
HETATM    2  O   UNL     1      -8.787  19.591  66.480  1.00  0.00    -0.324 OA 
HETATM    3  O   UNL     1     -10.908  17.641  67.685  1.00  0.00    -0.350 OA 
HETATM    4  H   UNL     1      -7.027  18.915  68.159  1.00  0.00     0.000 HD 
HETATM    5  C   UNL     1     -10.410  17.752  66.339  1.00  0.00    -0.351 C  
HETATM    6  H   UNL     1      -7.876  19.845  66.567  1.00  0.00     0.000 HD 
HETATM    7  C   UNL     1      -8.950  18.159  66.478  1.00  0.00    -0.275 C  
HETATM    8  O   UNL     1      -7.837  18.654  68.582  1.00  0.00    -0.314 OA 
HETATM    9  C   UNL     1      -8.522  17.626  67.848  1.00  0.00    -0.233 C  
ENDROOT
BRANCH   1  10
HETATM   10  O   UNL     1      -9.865  15.778  68.673  1.00  0.00    -0.200 OA 
BRANCH  10  11
HETATM   11  C   UNL     1     -11.050  15.166  69.253  1.00  0.00    -0.274 C  
HETATM   12  O   UNL     1     -11.359  16.965  70.852  1.00  0.00    -0.419 OA 
HETATM   13  H2  UNL     1     -13.228  11.145  70.126  1.00  0.00     0.000 HD 
HETATM   14  H   UNL     1     -11.472  17.198  71.767  1.00  0.00     0.000 HD 
HETATM   15  C   UNL     1     -11.232  15.542  70.732  1.00  0.00    -0.354 C  
HETATM   16  H1  UNL     1     -12.394  11.290  68.658  1.00  0.00     0.000 HD 
HETATM   17  C   UNL     1     -12.463  13.418  71.226  1.00  0.00    -0.368 C  
HETATM   18  N   UNL     1     -12.581  15.336  72.775  1.00  0.00    -0.357 NA 
HETATM   19  N   UNL     1     -12.430  11.556  69.642  1.00  0.00    -0.103 NA 
HETATM   20  H1  UNL     1     -13.418  14.931  73.193  1.00  0.00     0.000 HD 
HETATM   21  H2  UNL     1     -12.545  16.349  72.890  1.00  0.00     0.000 HD 
HETATM   22  C   UNL     1     -12.409  13.019  69.746  1.00  0.00    -0.078 C  
HETATM   23  C   UNL     1     -12.490  14.934  71.361  1.00  0.00    -0.337 C  
HETATM   24  C   UNL     1     -11.169  13.631  69.009  1.00  0.00    -0.273 C  
BRANCH  24  25
HETATM   25  O   UNL     1     -11.079  13.280  67.601  1.00  0.00    -0.255 OA 
BRANCH  25  26
HETATM   26  C   UNL     1      -9.769  12.993  67.094  1.00  0.00    -0.230 C  
HETATM   27  O   UNL     1      -9.064  12.101  67.960  1.00  0.00    -0.177 OA 
HETATM   28  C   UNL     1      -9.670  10.802  68.034  1.00  0.00    -0.162 C  
HETATM   29  C   UNL     1      -9.588  10.112  66.666  1.00  0.00    -0.183 C  
HETATM   30  H2  UNL     1     -10.199  14.196  64.662  1.00  0.00     0.000 HD 
HETATM   31  C   UNL     1     -10.318  10.972  65.634  1.00  0.00    -0.251 C  
HETATM   32  O   UNL     1     -10.210   8.819  66.638  1.00  0.00    -0.277 OA 
HETATM   33  H1  UNL     1     -10.569  12.863  63.720  1.00  0.00     0.000 HD 
HETATM   34  H   UNL     1     -10.159   8.392  65.791  1.00  0.00     0.000 HD 
HETATM   35  H   UNL     1     -10.595  10.931  63.687  1.00  0.00     0.000 HD 
HETATM   36  N   UNL     1     -10.552  13.239  64.668  1.00  0.00    -0.383 NA 
HETATM   37  O   UNL     1     -10.142  10.396  64.328  1.00  0.00    -0.334 OA 
HETATM   38  C   UNL     1      -9.797  12.418  65.644  1.00  0.00    -0.222 C  
BRANCH  28  39
HETATM   39  C   UNL     1      -8.970  10.029  69.165  1.00  0.00    -0.169 C  
HETATM   40  H2  UNL     1      -8.027  11.657  70.010  1.00  0.00     0.000 HD 
HETATM   41  N   UNL     1      -7.788  10.713  69.706  1.00  0.00    -0.369 NA 
HETATM   42  H1  UNL     1      -7.323  10.201  70.456  1.00  0.00     0.000 HD 
ENDBRANCH  28  39
ENDBRANCH  25  26
ENDBRANCH  24  25
ENDBRANCH  10  11
ENDBRANCH   1  10
BRANCH   5  43
HETATM   43  C   UNL     1     -10.574  16.445  65.551  1.00  0.00    -0.330 C  
HETATM   44  O   UNL     1     -11.271  16.709  64.328  1.00  0.00    -1.314 OA 
HETATM   45  H   UNL     1     -11.373  15.901  63.841  1.00  0.00     0.000 HD 
ENDBRANCH   5  43
TORSDOF 6
ENDMDL
MODEL       53
REMARK 921   NORMALIZED FREE ENERGY PREDICTED BY IDOCK:   -6.22 KCAL/MOL
REMARK 922        TOTAL FREE ENERGY PREDICTED BY IDOCK:  -10.05 KCAL/MOL
REMARK 923 INTER-LIGAND FREE ENERGY PREDICTED BY IDOCK:   -8.91 KCAL/MOL
REMARK 924 INTRA-LIGAND FREE ENERGY PREDICTED BY IDOCK:   -1.13 KCAL/MOL
REMARK 927      BINDING AFFINITY PREDICTED BY RF-SCORE:    0.00 PKD
ROOT
HETATM    1  C   UNL     1     -11.175  14.817  66.509  1.00  0.00    -0.342 C  
HETATM    2  O   UNL     1     -11.899  16.307  63.626  1.00  0.00    -1.404 OA 
HETATM    3  O   UNL     1     -12.460  14.394  66.031  1.00  0.00    -0.391 OA 
HETATM    4  H   UNL     1      -9.752  17.161  64.644  1.00  0.00     0.000 HD 
HETATM    5  C   UNL     1     -12.359  14.108  64.623  1.00  0.00    -0.410 C  
HETATM    6  H   UNL     1     -11.246  16.909  63.291  1.00  0.00     0.000 HD 
HETATM    7  C   UNL     1     -11.312  15.074  64.087  1.00  0.00     0.097 C  
HETATM    8  O   UNL     1     -10.218  16.809  65.393  1.00  0.00    -0.599 OA 
HETATM    9  C   UNL     1     -10.417  15.390  65.288  1.00  0.00    -0.415 C  
ENDROOT
BRANCH   1  10
HETATM   10  O   UNL     1     -10.448  13.705  67.037  1.00  0.00    -0.266 OA 
BRANCH  10  11
HETATM   11  C   UNL     1     -11.161  12.761  67.884  1.00  0.00    -0.246 C  
HETATM   12  O   UNL     1     -12.495  14.500  68.927  1.00  0.00    -0.573 OA 
HETATM   13  H2  UNL     1     -10.911   8.664  70.080  1.00  0.00     0.000 HD 
HETATM   14  H   UNL     1     -12.779  14.894  69.744  1.00  0.00     0.000 HD 
HETATM   15  C   UNL     1     -11.619  13.399  69.205  1.00  0.00    -0.315 C  
HETATM   16  H1  UNL     1     -10.183   8.789  68.556  1.00  0.00     0.000 HD 
HETATM   17  C   UNL     1     -11.558  11.201  70.405  1.00  0.00    -0.355 C  
HETATM   18  N   UNL     1     -12.791  13.121  71.347  1.00  0.00    -0.354 NA 
HETATM   19  N   UNL     1     -10.424   9.271  69.422  1.00  0.00    -0.214 NA 
HETATM   20  H1  UNL     1     -13.310  12.478  71.945  1.00  0.00     0.000 HD 
HETATM   21  H2  UNL     1     -13.310  13.980  71.164  1.00  0.00     0.000 HD 
HETATM   22  C   UNL     1     -11.195  10.478  69.102  1.00  0.00    -0.256 C  
HETATM   23  C   UNL     1     -12.400  12.433  70.104  1.00  0.00    -0.136 C  
HETATM   24  C   UNL     1     -10.425  11.404  68.100  1.00  0.00    -0.187 C  
BRANCH  24  25
HETATM   25  O   UNL     1     -10.062  10.759  66.850  1.00  0.00    -0.197 OA 
BRANCH  25  26
HETATM   26  C   UNL     1      -8.829  11.174  66.248  1.00  0.00    -0.185 C  
HETATM   27  O   UNL     1      -7.769  11.200  67.207  1.00  0.00    -0.118 OA 
HETATM   28  C   UNL     1      -7.452   9.899  67.722  1.00  0.00    -0.090 C  
HETATM   29  C   UNL     1      -6.893   9.017  66.597  1.00  0.00    -0.080 C  
HETATM   30  H2  UNL     1      -9.783  11.061  63.675  1.00  0.00     0.000 HD 
HETATM   31  C   UNL     1      -7.945   8.901  65.493  1.00  0.00    -0.107 C  
HETATM   32  O   UNL     1      -6.588   7.679  67.017  1.00  0.00    -0.058 OA 
HETATM   33  H1  UNL     1      -9.207   9.563  63.197  1.00  0.00     0.000 HD 
HETATM   34  H   UNL     1      -6.242   7.133  66.320  1.00  0.00     0.000 HD 
HETATM   35  H   UNL     1      -8.039   8.107  63.695  1.00  0.00     0.000 HD 
HETATM   36  N   UNL     1      -9.472  10.143  63.993  1.00  0.00    -0.286 NA 
HETATM   37  O   UNL     1      -7.385   8.179  64.381  1.00  0.00    -0.084 OA 
HETATM   38  C   UNL     1      -8.424  10.286  65.030  1.00  0.00    -0.172 C  
BRANCH  28  39
HETATM   39  C   UNL     1      -6.483  10.092  68.901  1.00  0.00    -0.048 C  
HETATM   40  H2  UNL     1      -5.697   8.185  68.872  1.00  0.00     0.000 HD 
HETATM   41  N   UNL     1      -6.085   8.837  69.553  1.00  0.00    -0.036 NA 
HETATM   42  H1  UNL     1      -5.442   8.966  70.335  1.00  0.00     0.000 HD 
ENDBRANCH  28  39
ENDBRANCH  25  26
ENDBRANCH  24  25
ENDBRANCH  10  11
ENDBRANCH   1  10
BRANCH   5  43
HETATM   43  C   UNL     1     -11.987  12.644  64.354  1.00  0.00    -0.400 C  
HETATM   44  O   UNL     1     -11.146  12.569  63.198  1.00  0.00    -0.687 OA 
HETATM   45  H   UNL     1     -10.916  11.663  63.031  1.00  0.00     0.000 HD 
ENDBRANCH   5  43
TORSDOF 6
ENDMDL
MODEL       54
REMARK 921   NORMALIZED FREE ENERGY PREDICTED BY IDOCK:   -6.18 KCAL/MOL
REMARK 922        TOTAL FREE ENERGY PREDICTED BY IDOCK:  -10.00 KCAL/MOL
REMARK 923 INTER-LIGAND FREE ENERGY PREDICTED BY IDOCK:   -8.22 KCAL/MOL
REMARK 924 INTRA-LIGAND FREE ENERGY PREDICTED BY IDOCK:   -1.78 KCAL/MOL
REMARK 927      BINDING AFFINITY PREDICTED BY RF-SCORE:    0.00 PKD
ROOT
HETATM    1  C   UNL     1      -9.678   6.709  67.347  1.00  0.00    -0.128 C  
HETATM    2  O   UNL     1      -8.787   3.511  67.164  1.00  0.00    -0.112 OA 
HETATM    3  O   UNL     1      -9.513   6.155  68.661  1.00  0.00    -0.124 OA 
HETATM    4  H   UNL     1      -9.308   4.502  64.901  1.00  0.00     0.000 HD 
HETATM    5  C   UNL     1      -8.301   5.378  68.687  1.00  0.00    -0.093 C  
HETATM    6  H   UNL     1      -8.696   3.152  66.289  1.00  0.00     0.000 HD 
HETATM    7  C   UNL     1      -8.157   4.802  67.285  1.00  0.00    -0.102 C  
HETATM    8  O   UNL     1      -9.783   5.069  65.496  1.00  0.00    -0.144 OA 
HETATM    9  C   UNL     1      -8.903   5.785  66.378  1.00  0.00    -0.131 C  
ENDROOT
BRANCH   1  10
HETATM   10  O   UNL     1      -9.124   8.026  67.289  1.00  0.00    -0.131 OA 
BRANCH  10  11
HETATM   11  C   UNL     1      -9.966   9.101  66.790  1.00  0.00    -0.254 C  
HETATM   12  O   UNL     1      -9.103   8.906  64.529  1.00  0.00    -0.434 OA 
HETATM   13  H2  UNL     1     -12.161  13.055  67.895  1.00  0.00     0.000 HD 
HETATM   14  H   UNL     1      -8.707   9.359  63.793  1.00  0.00     0.000 HD 
HETATM   15  C   UNL     1      -9.326   9.834  65.600  1.00  0.00    -0.227 C  
HETATM   16  H1  UNL     1     -12.142  11.813  69.047  1.00  0.00     0.000 HD 
HETATM   17  C   UNL     1     -10.538  11.961  66.126  1.00  0.00    -0.295 C  
HETATM   18  N   UNL     1      -9.515  11.606  63.908  1.00  0.00    -0.469 NA 
HETATM   19  N   UNL     1     -11.640  12.271  68.286  1.00  0.00    -0.310 NA 
HETATM   20  H1  UNL     1     -10.100  12.351  63.532  1.00  0.00     0.000 HD 
HETATM   21  H2  UNL     1      -9.234  10.938  63.190  1.00  0.00     0.000 HD 
HETATM   22  C   UNL     1     -11.292  11.272  67.270  1.00  0.00    -0.255 C  
HETATM   23  C   UNL     1     -10.206  10.954  65.034  1.00  0.00    -0.303 C  
HETATM   24  C   UNL     1     -10.480  10.082  67.887  1.00  0.00    -0.231 C  
BRANCH  24  25
HETATM   25  O   UNL     1     -11.158   9.397  68.975  1.00  0.00    -0.125 OA 
BRANCH  25  26
HETATM   26  C   UNL     1     -11.016   9.971  70.281  1.00  0.00    -0.316 C  
HETATM   27  O   UNL     1     -12.252   9.933  70.998  1.00  0.00    -0.309 OA 
HETATM   28  C   UNL     1     -12.691   8.596  71.281  1.00  0.00    -0.215 C  
HETATM   29  C   UNL     1     -11.702   7.917  72.238  1.00  0.00    -0.355 C  
HETATM   30  H2  UNL     1      -8.279  10.152  70.153  1.00  0.00     0.000 HD 
HETATM   31  C   UNL     1     -10.322   7.886  71.580  1.00  0.00    -0.204 C  
HETATM   32  O   UNL     1     -12.043   6.556  72.542  1.00  0.00    -0.504 OA 
HETATM   33  H1  UNL     1      -7.838   8.776  70.997  1.00  0.00     0.000 HD 
HETATM   34  H   UNL     1     -11.431   6.136  73.135  1.00  0.00     0.000 HD 
HETATM   35  H   UNL     1      -8.506   7.344  72.109  1.00  0.00     0.000 HD 
HETATM   36  N   UNL     1      -8.573   9.222  70.448  1.00  0.00    -0.201 NA 
HETATM   37  O   UNL     1      -9.364   7.362  72.517  1.00  0.00    -0.139 OA 
HETATM   38  C   UNL     1      -9.892   9.288  71.120  1.00  0.00    -0.272 C  
BRANCH  28  39
HETATM   39  C   UNL     1     -14.126   8.688  71.831  1.00  0.00    -0.443 C  
HETATM   40  H2  UNL     1     -13.642   9.662  73.583  1.00  0.00     0.000 HD 
HETATM   41  N   UNL     1     -14.192   8.855  73.289  1.00  0.00    -1.237 NA 
HETATM   42  H1  UNL     1     -15.143   8.916  73.652  1.00  0.00     0.000 HD 
ENDBRANCH  28  39
ENDBRANCH  25  26
ENDBRANCH  24  25
ENDBRANCH  10  11
ENDBRANCH   1  10
BRANCH   5  43
HETATM   43  C   UNL     1      -7.083   6.218  69.095  1.00  0.00    -0.077 C  
HETATM   44  O   UNL     1      -7.258   6.693  70.435  1.00  0.00    -0.075 OA 
HETATM   45  H   UNL     1      -6.505   7.212  70.687  1.00  0.00     0.000 HD 
ENDBRANCH   5  43
TORSDOF 6
ENDMDL
MODEL       55
REMARK 921   NORMALIZED FREE ENERGY PREDICTED BY IDOCK:   -6.18 KCAL/MOL
REMARK 922        TOTAL FREE ENERGY PREDICTED BY IDOCK:   -9.99 KCAL/MOL
REMARK 923 INTER-LIGAND FREE ENERGY PREDICTED BY IDOCK:   -8.02 KCAL/MOL
REMARK 924 INTRA-LIGAND FREE ENERGY PREDICTED BY IDOCK:   -1.97 KCAL/MOL
REMARK 927      BINDING AFFINITY PREDICTED BY RF-SCORE:    0.00 PKD
ROOT
HETATM    1  C   UNL     1     -11.933  12.649  65.923  1.00  0.00    -0.438 C  
HETATM    2  O   UNL     1     -12.888  13.483  62.850  1.00  0.00    -0.491 OA 
HETATM    3  O   UNL     1     -12.154  11.475  65.127  1.00  0.00    -0.025 OA 
HETATM    4  H   UNL     1     -12.689  15.483  64.378  1.00  0.00     0.000 HD 
HETATM    5  C   UNL     1     -11.550  11.672  63.836  1.00  0.00    -0.309 C  
HETATM    6  H   UNL     1     -12.963  14.413  62.674  1.00  0.00     0.000 HD 
HETATM    7  C   UNL     1     -11.671  13.163  63.553  1.00  0.00    -0.415 C  
HETATM    8  O   UNL     1     -12.814  14.763  64.984  1.00  0.00    -0.359 OA 
HETATM    9  C   UNL     1     -11.730  13.821  64.935  1.00  0.00    -0.363 C  
ENDROOT
BRANCH   1  10
HETATM   10  O   UNL     1     -10.758  12.495  66.722  1.00  0.00    -0.232 OA 
BRANCH  10  11
HETATM   11  C   UNL     1     -10.925  12.198  68.136  1.00  0.00    -0.230 C  
HETATM   12  O   UNL     1     -10.234   9.887  67.868  1.00  0.00    -0.171 OA 
HETATM   13  H2  UNL     1     -13.263  13.283  72.013  1.00  0.00     0.000 HD 
HETATM   14  H   UNL     1     -10.453   8.974  68.019  1.00  0.00     0.000 HD 
HETATM   15  C   UNL     1     -11.280  10.723  68.380  1.00  0.00    -0.284 C  
HETATM   16  H1  UNL     1     -12.840  14.546  70.965  1.00  0.00     0.000 HD 
HETATM   17  C   UNL     1     -12.493  11.260  70.505  1.00  0.00    -0.398 C  
HETATM   18  N   UNL     1     -11.780   8.950  70.007  1.00  0.00    -0.444 NA 
HETATM   19  N   UNL     1     -13.106  13.564  71.046  1.00  0.00    -0.205 NA 
HETATM   20  H1  UNL     1     -11.882   8.719  70.994  1.00  0.00     0.000 HD 
HETATM   21  H2  UNL     1     -11.110   8.342  69.536  1.00  0.00     0.000 HD 
HETATM   22  C   UNL     1     -12.093  12.736  70.383  1.00  0.00    -0.302 C  
HETATM   23  C   UNL     1     -11.433  10.374  69.865  1.00  0.00    -0.297 C  
HETATM   24  C   UNL     1     -11.876  13.173  68.894  1.00  0.00    -0.320 C  
BRANCH  24  25
HETATM   25  O   UNL     1     -11.494  14.566  68.731  1.00  0.00    -0.264 OA 
BRANCH  25  26
HETATM   26  C   UNL     1     -10.236  14.956  69.295  1.00  0.00    -0.214 C  
HETATM   27  O   UNL     1      -9.222  15.035  68.290  1.00  0.00    -0.175 OA 
HETATM   28  C   UNL     1      -9.473  16.067  67.325  1.00  0.00    -0.215 C  
HETATM   29  C   UNL     1      -9.410  17.441  68.006  1.00  0.00    -0.276 C  
HETATM   30  H2  UNL     1     -11.274  15.574  71.761  1.00  0.00     0.000 HD 
HETATM   31  C   UNL     1     -10.463  17.492  69.114  1.00  0.00    -0.190 C  
HETATM   32  O   UNL     1      -9.693  18.534  67.119  1.00  0.00    -0.289 OA 
HETATM   33  H1  UNL     1     -11.430  17.235  71.624  1.00  0.00     0.000 HD 
HETATM   34  H   UNL     1      -9.654  19.384  67.540  1.00  0.00     0.000 HD 
HETATM   35  H   UNL     1     -10.984  18.760  70.525  1.00  0.00     0.000 HD 
HETATM   36  N   UNL     1     -11.376  16.354  71.113  1.00  0.00    -0.276 NA 
HETATM   37  O   UNL     1     -10.329  18.729  69.837  1.00  0.00     0.434 OA 
HETATM   38  C   UNL     1     -10.318  16.304  70.078  1.00  0.00    -0.095 C  
BRANCH  28  39
HETATM   39  C   UNL     1      -8.457  15.891  66.184  1.00  0.00    -0.161 C  
HETATM   40  H2  UNL     1      -7.334  17.566  66.612  1.00  0.00     0.000 HD 
HETATM   41  N   UNL     1      -7.775  17.134  65.801  1.00  0.00    -0.335 NA 
HETATM   42  H1  UNL     1      -7.101  17.016  65.044  1.00  0.00     0.000 HD 
ENDBRANCH  28  39
ENDBRANCH  25  26
ENDBRANCH  24  25
ENDBRANCH  10  11
ENDBRANCH   1  10
BRANCH   5  43
HETATM   43  C   UNL     1     -10.093  11.193  63.798  1.00  0.00    -0.361 C  
HETATM   44  O   UNL     1      -9.892  10.194  64.804  1.00  0.00    -0.320 OA 
HETATM   45  H   UNL     1      -8.990   9.897  64.781  1.00  0.00     0.000 HD 
ENDBRANCH   5  43
TORSDOF 6
ENDMDL
MODEL       56
REMARK 921   NORMALIZED FREE ENERGY PREDICTED BY IDOCK:   -6.16 KCAL/MOL
REMARK 922        TOTAL FREE ENERGY PREDICTED BY IDOCK:   -9.96 KCAL/MOL
REMARK 923 INTER-LIGAND FREE ENERGY PREDICTED BY IDOCK:   -8.07 KCAL/MOL
REMARK 924 INTRA-LIGAND FREE ENERGY PREDICTED BY IDOCK:   -1.89 KCAL/MOL
REMARK 927      BINDING AFFINITY PREDICTED BY RF-SCORE:    0.00 PKD
ROOT
HETATM    1  C   UNL     1     -10.293  11.081  69.735  1.00  0.00     0.159 C  
HETATM    2  O   UNL     1     -12.943  10.358  71.607  1.00  0.00    -0.406 OA 
HETATM    3  O   UNL     1     -10.025   9.948  70.574  1.00  0.00    -0.244 OA 
HETATM    4  H   UNL     1     -13.258  12.470  70.261  1.00  0.00     0.000 HD 
HETATM    5  C   UNL     1     -11.157   9.060  70.529  1.00  0.00    -0.254 C  
HETATM    6  H   UNL     1     -13.701  10.918  71.493  1.00  0.00     0.000 HD 
HETATM    7  C   UNL     1     -12.371   9.959  70.346  1.00  0.00    -0.076 C  
HETATM    8  O   UNL     1     -12.313  12.390  70.314  1.00  0.00    -0.275 OA 
HETATM    9  C   UNL     1     -11.832  11.211  69.648  1.00  0.00    -0.348 C  
ENDROOT
BRANCH   1  10
HETATM   10  O   UNL     1      -9.762  10.868  68.425  1.00  0.00    -0.162 OA 
BRANCH  10  11
HETATM   11  C   UNL     1      -8.477  11.466  68.100  1.00  0.00    -0.152 C  
HETATM   12  O   UNL     1      -7.244   9.873  69.454  1.00  0.00    -0.067 OA 
HETATM   13  H2  UNL     1      -6.290  15.406  66.929  1.00  0.00     0.000 HD 
HETATM   14  H   UNL     1      -6.607   9.754  70.150  1.00  0.00     0.000 HD 
HETATM   15  C   UNL     1      -7.448  11.274  69.225  1.00  0.00    -0.040 C  
HETATM   16  H1  UNL     1      -7.827  15.129  66.272  1.00  0.00     0.000 HD 
HETATM   17  C   UNL     1      -6.208  13.354  68.586  1.00  0.00    -0.088 C  
HETATM   18  N   UNL     1      -5.156  11.649  70.028  1.00  0.00    -0.069 NA 
HETATM   19  N   UNL     1      -7.210  14.992  67.073  1.00  0.00    -0.134 NA 
HETATM   20  H1  UNL     1      -4.243  12.046  69.810  1.00  0.00     0.000 HD 
HETATM   21  H2  UNL     1      -5.096  10.665  70.289  1.00  0.00     0.000 HD 
HETATM   22  C   UNL     1      -7.135  13.560  67.382  1.00  0.00    -0.083 C  
HETATM   23  C   UNL     1      -6.074  11.870  68.898  1.00  0.00    -0.062 C  
HETATM   24  C   UNL     1      -8.558  12.945  67.613  1.00  0.00    -0.182 C  
BRANCH  24  25
HETATM   25  O   UNL     1      -9.470  13.115  66.494  1.00  0.00    -0.252 OA 
BRANCH  25  26
HETATM   26  C   UNL     1     -10.804  13.533  66.813  1.00  0.00    -0.282 C  
HETATM   27  O   UNL     1     -10.838  14.913  67.184  1.00  0.00    -0.297 OA 
HETATM   28  C   UNL     1     -10.477  15.789  66.106  1.00  0.00    -0.317 C  
HETATM   29  C   UNL     1     -11.524  15.694  64.988  1.00  0.00    -0.175 C  
HETATM   30  H2  UNL     1     -11.986  11.222  65.913  1.00  0.00     0.000 HD 
HETATM   31  C   UNL     1     -11.584  14.249  64.490  1.00  0.00    -0.387 C  
HETATM   32  O   UNL     1     -11.218  16.509  63.847  1.00  0.00    -1.440 OA 
HETATM   33  H1  UNL     1     -12.481  11.702  64.388  1.00  0.00     0.000 HD 
HETATM   34  H   UNL     1     -11.866  16.450  63.154  1.00  0.00     0.000 HD 
HETATM   35  H   UNL     1     -12.685  13.227  63.219  1.00  0.00     0.000 HD 
HETATM   36  N   UNL     1     -11.822  11.875  65.147  1.00  0.00    -0.249 NA 
HETATM   37  O   UNL     1     -12.647  14.125  63.528  1.00  0.00    -0.834 OA 
HETATM   38  C   UNL     1     -11.812  13.268  65.651  1.00  0.00    -0.380 C  
BRANCH  28  39
HETATM   39  C   UNL     1     -10.320  17.202  66.693  1.00  0.00    -0.310 C  
HETATM   40  H2  UNL     1     -10.548  18.219  64.913  1.00  0.00     0.000 HD 
HETATM   41  N   UNL     1      -9.908  18.210  65.706  1.00  0.00    -0.501 NA 
HETATM   42  H1  UNL     1      -9.803  19.147  66.095  1.00  0.00     0.000 HD 
ENDBRANCH  28  39
ENDBRANCH  25  26
ENDBRANCH  24  25
ENDBRANCH  10  11
ENDBRANCH   1  10
BRANCH   5  43
HETATM   43  C   UNL     1     -11.033   8.019  69.408  1.00  0.00    -0.009 C  
HETATM   44  O   UNL     1      -9.658   7.880  69.035  1.00  0.00    -0.154 OA 
HETATM   45  H   UNL     1      -9.581   7.237  68.341  1.00  0.00     0.000 HD 
ENDBRANCH   5  43
TORSDOF 6
ENDMDL
MODEL       57
REMARK 921   NORMALIZED FREE ENERGY PREDICTED BY IDOCK:   -6.14 KCAL/MOL
REMARK 922        TOTAL FREE ENERGY PREDICTED BY IDOCK:   -9.93 KCAL/MOL
REMARK 923 INTER-LIGAND FREE ENERGY PREDICTED BY IDOCK:   -8.84 KCAL/MOL
REMARK 924 INTRA-LIGAND FREE ENERGY PREDICTED BY IDOCK:   -1.10 KCAL/MOL
REMARK 927      BINDING AFFINITY PREDICTED BY RF-SCORE:    0.00 PKD
ROOT
HETATM    1  C   UNL     1     -10.423  11.257  65.900  1.00  0.00    -0.259 C  
HETATM    2  O   UNL     1     -10.394  10.772  62.611  1.00  0.00    -0.761 OA 
HETATM    3  O   UNL     1     -10.171   9.878  65.596  1.00  0.00    -0.269 OA 
HETATM    4  H   UNL     1     -11.047  13.130  63.236  1.00  0.00     0.000 HD 
HETATM    5  C   UNL     1      -9.202   9.809  64.533  1.00  0.00    -0.253 C  
HETATM    6  H   UNL     1     -10.551  11.540  62.074  1.00  0.00     0.000 HD 
HETATM    7  C   UNL     1      -9.455  11.038  63.672  1.00  0.00    -0.272 C  
HETATM    8  O   UNL     1     -11.255  12.636  64.020  1.00  0.00    -0.350 OA 
HETATM    9  C   UNL     1     -10.084  12.061  64.622  1.00  0.00    -0.264 C  
ENDROOT
BRANCH   1  10
HETATM   10  O   UNL     1      -9.582  11.694  66.970  1.00  0.00    -0.181 OA 
BRANCH  10  11
HETATM   11  C   UNL     1     -10.102  11.617  68.326  1.00  0.00    -0.202 C  
HETATM   12  O   UNL     1      -9.854   9.204  68.426  1.00  0.00    -0.156 OA 
HETATM   13  H2  UNL     1     -12.941  13.595  71.441  1.00  0.00     0.000 HD 
HETATM   14  H   UNL     1     -10.281   8.373  68.600  1.00  0.00     0.000 HD 
HETATM   15  C   UNL     1     -10.793  10.273  68.606  1.00  0.00    -0.234 C  
HETATM   16  H1  UNL     1     -12.058  14.615  70.416  1.00  0.00     0.000 HD 
HETATM   17  C   UNL     1     -12.295  11.289  70.334  1.00  0.00    -0.415 C  
HETATM   18  N   UNL     1     -11.977   8.844  70.217  1.00  0.00    -0.455 NA 
HETATM   19  N   UNL     1     -12.528  13.716  70.517  1.00  0.00    -0.339 NA 
HETATM   20  H1  UNL     1     -12.331   8.764  71.170  1.00  0.00     0.000 HD 
HETATM   21  H2  UNL     1     -11.360   8.070  69.970  1.00  0.00     0.000 HD 
HETATM   22  C   UNL     1     -11.588  12.641  70.182  1.00  0.00    -0.062 C  
HETATM   23  C   UNL     1     -11.326  10.153  70.039  1.00  0.00    -0.287 C  
HETATM   24  C   UNL     1     -10.974  12.836  68.753  1.00  0.00    -0.250 C  
BRANCH  24  25
HETATM   25  O   UNL     1     -10.292  14.105  68.565  1.00  0.00    -0.238 OA 
BRANCH  25  26
HETATM   26  C   UNL     1     -11.120  15.250  68.324  1.00  0.00    -0.300 C  
HETATM   27  O   UNL     1     -10.442  16.460  68.668  1.00  0.00    -0.259 OA 
HETATM   28  C   UNL     1      -9.298  16.713  67.840  1.00  0.00    -0.221 C  
HETATM   29  C   UNL     1      -9.748  16.955  66.393  1.00  0.00    -0.284 C  
HETATM   30  H2  UNL     1     -13.068  13.843  66.992  1.00  0.00     0.000 HD 
HETATM   31  C   UNL     1     -10.492  15.716  65.894  1.00  0.00    -0.344 C  
HETATM   32  O   UNL     1      -8.659  17.175  65.484  1.00  0.00    -0.265 OA 
HETATM   33  H1  UNL     1     -12.638  14.147  65.404  1.00  0.00     0.000 HD 
HETATM   34  H   UNL     1      -8.938  17.325  64.588  1.00  0.00     0.000 HD 
HETATM   35  H   UNL     1     -11.487  15.210  64.273  1.00  0.00     0.000 HD 
HETATM   36  N   UNL     1     -12.304  14.098  66.366  1.00  0.00    -0.454 NA 
HETATM   37  O   UNL     1     -11.024  15.980  64.583  1.00  0.00    -0.590 OA 
HETATM   38  C   UNL     1     -11.630  15.325  66.850  1.00  0.00    -0.067 C  
BRANCH  28  39
HETATM   39  C   UNL     1      -8.531  17.893  68.459  1.00  0.00    -0.298 C  
HETATM   40  H2  UNL     1      -9.726  19.382  67.679  1.00  0.00     0.000 HD 
HETATM   41  N   UNL     1      -8.732  19.166  67.753  1.00  0.00    -0.295 NA 
HETATM   42  H1  UNL     1      -8.223  19.949  68.165  1.00  0.00     0.000 HD 
ENDBRANCH  28  39
ENDBRANCH  25  26
ENDBRANCH  24  25
ENDBRANCH  10  11
ENDBRANCH   1  10
BRANCH   5  43
HETATM   43  C   UNL     1      -7.763   9.759  65.062  1.00  0.00    -0.126 C  
HETATM   44  O   UNL     1      -7.762   9.233  66.394  1.00  0.00    -0.092 OA 
HETATM   45  H   UNL     1      -6.871   9.202  66.722  1.00  0.00     0.000 HD 
ENDBRANCH   5  43
TORSDOF 6
ENDMDL
MODEL       58
REMARK 921   NORMALIZED FREE ENERGY PREDICTED BY IDOCK:   -6.11 KCAL/MOL
REMARK 922        TOTAL FREE ENERGY PREDICTED BY IDOCK:   -9.90 KCAL/MOL
REMARK 923 INTER-LIGAND FREE ENERGY PREDICTED BY IDOCK:   -8.06 KCAL/MOL
REMARK 924 INTRA-LIGAND FREE ENERGY PREDICTED BY IDOCK:   -1.85 KCAL/MOL
REMARK 927      BINDING AFFINITY PREDICTED BY RF-SCORE:    0.00 PKD
ROOT
HETATM    1  C   UNL     1      -9.659   9.610  68.421  1.00  0.00    -0.144 C  
HETATM    2  O   UNL     1      -9.016   7.043  70.434  1.00  0.00    -0.153 OA 
HETATM    3  O   UNL     1      -9.440  10.064  69.764  1.00  0.00    -0.220 OA 
HETATM    4  H   UNL     1      -9.628   6.310  68.097  1.00  0.00     0.000 HD 
HETATM    5  C   UNL     1      -8.288   9.387  70.300  1.00  0.00    -0.195 C  
HETATM    6  H   UNL     1      -9.016   6.184  70.029  1.00  0.00     0.000 HD 
HETATM    7  C   UNL     1      -8.288   8.010  69.651  1.00  0.00    -0.126 C  
HETATM    8  O   UNL     1     -10.016   7.174  68.158  1.00  0.00    -0.143 OA 
HETATM    9  C   UNL     1      -9.026   8.202  68.323  1.00  0.00    -0.136 C  
ENDROOT
BRANCH   1  10
HETATM   10  O   UNL     1      -9.018  10.483  67.488  1.00  0.00    -0.135 OA 
BRANCH  10  11
HETATM   11  C   UNL     1      -9.817  11.033  66.404  1.00  0.00    -0.212 C  
HETATM   12  O   UNL     1      -9.695   8.990  65.100  1.00  0.00    -0.428 OA 
HETATM   13  H2  UNL     1     -11.033  14.924  64.156  1.00  0.00     0.000 HD 
HETATM   14  H   UNL     1      -9.477   8.601  64.260  1.00  0.00     0.000 HD 
HETATM   15  C   UNL     1      -9.464  10.404  65.047  1.00  0.00    -0.253 C  
HETATM   16  H1  UNL     1     -10.842  15.009  65.838  1.00  0.00     0.000 HD 
HETATM   17  C   UNL     1     -10.168  12.457  63.798  1.00  0.00    -0.404 C  
HETATM   18  N   UNL     1      -9.904  10.298  62.632  1.00  0.00    -0.659 NA 
HETATM   19  N   UNL     1     -10.531  14.572  64.970  1.00  0.00    -0.418 NA 
HETATM   20  H1  UNL     1     -10.468  10.658  61.863  1.00  0.00     0.000 HD 
HETATM   21  H2  UNL     1      -9.941   9.280  62.693  1.00  0.00     0.000 HD 
HETATM   22  C   UNL     1     -10.636  13.115  65.102  1.00  0.00    -0.319 C  
HETATM   23  C   UNL     1     -10.312  10.945  63.890  1.00  0.00    -0.329 C  
HETATM   24  C   UNL     1      -9.847  12.590  66.350  1.00  0.00    -0.253 C  
BRANCH  24  25
HETATM   25  O   UNL     1     -10.259  13.186  67.610  1.00  0.00    -0.218 OA 
BRANCH  25  26
HETATM   26  C   UNL     1     -11.639  13.555  67.724  1.00  0.00    -0.339 C  
HETATM   27  O   UNL     1     -12.396  12.530  68.372  1.00  0.00    -0.089 OA 
HETATM   28  C   UNL     1     -12.005  12.328  69.738  1.00  0.00    -0.295 C  
HETATM   29  C   UNL     1     -12.326  13.583  70.561  1.00  0.00    -0.342 C  
HETATM   30  H2  UNL     1     -11.249  16.149  66.911  1.00  0.00     0.000 HD 
HETATM   31  C   UNL     1     -11.565  14.769  69.968  1.00  0.00    -0.286 C  
HETATM   32  O   UNL     1     -11.927  13.483  71.936  1.00  0.00     0.085 OA 
HETATM   33  H1  UNL     1     -11.190  16.931  68.390  1.00  0.00     0.000 HD 
HETATM   34  H   UNL     1     -12.126  14.260  72.445  1.00  0.00     0.000 HD 
HETATM   35  H   UNL     1     -11.481  16.709  70.287  1.00  0.00     0.000 HD 
HETATM   36  N   UNL     1     -11.058  16.042  67.907  1.00  0.00    -0.331 NA 
HETATM   37  O   UNL     1     -11.954  15.972  70.656  1.00  0.00    -0.366 OA 
HETATM   38  C   UNL     1     -11.841  14.914  68.463  1.00  0.00    -0.294 C  
BRANCH  28  39
HETATM   39  C   UNL     1     -12.713  11.057  70.238  1.00  0.00    -0.183 C  
HETATM   40  H2  UNL     1     -11.646  10.872  71.993  1.00  0.00     0.000 HD 
HETATM   41  N   UNL     1     -11.927  10.284  71.209  1.00  0.00    -0.373 NA 
HETATM   42  H1  UNL     1     -12.397   9.442  71.541  1.00  0.00     0.000 HD 
ENDBRANCH  28  39
ENDBRANCH  25  26
ENDBRANCH  24  25
ENDBRANCH  10  11
ENDBRANCH   1  10
BRANCH   5  43
HETATM   43  C   UNL     1      -6.987  10.154  70.030  1.00  0.00    -0.145 C  
HETATM   44  O   UNL     1      -7.285  11.536  69.803  1.00  0.00    -0.353 OA 
HETATM   45  H   UNL     1      -6.479  12.010  69.636  1.00  0.00     0.000 HD 
ENDBRANCH   5  43
TORSDOF 6
ENDMDL
MODEL       59
REMARK 921   NORMALIZED FREE ENERGY PREDICTED BY IDOCK:   -6.11 KCAL/MOL
REMARK 922        TOTAL FREE ENERGY PREDICTED BY IDOCK:   -9.90 KCAL/MOL
REMARK 923 INTER-LIGAND FREE ENERGY PREDICTED BY IDOCK:   -8.34 KCAL/MOL
REMARK 924 INTRA-LIGAND FREE ENERGY PREDICTED BY IDOCK:   -1.56 KCAL/MOL
REMARK 927      BINDING AFFINITY PREDICTED BY RF-SCORE:    0.00 PKD
ROOT
HETATM    1  C   UNL     1     -10.577   8.824  69.778  1.00  0.00    -0.224 C  
HETATM    2  O   UNL     1      -9.450   7.789  72.730  1.00  0.00    -0.173 OA 
HETATM    3  O   UNL     1     -11.224   7.603  70.166  1.00  0.00    -0.254 OA 
HETATM    4  H   UNL     1      -8.207   9.813  71.875  1.00  0.00     0.000 HD 
HETATM    5  C   UNL     1     -11.605   7.701  71.551  1.00  0.00    -0.274 C  
HETATM    6  H   UNL     1      -8.787   8.333  73.138  1.00  0.00     0.000 HD 
HETATM    7  C   UNL     1     -10.541   8.571  72.204  1.00  0.00    -0.349 C  
HETATM    8  O   UNL     1      -8.562   9.431  71.082  1.00  0.00    -0.297 OA 
HETATM    9  C   UNL     1      -9.999   9.447  71.071  1.00  0.00    -0.264 C  
ENDROOT
BRANCH   1  10
HETATM   10  O   UNL     1     -11.522   9.727  69.200  1.00  0.00    -0.066 OA 
BRANCH  10  11
HETATM   11  C   UNL     1     -11.157  11.132  69.104  1.00  0.00    -0.248 C  
HETATM   12  O   UNL     1     -12.399  11.729  71.102  1.00  0.00    -0.324 OA 
HETATM   13  H2  UNL     1     -10.009  14.585  66.200  1.00  0.00     0.000 HD 
HETATM   14  H   UNL     1     -13.060  12.298  71.480  1.00  0.00     0.000 HD 
HETATM   15  C   UNL     1     -12.225  12.052  69.716  1.00  0.00    -0.159 C  
HETATM   16  H1  UNL     1      -9.417  13.035  65.858  1.00  0.00     0.000 HD 
HETATM   17  C   UNL     1     -11.594  13.954  68.213  1.00  0.00    -0.372 C  
HETATM   18  N   UNL     1     -12.930  14.344  70.251  1.00  0.00    -0.484 NA 
HETATM   19  N   UNL     1     -10.184  13.582  66.251  1.00  0.00    -0.292 NA 
HETATM   20  H1  UNL     1     -12.681  15.332  70.210  1.00  0.00     0.000 HD 
HETATM   21  H2  UNL     1     -13.156  14.043  71.200  1.00  0.00     0.000 HD 
HETATM   22  C   UNL     1     -10.442  13.131  67.622  1.00  0.00    -0.221 C  
HETATM   23  C   UNL     1     -11.852  13.538  69.654  1.00  0.00    -0.336 C  
HETATM   24  C   UNL     1     -10.721  11.589  67.679  1.00  0.00    -0.211 C  
BRANCH  24  25
HETATM   25  O   UNL     1      -9.653  10.770  67.131  1.00  0.00    -0.159 OA 
BRANCH  25  26
HETATM   26  C   UNL     1     -10.043   9.729  66.226  1.00  0.00    -0.243 C  
HETATM   27  O   UNL     1     -10.508  10.269  64.987  1.00  0.00    -0.221 OA 
HETATM   28  C   UNL     1      -9.479  10.957  64.259  1.00  0.00    -0.250 C  
HETATM   29  C   UNL     1      -8.393   9.961  63.830  1.00  0.00    -0.172 C  
HETATM   30  H2  UNL     1      -9.031   7.695  67.770  1.00  0.00     0.000 HD 
HETATM   31  C   UNL     1      -7.802   9.308  65.080  1.00  0.00    -0.111 C  
HETATM   32  O   UNL     1      -7.300  10.574  63.130  1.00  0.00    -0.277 OA 
HETATM   33  H1  UNL     1      -7.559   7.438  67.016  1.00  0.00     0.000 HD 
HETATM   34  H   UNL     1      -6.627   9.957  62.864  1.00  0.00     0.000 HD 
HETATM   35  H   UNL     1      -6.503   7.879  65.459  1.00  0.00     0.000 HD 
HETATM   36  N   UNL     1      -8.306   8.112  67.187  1.00  0.00    -0.119 NA 
HETATM   37  O   UNL     1      -6.870   8.286  64.683  1.00  0.00    -0.067 OA 
HETATM   38  C   UNL     1      -8.901   8.698  65.964  1.00  0.00    -0.178 C  
BRANCH  28  39
HETATM   39  C   UNL     1     -10.154  11.686  63.084  1.00  0.00    -0.376 C  
HETATM   40  H2  UNL     1     -11.293  12.968  64.230  1.00  0.00     0.000 HD 
HETATM   41  N   UNL     1     -11.422  12.336  63.441  1.00  0.00    -0.647 NA 
HETATM   42  H1  UNL     1     -11.869  12.820  62.662  1.00  0.00     0.000 HD 
ENDBRANCH  28  39
ENDBRANCH  25  26
ENDBRANCH  24  25
ENDBRANCH  10  11
ENDBRANCH   1  10
BRANCH   5  43
HETATM   43  C   UNL     1     -13.015   8.281  71.725  1.00  0.00    -0.344 C  
HETATM   44  O   UNL     1     -13.918   7.617  70.835  1.00  0.00    -0.632 OA 
HETATM   45  H   UNL     1     -14.791   7.976  70.942  1.00  0.00     0.000 HD 
ENDBRANCH   5  43
TORSDOF 6
ENDMDL
MODEL       60
REMARK 921   NORMALIZED FREE ENERGY PREDICTED BY IDOCK:   -6.09 KCAL/MOL
REMARK 922        TOTAL FREE ENERGY PREDICTED BY IDOCK:   -9.87 KCAL/MOL
REMARK 923 INTER-LIGAND FREE ENERGY PREDICTED BY IDOCK:   -8.09 KCAL/MOL
REMARK 924 INTRA-LIGAND FREE ENERGY PREDICTED BY IDOCK:   -1.78 KCAL/MOL
REMARK 927      BINDING AFFINITY PREDICTED BY RF-SCORE:    0.00 PKD
ROOT
HETATM    1  C   UNL     1      -9.970  12.797  65.469  1.00  0.00    -0.221 C  
HETATM    2  O   UNL     1     -11.329  11.126  62.937  1.00  0.00    -0.798 OA 
HETATM    3  O   UNL     1     -10.108  13.646  64.320  1.00  0.00    -0.313 OA 
HETATM    4  H   UNL     1     -10.851   9.647  64.927  1.00  0.00     0.000 HD 
HETATM    5  C   UNL     1     -11.414  13.444  63.750  1.00  0.00    -0.241 C  
HETATM    6  H   UNL     1     -11.540  10.215  63.103  1.00  0.00     0.000 HD 
HETATM    7  C   UNL     1     -11.751  11.983  64.015  1.00  0.00    -0.410 C  
HETATM    8  O   UNL     1     -10.253  10.374  65.053  1.00  0.00    -0.324 OA 
HETATM    9  C   UNL     1     -10.946  11.615  65.264  1.00  0.00    -0.268 C  
ENDROOT
BRANCH   1  10
HETATM   10  O   UNL     1     -10.329  13.506  66.658  1.00  0.00    -0.264 OA 
BRANCH  10  11
HETATM   11  C   UNL     1      -9.263  14.097  67.452  1.00  0.00    -0.204 C  
HETATM   12  O   UNL     1      -9.271  16.157  66.169  1.00  0.00    -0.298 OA 
HETATM   13  H2  UNL     1      -5.496  13.216  70.041  1.00  0.00     0.000 HD 
HETATM   14  H   UNL     1      -8.753  16.777  65.668  1.00  0.00     0.000 HD 
HETATM   15  C   UNL     1      -8.426  15.100  66.642  1.00  0.00    -0.195 C  
HETATM   16  H1  UNL     1      -6.808  12.151  70.167  1.00  0.00     0.000 HD 
HETATM   17  C   UNL     1      -6.396  14.699  68.053  1.00  0.00    -0.165 C  
HETATM   18  N   UNL     1      -6.558  16.696  66.611  1.00  0.00    -0.252 NA 
HETATM   19  N   UNL     1      -6.279  12.776  69.558  1.00  0.00    -0.116 NA 
HETATM   20  H1  UNL     1      -5.818  17.135  67.158  1.00  0.00     0.000 HD 
HETATM   21  H2  UNL     1      -7.164  17.383  66.163  1.00  0.00     0.000 HD 
HETATM   22  C   UNL     1      -7.192  13.760  68.967  1.00  0.00    -0.063 C  
HETATM   23  C   UNL     1      -7.313  15.761  67.463  1.00  0.00    -0.178 C  
HETATM   24  C   UNL     1      -8.381  13.066  68.219  1.00  0.00    -0.158 C  
BRANCH  24  25
HETATM   25  O   UNL     1      -9.166  12.167  69.049  1.00  0.00     0.148 OA 
BRANCH  25  26
HETATM   26  C   UNL     1      -9.368  10.841  68.546  1.00  0.00    -0.174 C  
HETATM   27  O   UNL     1      -8.292   9.977  68.918  1.00  0.00    -0.115 OA 
HETATM   28  C   UNL     1      -8.208   9.772  70.336  1.00  0.00    -0.082 C  
HETATM   29  C   UNL     1      -9.454   9.022  70.827  1.00  0.00    -0.251 C  
HETATM   30  H2  UNL     1     -11.947  11.303  67.721  1.00  0.00     0.000 HD 
HETATM   31  C   UNL     1     -10.693   9.852  70.491  1.00  0.00    -0.317 C  
HETATM   32  O   UNL     1      -9.473   8.810  72.246  1.00  0.00    -0.293 OA 
HETATM   33  H1  UNL     1     -12.803  10.661  69.008  1.00  0.00     0.000 HD 
HETATM   34  H   UNL     1     -10.244   8.346  72.550  1.00  0.00     0.000 HD 
HETATM   35  H   UNL     1     -12.642   9.618  70.627  1.00  0.00     0.000 HD 
HETATM   36  N   UNL     1     -11.914  11.064  68.712  1.00  0.00    -0.511 NA 
HETATM   37  O   UNL     1     -11.872   9.102  70.836  1.00  0.00    -0.286 OA 
HETATM   38  C   UNL     1     -10.728  10.225  69.000  1.00  0.00    -0.227 C  
BRANCH  28  39
HETATM   39  C   UNL     1      -6.887   9.036  70.619  1.00  0.00    -0.071 C  
HETATM   40  H2  UNL     1      -7.100   8.955  72.669  1.00  0.00     0.000 HD 
HETATM   41  N   UNL     1      -6.388   9.220  71.988  1.00  0.00    -0.285 NA 
HETATM   42  H1  UNL     1      -5.512   8.732  72.175  1.00  0.00     0.000 HD 
ENDBRANCH  28  39
ENDBRANCH  25  26
ENDBRANCH  24  25
ENDBRANCH  10  11
ENDBRANCH   1  10
BRANCH   5  43
HETATM   43  C   UNL     1     -12.460  14.396  64.343  1.00  0.00    -0.312 C  
HETATM   44  O   UNL     1     -12.463  15.623  63.604  1.00  0.00    -0.845 OA 
HETATM   45  H   UNL     1     -13.110  16.213  63.972  1.00  0.00     0.000 HD 
ENDBRANCH   5  43
TORSDOF 6
ENDMDL
MODEL       61
REMARK 921   NORMALIZED FREE ENERGY PREDICTED BY IDOCK:   -6.06 KCAL/MOL
REMARK 922        TOTAL FREE ENERGY PREDICTED BY IDOCK:   -9.82 KCAL/MOL
REMARK 923 INTER-LIGAND FREE ENERGY PREDICTED BY IDOCK:   -8.03 KCAL/MOL
REMARK 924 INTRA-LIGAND FREE ENERGY PREDICTED BY IDOCK:   -1.79 KCAL/MOL
REMARK 927      BINDING AFFINITY PREDICTED BY RF-SCORE:    0.00 PKD
ROOT
HETATM    1  C   UNL     1     -10.709   8.533  70.759  1.00  0.00    -0.217 C  
HETATM    2  O   UNL     1     -11.895   6.323  72.941  1.00  0.00    -0.490 OA 
HETATM    3  O   UNL     1     -10.331   8.891  72.097  1.00  0.00    -0.333 OA 
HETATM    4  H   UNL     1     -12.698   5.886  70.587  1.00  0.00     0.000 HD 
HETATM    5  C   UNL     1      -9.873   7.710  72.779  1.00  0.00    -0.226 C  
HETATM    6  H   UNL     1     -12.402   5.606  72.577  1.00  0.00     0.000 HD 
HETATM    7  C   UNL     1     -10.685   6.562  72.196  1.00  0.00    -0.221 C  
HETATM    8  O   UNL     1     -12.475   6.809  70.569  1.00  0.00    -0.273 OA 
HETATM    9  C   UNL     1     -11.072   7.030  70.791  1.00  0.00    -0.273 C  
ENDROOT
BRANCH   1  10
HETATM   10  O   UNL     1      -9.616   8.737  69.861  1.00  0.00    -0.170 OA 
BRANCH  10  11
HETATM   11  C   UNL     1      -9.911   9.216  68.520  1.00  0.00    -0.164 C  
HETATM   12  O   UNL     1      -9.647   7.015  67.531  1.00  0.00    -0.127 OA 
HETATM   13  H2  UNL     1      -9.720  12.875  65.648  1.00  0.00     0.000 HD 
HETATM   14  H   UNL     1      -9.215   6.497  66.862  1.00  0.00     0.000 HD 
HETATM   15  C   UNL     1      -9.212   8.378  67.438  1.00  0.00    -0.140 C  
HETATM   16  H1  UNL     1     -10.101  13.165  67.273  1.00  0.00     0.000 HD 
HETATM   17  C   UNL     1      -9.147  10.307  65.841  1.00  0.00    -0.194 C  
HETATM   18  N   UNL     1      -8.815   7.995  65.043  1.00  0.00    -0.387 NA 
HETATM   19  N   UNL     1      -9.580  12.585  66.615  1.00  0.00    -0.234 NA 
HETATM   20  H1  UNL     1      -9.027   8.305  64.095  1.00  0.00     0.000 HD 
HETATM   21  H2  UNL     1      -9.016   7.004  65.178  1.00  0.00     0.000 HD 
HETATM   22  C   UNL     1      -9.931  11.178  66.831  1.00  0.00    -0.198 C  
HETATM   23  C   UNL     1      -9.530   8.843  66.012  1.00  0.00    -0.252 C  
HETATM   24  C   UNL     1      -9.697  10.747  68.320  1.00  0.00    -0.164 C  
BRANCH  24  25
HETATM   25  O   UNL     1     -10.423  11.545  69.293  1.00  0.00    -0.153 OA 
BRANCH  25  26
HETATM   26  C   UNL     1     -11.745  11.960  68.925  1.00  0.00    -0.323 C  
HETATM   27  O   UNL     1     -12.728  11.050  69.423  1.00  0.00    -0.279 OA 
HETATM   28  C   UNL     1     -12.788  11.024  70.857  1.00  0.00    -0.301 C  
HETATM   29  C   UNL     1     -13.264  12.386  71.381  1.00  0.00    -0.098 C  
HETATM   30  H2  UNL     1     -10.956  14.411  67.969  1.00  0.00     0.000 HD 
HETATM   31  C   UNL     1     -12.282  13.463  70.917  1.00  0.00    -0.282 C  
HETATM   32  O   UNL     1     -13.312  12.463  72.813  1.00  0.00    -0.479 OA 
HETATM   33  H1  UNL     1     -11.303  15.383  69.287  1.00  0.00     0.000 HD 
HETATM   34  H   UNL     1     -13.607  13.306  73.138  1.00  0.00     0.000 HD 
HETATM   35  H   UNL     1     -12.175  15.425  71.011  1.00  0.00     0.000 HD 
HETATM   36  N   UNL     1     -11.087  14.434  68.980  1.00  0.00    -0.251 NA 
HETATM   37  O   UNL     1     -12.785  14.756  71.299  1.00  0.00    -0.297 OA 
HETATM   38  C   UNL     1     -12.074  13.411  69.395  1.00  0.00    -0.269 C  
BRANCH  28  39
HETATM   39  C   UNL     1     -13.697   9.850  71.260  1.00  0.00    -0.106 C  
HETATM   40  H2  UNL     1     -13.453  10.056  73.298  1.00  0.00     0.000 HD 
HETATM   41  N   UNL     1     -13.414   9.315  72.599  1.00  0.00    -0.670 NA 
HETATM   42  H1  UNL     1     -14.016   8.536  72.866  1.00  0.00     0.000 HD 
ENDBRANCH  28  39
ENDBRANCH  25  26
ENDBRANCH  24  25
ENDBRANCH  10  11
ENDBRANCH   1  10
BRANCH   5  43
HETATM   43  C   UNL     1      -8.363   7.493  72.613  1.00  0.00    -0.117 C  
HETATM   44  O   UNL     1      -7.727   8.747  72.345  1.00  0.00    -0.343 OA 
HETATM   45  H   UNL     1      -6.792   8.614  72.242  1.00  0.00     0.000 HD 
ENDBRANCH   5  43
TORSDOF 6
ENDMDL
MODEL       62
REMARK 921   NORMALIZED FREE ENERGY PREDICTED BY IDOCK:   -6.05 KCAL/MOL
REMARK 922        TOTAL FREE ENERGY PREDICTED BY IDOCK:   -9.82 KCAL/MOL
REMARK 923 INTER-LIGAND FREE ENERGY PREDICTED BY IDOCK:   -7.96 KCAL/MOL
REMARK 924 INTRA-LIGAND FREE ENERGY PREDICTED BY IDOCK:   -1.86 KCAL/MOL
REMARK 927      BINDING AFFINITY PREDICTED BY RF-SCORE:    0.00 PKD
ROOT
HETATM    1  C   UNL     1      -9.822  15.059  67.765  1.00  0.00    -0.220 C  
HETATM    2  O   UNL     1      -9.889  18.175  68.922  1.00  0.00    -0.350 OA 
HETATM    3  O   UNL     1      -9.628  15.074  69.187  1.00  0.00    -0.210 OA 
HETATM    4  H   UNL     1     -10.006  18.076  66.402  1.00  0.00     0.000 HD 
HETATM    5  C   UNL     1     -10.583  15.977  69.775  1.00  0.00    -0.323 C  
HETATM    6  H   UNL     1     -10.024  18.858  68.276  1.00  0.00     0.000 HD 
HETATM    7  C   UNL     1     -10.798  17.072  68.739  1.00  0.00    -0.258 C  
HETATM    8  O   UNL     1      -9.601  17.247  66.630  1.00  0.00    -0.255 OA 
HETATM    9  C   UNL     1     -10.481  16.409  67.396  1.00  0.00    -0.309 C  
ENDROOT
BRANCH   1  10
HETATM   10  O   UNL     1     -10.694  13.989  67.392  1.00  0.00    -0.278 OA 
BRANCH  10  11
HETATM   11  C   UNL     1     -10.289  13.127  66.293  1.00  0.00    -0.287 C  
HETATM   12  O   UNL     1     -11.046  14.699  64.606  1.00  0.00    -0.495 OA 
HETATM   13  H2  UNL     1      -9.619   8.721  64.948  1.00  0.00     0.000 HD 
HETATM   14  H   UNL     1     -11.582  14.829  63.832  1.00  0.00     0.000 HD 
HETATM   15  C   UNL     1     -11.156  13.338  65.042  1.00  0.00    -0.309 C  
HETATM   16  H1  UNL     1      -9.190   9.137  66.534  1.00  0.00     0.000 HD 
HETATM   17  C   UNL     1     -10.767  10.992  64.253  1.00  0.00    -0.348 C  
HETATM   18  N   UNL     1     -11.617  12.720  62.708  1.00  0.00    -0.527 NA 
HETATM   19  N   UNL     1      -9.827   9.308  65.755  1.00  0.00    -0.288 NA 
HETATM   20  H1  UNL     1     -11.335  12.137  61.921  1.00  0.00     0.000 HD 
HETATM   21  H2  UNL     1     -11.650  13.709  62.463  1.00  0.00     0.000 HD 
HETATM   22  C   UNL     1      -9.809  10.737  65.424  1.00  0.00    -0.262 C  
HETATM   23  C   UNL     1     -10.732  12.462  63.857  1.00  0.00    -0.426 C  
HETATM   24  C   UNL     1     -10.145  11.622  66.673  1.00  0.00    -0.208 C  
BRANCH  24  25
HETATM   25  O   UNL     1      -9.260  11.413  67.807  1.00  0.00    -0.152 OA 
BRANCH  25  26
HETATM   26  C   UNL     1      -7.895  11.100  67.506  1.00  0.00    -0.117 C  
HETATM   27  O   UNL     1      -7.086  12.279  67.485  1.00  0.00    -0.116 OA 
HETATM   28  C   UNL     1      -6.994  12.913  68.769  1.00  0.00    -0.103 C  
HETATM   29  C   UNL     1      -6.257  11.992  69.751  1.00  0.00    -0.136 C  
HETATM   30  H2  UNL     1      -8.234   8.382  67.719  1.00  0.00     0.000 HD 
HETATM   31  C   UNL     1      -7.031  10.678  69.870  1.00  0.00    -0.146 C  
HETATM   32  O   UNL     1      -6.156  12.532  71.077  1.00  0.00    -0.540 OA 
HETATM   33  H1  UNL     1      -7.676   8.122  69.275  1.00  0.00     0.000 HD 
HETATM   34  H   UNL     1      -5.700  11.961  71.685  1.00  0.00     0.000 HD 
HETATM   35  H   UNL     1      -6.765   8.946  70.766  1.00  0.00     0.000 HD 
HETATM   36  N   UNL     1      -8.074   8.806  68.632  1.00  0.00    -0.114 NA 
HETATM   37  O   UNL     1      -6.284   9.763  70.693  1.00  0.00    -0.075 OA 
HETATM   38  C   UNL     1      -7.286  10.053  68.490  1.00  0.00    -0.076 C  
BRANCH  28  39
HETATM   39  C   UNL     1      -6.311  14.276  68.563  1.00  0.00    -0.092 C  
HETATM   40  H2  UNL     1      -6.045  14.707  70.562  1.00  0.00     0.000 HD 
HETATM   41  N   UNL     1      -6.406  15.168  69.727  1.00  0.00    -0.144 NA 
HETATM   42  H1  UNL     1      -5.954  16.072  69.590  1.00  0.00     0.000 HD 
ENDBRANCH  28  39
ENDBRANCH  25  26
ENDBRANCH  24  25
ENDBRANCH  10  11
ENDBRANCH   1  10
BRANCH   5  43
HETATM   43  C   UNL     1     -11.893  15.271  70.151  1.00  0.00    -0.323 C  
HETATM   44  O   UNL     1     -11.631  13.890  70.420  1.00  0.00    -0.474 OA 
HETATM   45  H   UNL     1     -12.441  13.453  70.653  1.00  0.00     0.000 HD 
ENDBRANCH   5  43
TORSDOF 6
ENDMDL
MODEL       63
REMARK 921   NORMALIZED FREE ENERGY PREDICTED BY IDOCK:   -6.03 KCAL/MOL
REMARK 922        TOTAL FREE ENERGY PREDICTED BY IDOCK:   -9.79 KCAL/MOL
REMARK 923 INTER-LIGAND FREE ENERGY PREDICTED BY IDOCK:   -8.28 KCAL/MOL
REMARK 924 INTRA-LIGAND FREE ENERGY PREDICTED BY IDOCK:   -1.50 KCAL/MOL
REMARK 927      BINDING AFFINITY PREDICTED BY RF-SCORE:    0.00 PKD
ROOT
HETATM    1  C   UNL     1     -10.430  12.724  67.060  1.00  0.00    -0.237 C  
HETATM    2  O   UNL     1     -12.276  14.393  64.856  1.00  0.00    -0.413 OA 
HETATM    3  O   UNL     1      -9.772  13.937  66.668  1.00  0.00    -0.270 OA 
HETATM    4  H   UNL     1     -13.260  12.141  65.434  1.00  0.00     0.000 HD 
HETATM    5  C   UNL     1     -10.736  15.007  66.671  1.00  0.00    -0.312 C  
HETATM    6  H   UNL     1     -13.102  13.992  64.614  1.00  0.00     0.000 HD 
HETATM    7  C   UNL     1     -12.059  14.363  66.281  1.00  0.00    -0.366 C  
HETATM    8  O   UNL     1     -12.340  12.033  65.647  1.00  0.00    -0.470 OA 
HETATM    9  C   UNL     1     -11.927  12.901  66.714  1.00  0.00    -0.350 C  
ENDROOT
BRANCH   1  10
HETATM   10  O   UNL     1     -10.291  12.515  68.468  1.00  0.00    -0.232 OA 
BRANCH  10  11
HETATM   11  C   UNL     1     -11.193  11.572  69.112  1.00  0.00    -0.274 C  
HETATM   12  O   UNL     1     -12.575  13.333  70.051  1.00  0.00    -0.151 OA 
HETATM   13  H2  UNL     1     -11.567   7.335  71.004  1.00  0.00     0.000 HD 
HETATM   14  H   UNL     1     -12.968  13.693  70.838  1.00  0.00     0.000 HD 
HETATM   15  C   UNL     1     -11.828  12.155  70.385  1.00  0.00    -0.187 C  
HETATM   16  H1  UNL     1     -10.586   7.505  69.634  1.00  0.00     0.000 HD 
HETATM   17  C   UNL     1     -12.104   9.887  71.410  1.00  0.00    -0.501 C  
HETATM   18  N   UNL     1     -13.358  11.826  72.279  1.00  0.00    -0.545 NA 
HETATM   19  N   UNL     1     -10.940   7.946  70.482  1.00  0.00    -0.246 NA 
HETATM   20  H1  UNL     1     -14.009  11.186  72.733  1.00  0.00     0.000 HD 
HETATM   21  H2  UNL     1     -13.785  12.731  72.079  1.00  0.00     0.000 HD 
HETATM   22  C   UNL     1     -11.571   9.224  70.133  1.00  0.00    -0.045 C  
HETATM   23  C   UNL     1     -12.806  11.194  71.069  1.00  0.00    -0.329 C  
HETATM   24  C   UNL     1     -10.588  10.155  69.344  1.00  0.00    -0.237 C  
BRANCH  24  25
HETATM   25  O   UNL     1     -10.059   9.566  68.124  1.00  0.00    -0.166 OA 
BRANCH  25  26
HETATM   26  C   UNL     1      -8.829   8.841  68.243  1.00  0.00    -0.141 C  
HETATM   27  O   UNL     1      -9.004   7.466  67.892  1.00  0.00    -0.132 OA 
HETATM   28  C   UNL     1      -9.351   7.284  66.511  1.00  0.00    -0.170 C  
HETATM   29  C   UNL     1      -8.187   7.735  65.619  1.00  0.00    -0.135 C  
HETATM   30  H2  UNL     1      -7.282  11.077  68.632  1.00  0.00     0.000 HD 
HETATM   31  C   UNL     1      -7.896   9.210  65.896  1.00  0.00    -0.105 C  
HETATM   32  O   UNL     1      -8.465   7.626  64.215  1.00  0.00    -0.368 OA 
HETATM   33  H1  UNL     1      -6.688  11.315  67.086  1.00  0.00     0.000 HD 
HETATM   34  H   UNL     1      -7.744   7.905  63.663  1.00  0.00     0.000 HD 
HETATM   35  H   UNL     1      -6.548  10.526  65.327  1.00  0.00     0.000 HD 
HETATM   36  N   UNL     1      -7.441  10.907  67.639  1.00  0.00    -0.094 NA 
HETATM   37  O   UNL     1      -6.728   9.609  65.155  1.00  0.00    -0.084 OA 
HETATM   38  C   UNL     1      -7.677   9.465  67.396  1.00  0.00    -0.095 C  
BRANCH  28  39
HETATM   39  C   UNL     1      -9.744   5.808  66.324  1.00  0.00    -0.117 C  
HETATM   40  H2  UNL     1     -11.704   6.156  65.785  1.00  0.00     0.000 HD 
HETATM   41  N   UNL     1     -11.188   5.561  66.433  1.00  0.00    -0.678 NA 
HETATM   42  H1  UNL     1     -11.448   4.583  66.309  1.00  0.00     0.000 HD 
ENDBRANCH  28  39
ENDBRANCH  25  26
ENDBRANCH  24  25
ENDBRANCH  10  11
ENDBRANCH   1  10
BRANCH   5  43
HETATM   43  C   UNL     1     -10.814  15.713  68.031  1.00  0.00    -0.308 C  
HETATM   44  O   UNL     1     -12.169  15.707  68.495  1.00  0.00    -0.525 OA 
HETATM   45  H   UNL     1     -12.217  16.144  69.337  1.00  0.00     0.000 HD 
ENDBRANCH   5  43
TORSDOF 6
ENDMDL
MODEL       64
REMARK 921   NORMALIZED FREE ENERGY PREDICTED BY IDOCK:   -6.02 KCAL/MOL
REMARK 922        TOTAL FREE ENERGY PREDICTED BY IDOCK:   -9.78 KCAL/MOL
REMARK 923 INTER-LIGAND FREE ENERGY PREDICTED BY IDOCK:   -8.60 KCAL/MOL
REMARK 924 INTRA-LIGAND FREE ENERGY PREDICTED BY IDOCK:   -1.17 KCAL/MOL
REMARK 927      BINDING AFFINITY PREDICTED BY RF-SCORE:    0.00 PKD
ROOT
HETATM    1  C   UNL     1     -11.563  12.393  67.960  1.00  0.00    -0.347 C  
HETATM    2  O   UNL     1     -12.379  15.589  68.373  1.00  0.00    -0.473 OA 
HETATM    3  O   UNL     1     -12.406  12.841  66.888  1.00  0.00    -0.412 OA 
HETATM    4  H   UNL     1     -11.077  14.663  70.327  1.00  0.00     0.000 HD 
HETATM    5  C   UNL     1     -11.943  14.130  66.444  1.00  0.00    -0.436 C  
HETATM    6  H   UNL     1     -12.028  16.014  69.147  1.00  0.00     0.000 HD 
HETATM    7  C   UNL     1     -11.381  14.810  67.685  1.00  0.00    -0.339 C  
HETATM    8  O   UNL     1     -11.451  13.884  69.932  1.00  0.00    -0.248 OA 
HETATM    9  C   UNL     1     -10.954  13.661  68.603  1.00  0.00    -0.267 C  
ENDROOT
BRANCH   1  10
HETATM   10  O   UNL     1     -10.511  11.567  67.455  1.00  0.00    -0.198 OA 
BRANCH  10  11
HETATM   11  C   UNL     1      -9.214  11.633  68.110  1.00  0.00    -0.184 C  
HETATM   12  O   UNL     1      -8.296  13.132  66.436  1.00  0.00    -0.352 OA 
HETATM   13  H2  UNL     1      -6.187   9.355  70.815  1.00  0.00     0.000 HD 
HETATM   14  H   UNL     1      -7.591  13.289  65.819  1.00  0.00     0.000 HD 
HETATM   15  C   UNL     1      -8.074  11.887  67.112  1.00  0.00    -0.172 C  
HETATM   16  H1  UNL     1      -7.838   9.183  71.157  1.00  0.00     0.000 HD 
HETATM   17  C   UNL     1      -6.402  10.724  68.570  1.00  0.00    -0.050 C  
HETATM   18  N   UNL     1      -5.666  12.225  66.754  1.00  0.00    -0.483 NA 
HETATM   19  N   UNL     1      -7.132   9.320  70.434  1.00  0.00    -0.077 NA 
HETATM   20  H1  UNL     1      -4.751  12.293  67.198  1.00  0.00     0.000 HD 
HETATM   21  H2  UNL     1      -5.875  13.039  66.177  1.00  0.00     0.000 HD 
HETATM   22  C   UNL     1      -7.464  10.519  69.658  1.00  0.00    -0.141 C  
HETATM   23  C   UNL     1      -6.697  11.991  67.779  1.00  0.00    -0.096 C  
HETATM   24  C   UNL     1      -8.914  10.441  69.068  1.00  0.00    -0.179 C  
BRANCH  24  25
HETATM   25  O   UNL     1      -9.953  10.249  70.065  1.00  0.00    -0.208 OA 
BRANCH  25  26
HETATM   26  C   UNL     1     -11.032   9.376  69.707  1.00  0.00    -0.215 C  
HETATM   27  O   UNL     1     -10.614   8.009  69.714  1.00  0.00    -0.234 OA 
HETATM   28  C   UNL     1     -10.247   7.545  71.022  1.00  0.00    -0.190 C  
HETATM   29  C   UNL     1     -11.478   7.546  71.937  1.00  0.00    -0.270 C  
HETATM   30  H2  UNL     1     -12.954  11.335  69.809  1.00  0.00     0.000 HD 
HETATM   31  C   UNL     1     -12.028   8.970  72.022  1.00  0.00    -0.363 C  
HETATM   32  O   UNL     1     -11.192   7.135  73.283  1.00  0.00    -0.536 OA 
HETATM   33  H1  UNL     1     -13.590  11.066  71.334  1.00  0.00     0.000 HD 
HETATM   34  H   UNL     1     -11.954   7.135  73.849  1.00  0.00     0.000 HD 
HETATM   35  H   UNL     1     -13.595   9.844  72.831  1.00  0.00     0.000 HD 
HETATM   36  N   UNL     1     -12.772  10.949  70.735  1.00  0.00    -0.349 NA 
HETATM   37  O   UNL     1     -13.253   8.959  72.779  1.00  0.00    -0.389 OA 
HETATM   38  C   UNL     1     -12.282   9.555  70.624  1.00  0.00    -0.123 C  
BRANCH  28  39
HETATM   39  C   UNL     1      -9.596   6.161  70.855  1.00  0.00    -0.173 C  
HETATM   40  H2  UNL     1      -9.744   5.595  72.833  1.00  0.00     0.000 HD 
HETATM   41  N   UNL     1      -9.035   5.617  72.099  1.00  0.00    -0.137 NA 
HETATM   42  H1  UNL     1      -8.604   4.699  71.989  1.00  0.00     0.000 HD 
ENDBRANCH  28  39
ENDBRANCH  25  26
ENDBRANCH  24  25
ENDBRANCH  10  11
ENDBRANCH   1  10
BRANCH   5  43
HETATM   43  C   UNL     1     -10.900  14.017  65.324  1.00  0.00    -0.347 C  
HETATM   44  O   UNL     1     -11.407  14.634  64.136  1.00  0.00    -0.618 OA 
HETATM   45  H   UNL     1     -10.762  14.564  63.442  1.00  0.00     0.000 HD 
ENDBRANCH   5  43
TORSDOF 6
ENDMDL
MODEL       65
REMARK 921   NORMALIZED FREE ENERGY PREDICTED BY IDOCK:   -6.02 KCAL/MOL
REMARK 922        TOTAL FREE ENERGY PREDICTED BY IDOCK:   -9.77 KCAL/MOL
REMARK 923 INTER-LIGAND FREE ENERGY PREDICTED BY IDOCK:   -9.13 KCAL/MOL
REMARK 924 INTRA-LIGAND FREE ENERGY PREDICTED BY IDOCK:   -0.64 KCAL/MOL
REMARK 927      BINDING AFFINITY PREDICTED BY RF-SCORE:    0.00 PKD
ROOT
HETATM    1  C   UNL     1     -11.854  11.943  68.942  1.00  0.00    -0.307 C  
HETATM    2  O   UNL     1     -11.576  14.670  67.061  1.00  0.00    -0.362 OA 
HETATM    3  O   UNL     1     -12.159  11.645  67.572  1.00  0.00    -0.611 OA 
HETATM    4  H   UNL     1     -11.268  15.155  69.519  1.00  0.00     0.000 HD 
HETATM    5  C   UNL     1     -11.171  12.269  66.732  1.00  0.00    -0.318 C  
HETATM    6  H   UNL     1     -11.324  15.466  67.514  1.00  0.00     0.000 HD 
HETATM    7  C   UNL     1     -10.768  13.545  67.457  1.00  0.00    -0.259 C  
HETATM    8  O   UNL     1     -11.768  14.348  69.522  1.00  0.00    -0.275 OA 
HETATM    9  C   UNL     1     -11.039  13.258  68.936  1.00  0.00    -0.261 C  
ENDROOT
BRANCH   1  10
HETATM   10  O   UNL     1     -11.063  10.899  69.516  1.00  0.00    -0.234 OA 
BRANCH  10  11
HETATM   11  C   UNL     1     -11.746   9.707  69.994  1.00  0.00    -0.023 C  
HETATM   12  O   UNL     1     -13.407  10.988  71.217  1.00  0.00    -0.229 OA 
HETATM   13  H2  UNL     1     -11.240   5.226  71.150  1.00  0.00     0.000 HD 
HETATM   14  H   UNL     1     -13.834  11.131  72.054  1.00  0.00     0.000 HD 
HETATM   15  C   UNL     1     -12.437   9.939  71.347  1.00  0.00    -0.398 C  
HETATM   16  H1  UNL     1     -10.355   5.806  69.826  1.00  0.00     0.000 HD 
HETATM   17  C   UNL     1     -12.239   7.523  71.978  1.00  0.00    -0.314 C  
HETATM   18  N   UNL     1     -13.812   9.013  73.161  1.00  0.00    -1.177 NA 
HETATM   19  N   UNL     1     -10.759   6.025  70.737  1.00  0.00    -0.260 NA 
HETATM   20  H1  UNL     1     -14.312   8.193  73.503  1.00  0.00     0.000 HD 
HETATM   21  H2  UNL     1     -14.410   9.838  73.116  1.00  0.00     0.000 HD 
HETATM   22  C   UNL     1     -11.633   7.195  70.607  1.00  0.00    -0.314 C  
HETATM   23  C   UNL     1     -13.190   8.707  71.862  1.00  0.00    -0.375 C  
HETATM   24  C   UNL     1     -10.873   8.416  69.984  1.00  0.00    -0.225 C  
BRANCH  24  25
HETATM   25  O   UNL     1     -10.284   8.150  68.682  1.00  0.00    -0.199 OA 
BRANCH  25  26
HETATM   26  C   UNL     1      -9.020   7.473  68.677  1.00  0.00    -0.132 C  
HETATM   27  O   UNL     1      -9.113   6.211  68.013  1.00  0.00    -0.117 OA 
HETATM   28  C   UNL     1      -9.414   6.338  66.615  1.00  0.00    -0.152 C  
HETATM   29  C   UNL     1      -8.252   7.036  65.895  1.00  0.00    -0.133 C  
HETATM   30  H2  UNL     1      -7.606   9.627  69.628  1.00  0.00     0.000 HD 
HETATM   31  C   UNL     1      -8.048   8.419  66.514  1.00  0.00    -0.101 C  
HETATM   32  O   UNL     1      -8.488   7.243  64.494  1.00  0.00    -0.353 OA 
HETATM   33  H1  UNL     1      -6.985  10.244  68.201  1.00  0.00     0.000 HD 
HETATM   34  H   UNL     1      -7.769   7.675  64.049  1.00  0.00     0.000 HD 
HETATM   35  H   UNL     1      -6.757   9.891  66.315  1.00  0.00     0.000 HD 
HETATM   36  N   UNL     1      -7.729   9.685  68.617  1.00  0.00    -0.080 NA 
HETATM   37  O   UNL     1      -6.884   9.032  65.930  1.00  0.00    -0.077 OA 
HETATM   38  C   UNL     1      -7.881   8.329  68.040  1.00  0.00    -0.118 C  
BRANCH  28  39
HETATM   39  C   UNL     1      -9.722   4.929  66.079  1.00  0.00    -0.188 C  
HETATM   40  H2  UNL     1     -11.330   5.473  64.908  1.00  0.00     0.000 HD 
HETATM   41  N   UNL     1     -11.103   4.765  65.606  1.00  0.00    -0.926 NA 
HETATM   42  H1  UNL     1     -11.307   3.831  65.250  1.00  0.00     0.000 HD 
ENDBRANCH  28  39
ENDBRANCH  25  26
ENDBRANCH  24  25
ENDBRANCH  10  11
ENDBRANCH   1  10
BRANCH   5  43
HETATM   43  C   UNL     1      -9.971  11.350  66.466  1.00  0.00    -0.211 C  
HETATM   44  O   UNL     1      -8.876  12.126  65.968  1.00  0.00    -0.403 OA 
HETATM   45  H   UNL     1      -8.133  11.557  65.804  1.00  0.00     0.000 HD 
ENDBRANCH   5  43
TORSDOF 6
ENDMDL
MODEL       66
REMARK 921   NORMALIZED FREE ENERGY PREDICTED BY IDOCK:   -6.00 KCAL/MOL
REMARK 922        TOTAL FREE ENERGY PREDICTED BY IDOCK:   -9.75 KCAL/MOL
REMARK 923 INTER-LIGAND FREE ENERGY PREDICTED BY IDOCK:   -8.01 KCAL/MOL
REMARK 924 INTRA-LIGAND FREE ENERGY PREDICTED BY IDOCK:   -1.75 KCAL/MOL
REMARK 927      BINDING AFFINITY PREDICTED BY RF-SCORE:    0.00 PKD
ROOT
HETATM    1  C   UNL     1      -8.834   7.395  70.894  1.00  0.00    -0.148 C  
HETATM    2  O   UNL     1      -6.847   6.483  73.399  1.00  0.00    -0.076 OA 
HETATM    3  O   UNL     1      -8.449   6.020  70.758  1.00  0.00    -0.127 OA 
HETATM    4  H   UNL     1      -7.393   8.948  73.445  1.00  0.00     0.000 HD 
HETATM    5  C   UNL     1      -8.570   5.377  72.040  1.00  0.00    -0.131 C  
HETATM    6  H   UNL     1      -6.647   7.155  74.040  1.00  0.00     0.000 HD 
HETATM    7  C   UNL     1      -8.249   6.453  73.067  1.00  0.00    -0.116 C  
HETATM    8  O   UNL     1      -7.533   8.716  72.535  1.00  0.00    -0.300 OA 
HETATM    9  C   UNL     1      -8.606   7.773  72.377  1.00  0.00    -0.132 C  
ENDROOT
BRANCH   1  10
HETATM   10  O   UNL     1     -10.217   7.561  70.572  1.00  0.00    -0.199 OA 
BRANCH  10  11
HETATM   11  C   UNL     1     -10.916   8.711  71.123  1.00  0.00    -0.260 C  
HETATM   12  O   UNL     1     -11.941   7.406  72.895  1.00  0.00    -0.557 OA 
HETATM   13  H2  UNL     1     -12.826  12.843  70.147  1.00  0.00     0.000 HD 
HETATM   14  H   UNL     1     -12.752   7.160  73.326  1.00  0.00     0.000 HD 
HETATM   15  C   UNL     1     -12.226   8.312  71.821  1.00  0.00    -0.326 C  
HETATM   16  H1  UNL     1     -11.396  12.422  69.340  1.00  0.00     0.000 HD 
HETATM   17  C   UNL     1     -13.265  10.546  71.370  1.00  0.00    -0.441 C  
HETATM   18  N   UNL     1     -14.212   9.034  73.075  1.00  0.00    -1.154 NA 
HETATM   19  N   UNL     1     -12.266  12.086  69.755  1.00  0.00    -0.208 NA 
HETATM   20  H1  UNL     1     -14.707   9.826  73.485  1.00  0.00     0.000 HD 
HETATM   21  H2  UNL     1     -14.040   8.294  73.756  1.00  0.00     0.000 HD 
HETATM   22  C   UNL     1     -11.958  11.050  70.746  1.00  0.00    -0.333 C  
HETATM   23  C   UNL     1     -12.970   9.503  72.438  1.00  0.00    -0.317 C  
HETATM   24  C   UNL     1     -11.108   9.890  70.123  1.00  0.00    -0.296 C  
BRANCH  24  25
HETATM   25  O   UNL     1      -9.858  10.323  69.522  1.00  0.00    -0.224 OA 
BRANCH  25  26
HETATM   26  C   UNL     1      -9.583   9.846  68.198  1.00  0.00    -0.139 C  
HETATM   27  O   UNL     1     -10.486  10.414  67.247  1.00  0.00    -0.221 OA 
HETATM   28  C   UNL     1     -10.333  11.834  67.113  1.00  0.00    -0.215 C  
HETATM   29  C   UNL     1      -8.950  12.155  66.529  1.00  0.00    -0.179 C  
HETATM   30  H2  UNL     1      -7.226   8.614  68.886  1.00  0.00     0.000 HD 
HETATM   31  C   UNL     1      -7.878  11.599  67.466  1.00  0.00    -0.137 C  
HETATM   32  O   UNL     1      -8.695  13.561  66.400  1.00  0.00    -0.438 OA 
HETATM   33  H1  UNL     1      -6.120   9.777  68.413  1.00  0.00     0.000 HD 
HETATM   34  H   UNL     1      -7.839  13.759  66.038  1.00  0.00     0.000 HD 
HETATM   35  H   UNL     1      -5.917  11.440  67.450  1.00  0.00     0.000 HD 
HETATM   36  N   UNL     1      -7.083   9.607  68.701  1.00  0.00    -0.071 NA 
HETATM   37  O   UNL     1      -6.583  11.786  66.867  1.00  0.00    -0.144 OA 
HETATM   38  C   UNL     1      -8.109  10.107  67.757  1.00  0.00    -0.109 C  
BRANCH  28  39
HETATM   39  C   UNL     1     -11.504  12.346  66.257  1.00  0.00    -0.371 C  
HETATM   40  H2  UNL     1     -10.619  12.009  64.425  1.00  0.00     0.000 HD 
HETATM   41  N   UNL     1     -11.112  12.763  64.904  1.00  0.00    -0.283 NA 
HETATM   42  H1  UNL     1     -11.889  13.102  64.336  1.00  0.00     0.000 HD 
ENDBRANCH  28  39
ENDBRANCH  25  26
ENDBRANCH  24  25
ENDBRANCH  10  11
ENDBRANCH   1  10
BRANCH   5  43
HETATM   43  C   UNL     1      -9.963   4.769  72.255  1.00  0.00    -0.178 C  
HETATM   44  O   UNL     1     -10.375   4.986  73.609  1.00  0.00    -0.179 OA 
HETATM   45  H   UNL     1     -11.237   4.610  73.742  1.00  0.00     0.000 HD 
ENDBRANCH   5  43
TORSDOF 6
ENDMDL
MODEL       67
REMARK 921   NORMALIZED FREE ENERGY PREDICTED BY IDOCK:   -5.97 KCAL/MOL
REMARK 922        TOTAL FREE ENERGY PREDICTED BY IDOCK:   -9.70 KCAL/MOL
REMARK 923 INTER-LIGAND FREE ENERGY PREDICTED BY IDOCK:   -8.18 KCAL/MOL
REMARK 924 INTRA-LIGAND FREE ENERGY PREDICTED BY IDOCK:   -1.52 KCAL/MOL
REMARK 927      BINDING AFFINITY PREDICTED BY RF-SCORE:    0.00 PKD
ROOT
HETATM    1  C   UNL     1      -8.739  12.222  67.248  1.00  0.00    -0.188 C  
HETATM    2  O   UNL     1      -9.922   9.481  68.709  1.00  0.00    -0.164 OA 
HETATM    3  O   UNL     1      -7.795  11.147  67.143  1.00  0.00    -0.126 OA 
HETATM    4  H   UNL     1     -11.429  11.480  69.039  1.00  0.00     0.000 HD 
HETATM    5  C   UNL     1      -8.498   9.950  66.762  1.00  0.00    -0.125 C  
HETATM    6  H   UNL     1     -10.783   9.556  69.103  1.00  0.00     0.000 HD 
HETATM    7  C   UNL     1      -9.877  10.070  67.395  1.00  0.00    -0.185 C  
HETATM    8  O   UNL     1     -10.584  11.876  68.861  1.00  0.00    -0.217 OA 
HETATM    9  C   UNL     1     -10.114  11.576  67.537  1.00  0.00    -0.183 C  
ENDROOT
BRANCH   1  10
HETATM   10  O   UNL     1      -8.807  12.948  66.018  1.00  0.00     0.158 OA 
BRANCH  10  11
HETATM   11  C   UNL     1      -9.921  13.862  65.823  1.00  0.00    -0.284 C  
HETATM   12  O   UNL     1     -11.247  12.204  64.646  1.00  0.00    -0.305 OA 
HETATM   13  H2  UNL     1     -11.154  18.323  65.316  1.00  0.00     0.000 HD 
HETATM   14  H   UNL     1     -11.743  12.002  63.861  1.00  0.00     0.000 HD 
HETATM   15  C   UNL     1     -10.723  13.536  64.553  1.00  0.00    -0.418 C  
HETATM   16  H1  UNL     1      -9.907  17.966  66.407  1.00  0.00     0.000 HD 
HETATM   17  C   UNL     1     -11.458  15.914  64.282  1.00  0.00    -0.197 C  
HETATM   18  N   UNL     1     -12.625  14.089  63.100  1.00  0.00    -0.956 NA 
HETATM   19  N   UNL     1     -10.369  17.710  65.534  1.00  0.00    -0.632 NA 
HETATM   20  H1  UNL     1     -13.423  14.708  62.957  1.00  0.00     0.000 HD 
HETATM   21  H2  UNL     1     -12.896  13.106  63.095  1.00  0.00     0.000 HD 
HETATM   22  C   UNL     1     -10.764  16.299  65.595  1.00  0.00    -0.286 C  
HETATM   23  C   UNL     1     -11.922  14.466  64.338  1.00  0.00    -0.452 C  
HETATM   24  C   UNL     1      -9.543  15.371  65.918  1.00  0.00    -0.351 C  
BRANCH  24  25
HETATM   25  O   UNL     1      -8.856  15.699  67.156  1.00  0.00    -0.187 OA 
BRANCH  25  26
HETATM   26  C   UNL     1      -7.429  15.807  67.088  1.00  0.00    -0.224 C  
HETATM   27  O   UNL     1      -7.032  16.883  66.235  1.00  0.00    -0.227 OA 
HETATM   28  C   UNL     1      -7.426  18.168  66.739  1.00  0.00    -0.216 C  
HETATM   29  C   UNL     1      -6.686  18.461  68.051  1.00  0.00    -0.215 C  
HETATM   30  H2  UNL     1      -6.968  14.003  69.108  1.00  0.00     0.000 HD 
HETATM   31  C   UNL     1      -7.032  17.371  69.066  1.00  0.00    -0.238 C  
HETATM   32  O   UNL     1      -7.054  19.713  68.648  1.00  0.00    -0.310 OA 
HETATM   33  H1  UNL     1      -6.723  15.040  70.398  1.00  0.00     0.000 HD 
HETATM   34  H   UNL     1      -6.595  19.894  69.461  1.00  0.00     0.000 HD 
HETATM   35  H   UNL     1      -6.464  16.892  70.888  1.00  0.00     0.000 HD 
HETATM   36  N   UNL     1      -7.154  14.934  69.480  1.00  0.00    -0.174 NA 
HETATM   37  O   UNL     1      -6.248  17.569  70.257  1.00  0.00    -0.048 OA 
HETATM   38  C   UNL     1      -6.769  15.970  68.493  1.00  0.00    -0.124 C  
BRANCH  28  39
HETATM   39  C   UNL     1      -7.160  19.200  65.630  1.00  0.00    -0.232 C  
HETATM   40  H2  UNL     1      -7.608  20.870  66.755  1.00  0.00     0.000 HD 
HETATM   41  N   UNL     1      -7.842  20.484  65.840  1.00  0.00    -0.523 NA 
HETATM   42  H1  UNL     1      -7.666  21.169  65.105  1.00  0.00     0.000 HD 
ENDBRANCH  28  39
ENDBRANCH  25  26
ENDBRANCH  24  25
ENDBRANCH  10  11
ENDBRANCH   1  10
BRANCH   5  43
HETATM   43  C   UNL     1      -8.573   9.781  65.238  1.00  0.00    -0.153 C  
HETATM   44  O   UNL     1      -9.917   9.469  64.858  1.00  0.00    -0.396 OA 
HETATM   45  H   UNL     1      -9.964   9.364  63.915  1.00  0.00     0.000 HD 
ENDBRANCH   5  43
TORSDOF 6
ENDMDL
MODEL       68
REMARK 921   NORMALIZED FREE ENERGY PREDICTED BY IDOCK:   -5.96 KCAL/MOL
REMARK 922        TOTAL FREE ENERGY PREDICTED BY IDOCK:   -9.70 KCAL/MOL
REMARK 923 INTER-LIGAND FREE ENERGY PREDICTED BY IDOCK:   -8.83 KCAL/MOL
REMARK 924 INTRA-LIGAND FREE ENERGY PREDICTED BY IDOCK:   -0.87 KCAL/MOL
REMARK 927      BINDING AFFINITY PREDICTED BY RF-SCORE:    0.00 PKD
ROOT
HETATM    1  C   UNL     1      -8.972  12.467  68.115  1.00  0.00    -0.196 C  
HETATM    2  O   UNL     1      -8.757   9.894  70.210  1.00  0.00    -0.309 OA 
HETATM    3  O   UNL     1      -7.600  12.180  68.424  1.00  0.00    -0.116 OA 
HETATM    4  H   UNL     1     -11.144  10.602  69.787  1.00  0.00     0.000 HD 
HETATM    5  C   UNL     1      -7.398  10.756  68.353  1.00  0.00    -0.092 C  
HETATM    6  H   UNL     1      -9.581   9.507  70.482  1.00  0.00     0.000 HD 
HETATM    7  C   UNL     1      -8.718  10.137  68.790  1.00  0.00    -0.138 C  
HETATM    8  O   UNL     1     -10.649  11.385  69.579  1.00  0.00    -0.128 OA 
HETATM    9  C   UNL     1      -9.777  11.190  68.454  1.00  0.00    -0.191 C  
ENDROOT
BRANCH   1  10
HETATM   10  O   UNL     1      -9.119  12.763  66.724  1.00  0.00    -0.217 OA 
BRANCH  10  11
HETATM   11  C   UNL     1     -10.329  13.445  66.293  1.00  0.00    -0.291 C  
HETATM   12  O   UNL     1     -11.655  11.413  66.353  1.00  0.00    -0.369 OA 
HETATM   13  H2  UNL     1     -12.026  17.022  63.844  1.00  0.00     0.000 HD 
HETATM   14  H   UNL     1     -12.239  10.837  65.873  1.00  0.00     0.000 HD 
HETATM   15  C   UNL     1     -11.274  12.514  65.517  1.00  0.00    -0.314 C  
HETATM   16  H1  UNL     1     -10.606  17.276  64.734  1.00  0.00     0.000 HD 
HETATM   17  C   UNL     1     -12.256  14.421  64.224  1.00  0.00    -0.450 C  
HETATM   18  N   UNL     1     -13.411  12.243  64.335  1.00  0.00    -0.632 NA 
HETATM   19  N   UNL     1     -11.164  16.609  64.201  1.00  0.00    -1.039 NA 
HETATM   20  H1  UNL     1     -14.274  12.700  64.042  1.00  0.00     0.000 HD 
HETATM   21  H2  UNL     1     -13.588  11.392  64.870  1.00  0.00     0.000 HD 
HETATM   22  C   UNL     1     -11.416  15.423  65.026  1.00  0.00    -0.263 C  
HETATM   23  C   UNL     1     -12.572  13.200  65.076  1.00  0.00    -0.438 C  
HETATM   24  C   UNL     1     -10.081  14.795  65.554  1.00  0.00    -0.380 C  
BRANCH  24  25
HETATM   25  O   UNL     1      -9.253  15.710  66.322  1.00  0.00    -0.275 OA 
BRANCH  25  26
HETATM   26  C   UNL     1      -9.622  15.912  67.692  1.00  0.00    -0.221 C  
HETATM   27  O   UNL     1      -8.629  15.387  68.577  1.00  0.00    -0.158 OA 
HETATM   28  C   UNL     1      -7.375  16.078  68.478  1.00  0.00    -0.146 C  
HETATM   29  C   UNL     1      -7.543  17.529  68.949  1.00  0.00    -0.225 C  
HETATM   30  H2  UNL     1     -11.750  17.549  67.116  1.00  0.00     0.000 HD 
HETATM   31  C   UNL     1      -8.589  18.215  68.070  1.00  0.00    -0.265 C  
HETATM   32  O   UNL     1      -6.341  18.308  68.843  1.00  0.00    -0.208 OA 
HETATM   33  H1  UNL     1     -11.057  19.054  67.355  1.00  0.00     0.000 HD 
HETATM   34  H   UNL     1      -6.446  19.206  69.134  1.00  0.00     0.000 HD 
HETATM   35  H   UNL     1      -9.493  19.963  68.034  1.00  0.00     0.000 HD 
HETATM   36  N   UNL     1     -10.877  18.074  67.136  1.00  0.00    -0.252 NA 
HETATM   37  O   UNL     1      -8.842  19.537  68.580  1.00  0.00    -0.367 OA 
HETATM   38  C   UNL     1      -9.898  17.411  68.028  1.00  0.00    -0.288 C  
BRANCH  28  39
HETATM   39  C   UNL     1      -6.341  15.277  69.287  1.00  0.00    -0.126 C  
HETATM   40  H2  UNL     1      -7.660  13.873  70.025  1.00  0.00     0.000 HD 
HETATM   41  N   UNL     1      -6.926  14.487  70.379  1.00  0.00    -0.348 NA 
HETATM   42  H1  UNL     1      -6.240  13.955  70.915  1.00  0.00     0.000 HD 
ENDBRANCH  28  39
ENDBRANCH  25  26
ENDBRANCH  24  25
ENDBRANCH  10  11
ENDBRANCH   1  10
BRANCH   5  43
HETATM   43  C   UNL     1      -6.980  10.299  66.949  1.00  0.00    -0.091 C  
HETATM   44  O   UNL     1      -6.243  11.344  66.306  1.00  0.00    -0.299 OA 
HETATM   45  H   UNL     1      -5.984  11.061  65.437  1.00  0.00     0.000 HD 
ENDBRANCH   5  43
TORSDOF 6
ENDMDL
MODEL       69
REMARK 921   NORMALIZED FREE ENERGY PREDICTED BY IDOCK:   -5.94 KCAL/MOL
REMARK 922        TOTAL FREE ENERGY PREDICTED BY IDOCK:   -9.66 KCAL/MOL
REMARK 923 INTER-LIGAND FREE ENERGY PREDICTED BY IDOCK:   -8.27 KCAL/MOL
REMARK 924 INTRA-LIGAND FREE ENERGY PREDICTED BY IDOCK:   -1.39 KCAL/MOL
REMARK 927      BINDING AFFINITY PREDICTED BY RF-SCORE:    0.00 PKD
ROOT
HETATM    1  C   UNL     1      -8.018  17.042  66.424  1.00  0.00    -0.307 C  
HETATM    2  O   UNL     1      -9.522  19.940  67.054  1.00  0.00    -0.337 OA 
HETATM    3  O   UNL     1      -7.617  18.037  65.471  1.00  0.00    -0.530 OA 
HETATM    4  H   UNL     1     -10.339  18.079  68.552  1.00  0.00     0.000 HD 
HETATM    5  C   UNL     1      -7.330  19.261  66.172  1.00  0.00    -0.272 C  
HETATM    6  H   UNL     1     -10.113  19.951  67.797  1.00  0.00     0.000 HD 
HETATM    7  C   UNL     1      -8.279  19.279  67.363  1.00  0.00    -0.282 C  
HETATM    8  O   UNL     1      -9.994  17.612  67.801  1.00  0.00    -0.290 OA 
HETATM    9  C   UNL     1      -8.579  17.804  67.647  1.00  0.00    -0.230 C  
ENDROOT
BRANCH   1  10
HETATM   10  O   UNL     1      -6.894  16.258  66.830  1.00  0.00    -0.199 OA 
BRANCH  10  11
HETATM   11  C   UNL     1      -7.050  15.379  67.978  1.00  0.00    -0.125 C  
HETATM   12  O   UNL     1      -6.231  17.049  69.537  1.00  0.00    -0.218 OA 
HETATM   13  H2  UNL     1      -7.069  10.952  69.418  1.00  0.00     0.000 HD 
HETATM   14  H   UNL     1      -5.608  17.247  70.227  1.00  0.00     0.000 HD 
HETATM   15  C   UNL     1      -6.043  15.698  69.094  1.00  0.00    -0.112 C  
HETATM   16  H1  UNL     1      -7.756  11.295  67.907  1.00  0.00     0.000 HD 
HETATM   17  C   UNL     1      -6.075  13.340  69.937  1.00  0.00    -0.125 C  
HETATM   18  N   UNL     1      -5.200  15.172  71.341  1.00  0.00    -0.131 NA 
HETATM   19  N   UNL     1      -7.037  11.543  68.588  1.00  0.00    -0.090 NA 
HETATM   20  H1  UNL     1      -5.308  14.577  72.162  1.00  0.00     0.000 HD 
HETATM   21  H2  UNL     1      -5.235  16.164  71.577  1.00  0.00     0.000 HD 
HETATM   22  C   UNL     1      -7.155  12.968  68.914  1.00  0.00    -0.068 C  
HETATM   23  C   UNL     1      -6.205  14.805  70.329  1.00  0.00    -0.167 C  
HETATM   24  C   UNL     1      -7.091  13.861  67.627  1.00  0.00    -0.177 C  
BRANCH  24  25
HETATM   25  O   UNL     1      -8.099  13.543  66.630  1.00  0.00     0.162 OA 
BRANCH  25  26
HETATM   26  C   UNL     1      -9.424  13.293  67.114  1.00  0.00    -0.240 C  
HETATM   27  O   UNL     1     -10.292  14.395  66.837  1.00  0.00    -0.261 OA 
HETATM   28  C   UNL     1     -10.498  14.601  65.431  1.00  0.00    -0.380 C  
HETATM   29  C   UNL     1     -11.244  13.399  64.835  1.00  0.00    -0.331 C  
HETATM   30  H2  UNL     1      -8.953  10.654  67.712  1.00  0.00     0.000 HD 
HETATM   31  C   UNL     1     -10.410  12.139  65.062  1.00  0.00    -0.287 C  
HETATM   32  O   UNL     1     -11.456  13.503  63.419  1.00  0.00    -0.588 OA 
HETATM   33  H1  UNL     1      -9.592   9.911  66.356  1.00  0.00     0.000 HD 
HETATM   34  H   UNL     1     -11.918  12.759  63.050  1.00  0.00     0.000 HD 
HETATM   35  H   UNL     1     -10.637  10.208  64.758  1.00  0.00     0.000 HD 
HETATM   36  N   UNL     1      -9.192  10.772  66.728  1.00  0.00    -0.156 NA 
HETATM   37  O   UNL     1     -11.155  10.991  64.616  1.00  0.00    -0.182 OA 
HETATM   38  C   UNL     1     -10.036  11.976  66.544  1.00  0.00    -0.204 C  
BRANCH  28  39
HETATM   39  C   UNL     1     -11.239  15.939  65.265  1.00  0.00    -0.153 C  
HETATM   40  H2  UNL     1     -11.888  15.606  63.335  1.00  0.00     0.000 HD 
HETATM   41  N   UNL     1     -11.422  16.343  63.864  1.00  0.00    -1.618 NA 
HETATM   42  H1  UNL     1     -11.914  17.231  63.754  1.00  0.00     0.000 HD 
ENDBRANCH  28  39
ENDBRANCH  25  26
ENDBRANCH  24  25
ENDBRANCH  10  11
ENDBRANCH   1  10
BRANCH   5  43
HETATM   43  C   UNL     1      -5.860  19.353  66.602  1.00  0.00    -0.165 C  
HETATM   44  O   UNL     1      -5.787  19.496  68.025  1.00  0.00    -0.205 OA 
HETATM   45  H   UNL     1      -4.877  19.553  68.292  1.00  0.00     0.000 HD 
ENDBRANCH   5  43
TORSDOF 6
ENDMDL
MODEL       70
REMARK 921   NORMALIZED FREE ENERGY PREDICTED BY IDOCK:   -5.92 KCAL/MOL
REMARK 922        TOTAL FREE ENERGY PREDICTED BY IDOCK:   -9.63 KCAL/MOL
REMARK 923 INTER-LIGAND FREE ENERGY PREDICTED BY IDOCK:   -7.59 KCAL/MOL
REMARK 924 INTRA-LIGAND FREE ENERGY PREDICTED BY IDOCK:   -2.05 KCAL/MOL
REMARK 927      BINDING AFFINITY PREDICTED BY RF-SCORE:    0.00 PKD
ROOT
HETATM    1  C   UNL     1      -8.078   8.621  67.145  1.00  0.00    -0.100 C  
HETATM    2  O   UNL     1      -5.336   6.900  67.902  1.00  0.00    -0.014 OA 
HETATM    3  O   UNL     1      -7.309   8.352  65.964  1.00  0.00    -0.072 OA 
HETATM    4  H   UNL     1      -6.634   7.601  69.950  1.00  0.00     0.000 HD 
HETATM    5  C   UNL     1      -6.883   6.978  65.993  1.00  0.00    -0.057 C  
HETATM    6  H   UNL     1      -5.214   6.691  68.820  1.00  0.00     0.000 HD 
HETATM    7  C   UNL     1      -6.686   6.644  67.465  1.00  0.00    -0.067 C  
HETATM    8  O   UNL     1      -6.915   8.228  69.295  1.00  0.00    -0.056 OA 
HETATM    9  C   UNL     1      -7.620   7.599  68.212  1.00  0.00    -0.114 C  
ENDROOT
BRANCH   1  10
HETATM   10  O   UNL     1      -9.472   8.439  66.885  1.00  0.00    -0.159 OA 
BRANCH  10  11
HETATM   11  C   UNL     1     -10.261   9.608  66.530  1.00  0.00    -0.224 C  
HETATM   12  O   UNL     1      -9.437   9.636  64.247  1.00  0.00    -0.411 OA 
HETATM   13  H2  UNL     1     -12.227  13.514  68.131  1.00  0.00     0.000 HD 
HETATM   14  H   UNL     1      -9.026  10.151  63.562  1.00  0.00     0.000 HD 
HETATM   15  C   UNL     1      -9.597  10.441  65.423  1.00  0.00    -0.246 C  
HETATM   16  H1  UNL     1     -12.260  12.145  69.129  1.00  0.00     0.000 HD 
HETATM   17  C   UNL     1     -10.686  12.553  66.216  1.00  0.00    -0.288 C  
HETATM   18  N   UNL     1      -9.710  12.408  63.954  1.00  0.00    -0.608 NA 
HETATM   19  N   UNL     1     -11.744  12.663  68.418  1.00  0.00    -0.318 NA 
HETATM   20  H1  UNL     1     -10.259  13.222  63.678  1.00  0.00     0.000 HD 
HETATM   21  H2  UNL     1      -9.475  11.815  63.157  1.00  0.00     0.000 HD 
HETATM   22  C   UNL     1     -11.462  11.774  67.286  1.00  0.00    -0.303 C  
HETATM   23  C   UNL     1     -10.421  11.665  65.008  1.00  0.00    -0.285 C  
HETATM   24  C   UNL     1     -10.708  10.478  67.744  1.00  0.00    -0.272 C  
BRANCH  24  25
HETATM   25  O   UNL     1     -11.409   9.707  68.757  1.00  0.00    -0.032 OA 
BRANCH  25  26
HETATM   26  C   UNL     1     -10.781   9.614  70.041  1.00  0.00    -0.259 C  
HETATM   27  O   UNL     1     -11.286  10.607  70.937  1.00  0.00    -0.253 OA 
HETATM   28  C   UNL     1     -12.675  10.423  71.246  1.00  0.00    -0.432 C  
HETATM   29  C   UNL     1     -12.865   9.112  72.022  1.00  0.00    -0.408 C  
HETATM   30  H2  UNL     1      -9.519   7.234  69.504  1.00  0.00     0.000 HD 
HETATM   31  C   UNL     1     -12.362   7.952  71.162  1.00  0.00    -0.230 C  
HETATM   32  O   UNL     1     -14.236   8.827  72.336  1.00  0.00    -0.493 OA 
HETATM   33  H1  UNL     1     -10.571   6.155  70.233  1.00  0.00     0.000 HD 
HETATM   34  H   UNL     1     -14.354   8.015  72.817  1.00  0.00     0.000 HD 
HETATM   35  H   UNL     1     -12.110   6.015  71.393  1.00  0.00     0.000 HD 
HETATM   36  N   UNL     1     -10.478   7.081  69.815  1.00  0.00    -0.212 NA 
HETATM   37  O   UNL     1     -12.422   6.735  71.927  1.00  0.00    -0.346 OA 
HETATM   38  C   UNL     1     -10.923   8.197  70.681  1.00  0.00    -0.244 C  
BRANCH  28  39
HETATM   39  C   UNL     1     -13.149  11.672  72.009  1.00  0.00    -0.328 C  
HETATM   40  H2  UNL     1     -13.104  12.959  70.397  1.00  0.00     0.000 HD 
HETATM   41  N   UNL     1     -12.775  12.937  71.362  1.00  0.00    -0.330 NA 
HETATM   42  H1  UNL     1     -13.089  13.766  71.868  1.00  0.00     0.000 HD 
ENDBRANCH  28  39
ENDBRANCH  25  26
ENDBRANCH  24  25
ENDBRANCH  10  11
ENDBRANCH   1  10
BRANCH   5  43
HETATM   43  C   UNL     1      -7.894   6.042  65.317  1.00  0.00    -0.107 C  
HETATM   44  O   UNL     1      -8.677   6.785  64.376  1.00  0.00    -0.321 OA 
HETATM   45  H   UNL     1      -9.303   6.206  63.958  1.00  0.00     0.000 HD 
ENDBRANCH   5  43
TORSDOF 6
ENDMDL
MODEL       71
REMARK 921   NORMALIZED FREE ENERGY PREDICTED BY IDOCK:   -5.91 KCAL/MOL
REMARK 922        TOTAL FREE ENERGY PREDICTED BY IDOCK:   -9.63 KCAL/MOL
REMARK 923 INTER-LIGAND FREE ENERGY PREDICTED BY IDOCK:   -8.06 KCAL/MOL
REMARK 924 INTRA-LIGAND FREE ENERGY PREDICTED BY IDOCK:   -1.57 KCAL/MOL
REMARK 927      BINDING AFFINITY PREDICTED BY RF-SCORE:    0.00 PKD
ROOT
HETATM    1  C   UNL     1      -8.708  18.054  66.343  1.00  0.00    -0.227 C  
HETATM    2  O   UNL     1      -9.663  21.067  67.372  1.00  0.00    -0.569 OA 
HETATM    3  O   UNL     1      -8.167  19.073  65.491  1.00  0.00    -0.289 OA 
HETATM    4  H   UNL     1     -10.749  19.207  68.689  1.00  0.00     0.000 HD 
HETATM    5  C   UNL     1      -7.650  20.136  66.312  1.00  0.00    -0.268 C  
HETATM    6  H   UNL     1     -10.221  21.090  68.140  1.00  0.00     0.000 HD 
HETATM    7  C   UNL     1      -8.546  20.172  67.542  1.00  0.00    -0.336 C  
HETATM    8  O   UNL     1     -10.513  18.782  67.873  1.00  0.00    -0.392 OA 
HETATM    9  C   UNL     1      -9.091  18.747  67.672  1.00  0.00    -0.282 C  
ENDROOT
BRANCH   1  10
HETATM   10  O   UNL     1      -7.727  17.046  66.602  1.00  0.00    -0.210 OA 
BRANCH  10  11
HETATM   11  C   UNL     1      -7.957  16.135  67.712  1.00  0.00    -0.142 C  
HETATM   12  O   UNL     1      -6.298  17.217  69.116  1.00  0.00    -0.194 OA 
HETATM   13  H2  UNL     1      -9.276  11.833  68.906  1.00  0.00     0.000 HD 
HETATM   14  H   UNL     1      -5.522  17.102  69.652  1.00  0.00     0.000 HD 
HETATM   15  C   UNL     1      -6.701  15.950  68.578  1.00  0.00    -0.123 C  
HETATM   16  H1  UNL     1     -10.081  12.577  67.613  1.00  0.00     0.000 HD 
HETATM   17  C   UNL     1      -7.408  13.656  69.293  1.00  0.00     0.129 C  
HETATM   18  N   UNL     1      -5.672  14.889  70.542  1.00  0.00    -0.142 NA 
HETATM   19  N   UNL     1      -9.201  12.478  68.120  1.00  0.00    -0.206 NA 
HETATM   20  H1  UNL     1      -5.820  14.268  71.337  1.00  0.00     0.000 HD 
HETATM   21  H2  UNL     1      -5.301  15.795  70.826  1.00  0.00     0.000 HD 
HETATM   22  C   UNL     1      -8.731  13.805  68.531  1.00  0.00    -0.118 C  
HETATM   23  C   UNL     1      -6.923  15.016  69.774  1.00  0.00    -0.182 C  
HETATM   24  C   UNL     1      -8.609  14.778  67.309  1.00  0.00    -0.212 C  
BRANCH  24  25
HETATM   25  O   UNL     1      -9.841  14.950  66.558  1.00  0.00    -0.244 OA 
BRANCH  25  26
HETATM   26  C   UNL     1      -9.760  14.761  65.140  1.00  0.00     0.022 C  
HETATM   27  O   UNL     1      -9.674  13.373  64.808  1.00  0.00    -0.054 OA 
HETATM   28  C   UNL     1     -10.858  12.642  65.161  1.00  0.00    -0.290 C  
HETATM   29  C   UNL     1     -12.044  13.138  64.322  1.00  0.00    -0.414 C  
HETATM   30  H2  UNL     1     -10.309  17.382  64.529  1.00  0.00     0.000 HD 
HETATM   31  C   UNL     1     -12.249  14.629  64.591  1.00  0.00    -0.434 C  
HETATM   32  O   UNL     1     -13.283  12.487  64.642  1.00  0.00    -0.848 OA 
HETATM   33  H1  UNL     1     -11.944  17.283  64.184  1.00  0.00     0.000 HD 
HETATM   34  H   UNL     1     -14.017  12.794  64.123  1.00  0.00     0.000 HD 
HETATM   35  H   UNL     1     -13.406  16.055  63.886  1.00  0.00     0.000 HD 
HETATM   36  N   UNL     1     -11.166  16.852  64.684  1.00  0.00    -0.956 NA 
HETATM   37  O   UNL     1     -13.279  15.129  63.719  1.00  0.00     0.067 OA 
HETATM   38  C   UNL     1     -10.950  15.420  64.374  1.00  0.00    -0.031 C  
BRANCH  28  39
HETATM   39  C   UNL     1     -10.549  11.146  64.980  1.00  0.00    -0.273 C  
HETATM   40  H2  UNL     1      -9.983  11.265  63.000  1.00  0.00     0.000 HD 
HETATM   41  N   UNL     1     -10.598  10.697  63.582  1.00  0.00    -0.437 NA 
HETATM   42  H1  UNL     1     -10.393   9.705  63.462  1.00  0.00     0.000 HD 
ENDBRANCH  28  39
ENDBRANCH  25  26
ENDBRANCH  24  25
ENDBRANCH  10  11
ENDBRANCH   1  10
BRANCH   5  43
HETATM   43  C   UNL     1      -6.175  19.924  66.676  1.00  0.00    -0.181 C  
HETATM   44  O   UNL     1      -6.010  20.050  68.092  1.00  0.00    -0.222 OA 
HETATM   45  H   UNL     1      -5.097  19.919  68.318  1.00  0.00     0.000 HD 
ENDBRANCH   5  43
TORSDOF 6
ENDMDL
MODEL       72
REMARK 921   NORMALIZED FREE ENERGY PREDICTED BY IDOCK:   -5.88 KCAL/MOL
REMARK 922        TOTAL FREE ENERGY PREDICTED BY IDOCK:   -9.59 KCAL/MOL
REMARK 923 INTER-LIGAND FREE ENERGY PREDICTED BY IDOCK:   -8.10 KCAL/MOL
REMARK 924 INTRA-LIGAND FREE ENERGY PREDICTED BY IDOCK:   -1.49 KCAL/MOL
REMARK 927      BINDING AFFINITY PREDICTED BY RF-SCORE:    0.00 PKD
ROOT
HETATM    1  C   UNL     1      -8.903  15.311  67.427  1.00  0.00    -0.179 C  
HETATM    2  O   UNL     1     -10.171  18.313  68.084  1.00  0.00    -0.353 OA 
HETATM    3  O   UNL     1      -9.056  16.070  66.219  1.00  0.00    -0.284 OA 
HETATM    4  H   UNL     1     -10.074  16.835  70.129  1.00  0.00     0.000 HD 
HETATM    5  C   UNL     1      -8.575  17.407  66.449  1.00  0.00    -0.247 C  
HETATM    6  H   UNL     1     -10.359  18.497  68.997  1.00  0.00     0.000 HD 
HETATM    7  C   UNL     1      -8.877  17.701  67.912  1.00  0.00    -0.246 C  
HETATM    8  O   UNL     1     -10.074  16.210  69.413  1.00  0.00    -0.238 OA 
HETATM    9  C   UNL     1      -8.902  16.330  68.591  1.00  0.00    -0.226 C  
ENDROOT
BRANCH   1  10
HETATM   10  O   UNL     1      -7.661  14.603  67.417  1.00  0.00    -0.182 OA 
BRANCH  10  11
HETATM   11  C   UNL     1      -7.642  13.246  67.940  1.00  0.00    -0.152 C  
HETATM   12  O   UNL     1      -6.763  13.945  70.092  1.00  0.00    -0.370 OA 
HETATM   13  H2  UNL     1      -7.245   8.739  66.842  1.00  0.00     0.000 HD 
HETATM   14  H   UNL     1      -6.084  13.822  70.745  1.00  0.00     0.000 HD 
HETATM   15  C   UNL     1      -6.544  13.047  68.996  1.00  0.00    -0.105 C  
HETATM   16  H1  UNL     1      -8.107   9.739  65.780  1.00  0.00     0.000 HD 
HETATM   17  C   UNL     1      -6.345  10.605  68.477  1.00  0.00    -0.054 C  
HETATM   18  N   UNL     1      -5.437  11.527  70.578  1.00  0.00    -0.125 NA 
HETATM   19  N   UNL     1      -7.336   9.674  66.445  1.00  0.00    -0.093 NA 
HETATM   20  H1  UNL     1      -5.421  10.586  70.970  1.00  0.00     0.000 HD 
HETATM   21  H2  UNL     1      -5.506  12.244  71.301  1.00  0.00     0.000 HD 
HETATM   22  C   UNL     1      -7.504  10.703  67.477  1.00  0.00    -0.093 C  
HETATM   23  C   UNL     1      -6.520  11.632  69.586  1.00  0.00    -0.124 C  
HETATM   24  C   UNL     1      -7.629  12.133  66.848  1.00  0.00    -0.029 C  
BRANCH  24  25
HETATM   25  O   UNL     1      -8.717  12.273  65.895  1.00  0.00     0.118 OA 
BRANCH  25  26
HETATM   26  C   UNL     1      -9.825  11.377  66.050  1.00  0.00    -0.223 C  
HETATM   27  O   UNL     1     -10.672  11.785  67.126  1.00  0.00    -0.221 OA 
HETATM   28  C   UNL     1     -11.312  13.047  66.883  1.00  0.00    -0.311 C  
HETATM   29  C   UNL     1     -12.278  12.919  65.697  1.00  0.00    -0.463 C  
HETATM   30  H2  UNL     1      -9.334  10.003  63.722  1.00  0.00     0.000 HD 
HETATM   31  C   UNL     1     -11.487  12.487  64.462  1.00  0.00    -0.337 C  
HETATM   32  O   UNL     1     -12.932  14.150  65.356  1.00  0.00    -0.706 OA 
HETATM   33  H1  UNL     1     -10.419  10.748  62.689  1.00  0.00     0.000 HD 
HETATM   34  H   UNL     1     -13.530  14.071  64.622  1.00  0.00     0.000 HD 
HETATM   35  H   UNL     1     -11.908  11.977  62.608  1.00  0.00     0.000 HD 
HETATM   36  N   UNL     1      -9.872  10.850  63.544  1.00  0.00    -0.327 NA 
HETATM   37  O   UNL     1     -12.400  12.246  63.376  1.00  0.00    -0.538 OA 
HETATM   38  C   UNL     1     -10.661  11.221  64.742  1.00  0.00    -0.285 C  
BRANCH  28  39
HETATM   39  C   UNL     1     -11.991  13.481  68.194  1.00  0.00    -0.341 C  
HETATM   40  H2  UNL     1     -13.001  15.098  67.408  1.00  0.00     0.000 HD 
HETATM   41  N   UNL     1     -12.404  14.890  68.208  1.00  0.00    -0.556 NA 
HETATM   42  H1  UNL     1     -12.854  15.178  69.078  1.00  0.00     0.000 HD 
ENDBRANCH  28  39
ENDBRANCH  25  26
ENDBRANCH  24  25
ENDBRANCH  10  11
ENDBRANCH   1  10
BRANCH   5  43
HETATM   43  C   UNL     1      -7.082  17.551  66.126  1.00  0.00    -0.306 C  
HETATM   44  O   UNL     1      -6.886  18.674  65.260  1.00  0.00    -0.506 OA 
HETATM   45  H   UNL     1      -5.962  18.763  65.060  1.00  0.00     0.000 HD 
ENDBRANCH   5  43
TORSDOF 6
ENDMDL
MODEL       73
REMARK 921   NORMALIZED FREE ENERGY PREDICTED BY IDOCK:   -5.88 KCAL/MOL
REMARK 922        TOTAL FREE ENERGY PREDICTED BY IDOCK:   -9.59 KCAL/MOL
REMARK 923 INTER-LIGAND FREE ENERGY PREDICTED BY IDOCK:   -8.21 KCAL/MOL
REMARK 924 INTRA-LIGAND FREE ENERGY PREDICTED BY IDOCK:   -1.38 KCAL/MOL
REMARK 927      BINDING AFFINITY PREDICTED BY RF-SCORE:    0.00 PKD
ROOT
HETATM    1  C   UNL     1      -6.970  17.551  68.886  1.00  0.00    -0.252 C  
HETATM    2  O   UNL     1      -6.064  20.712  69.368  1.00  0.00    -0.333 OA 
HETATM    3  O   UNL     1      -7.757  18.431  68.071  1.00  0.00    -0.248 OA 
HETATM    4  H   UNL     1      -4.878  19.118  70.925  1.00  0.00     0.000 HD 
HETATM    5  C   UNL     1      -6.884  19.399  67.460  1.00  0.00    -0.204 C  
HETATM    6  H   UNL     1      -5.366  20.856  69.996  1.00  0.00     0.000 HD 
HETATM    7  C   UNL     1      -5.766  19.629  68.466  1.00  0.00    -0.209 C  
HETATM    8  O   UNL     1      -5.660  18.637  70.683  1.00  0.00    -0.232 OA 
HETATM    9  C   UNL     1      -5.696  18.334  69.279  1.00  0.00    -0.224 C  
ENDROOT
BRANCH   1  10
HETATM   10  O   UNL     1      -6.599  16.385  68.146  1.00  0.00    -0.122 OA 
BRANCH  10  11
HETATM   11  C   UNL     1      -6.918  15.084  68.712  1.00  0.00    -0.107 C  
HETATM   12  O   UNL     1      -5.848  15.595  70.830  1.00  0.00    -0.051 OA 
HETATM   13  H2  UNL     1      -7.709  10.597  67.755  1.00  0.00     0.000 HD 
HETATM   14  H   UNL     1      -5.211  15.320  71.479  1.00  0.00     0.000 HD 
HETATM   15  C   UNL     1      -5.887  14.639  69.761  1.00  0.00    -0.111 C  
HETATM   16  H1  UNL     1      -8.307  11.753  66.671  1.00  0.00     0.000 HD 
HETATM   17  C   UNL     1      -6.330  12.214  69.319  1.00  0.00    -0.103 C  
HETATM   18  N   UNL     1      -5.176  12.932  71.379  1.00  0.00    -0.245 NA 
HETATM   19  N   UNL     1      -7.566  11.512  67.329  1.00  0.00    -0.134 NA 
HETATM   20  H1  UNL     1      -5.394  12.030  71.801  1.00  0.00     0.000 HD 
HETATM   21  H2  UNL     1      -5.045  13.663  72.079  1.00  0.00     0.000 HD 
HETATM   22  C   UNL     1      -7.444  12.578  68.329  1.00  0.00    -0.122 C  
HETATM   23  C   UNL     1      -6.215  13.283  70.396  1.00  0.00     0.018 C  
HETATM   24  C   UNL     1      -7.211  13.975  67.657  1.00  0.00    -0.176 C  
BRANCH  24  25
HETATM   25  O   UNL     1      -8.245  14.361  66.711  1.00  0.00    -0.098 OA 
BRANCH  25  26
HETATM   26  C   UNL     1      -9.596  14.324  67.188  1.00  0.00    -0.245 C  
HETATM   27  O   UNL     1     -10.084  15.640  67.460  1.00  0.00    -0.246 OA 
HETATM   28  C   UNL     1     -10.183  16.452  66.281  1.00  0.00    -0.330 C  
HETATM   29  C   UNL     1     -11.240  15.868  65.335  1.00  0.00    -0.100 C  
HETATM   30  H2  UNL     1      -9.958  11.658  66.636  1.00  0.00     0.000 HD 
HETATM   31  C   UNL     1     -10.831  14.444  64.956  1.00  0.00    -0.407 C  
HETATM   32  O   UNL     1     -11.374  16.598  64.106  1.00  0.00    -1.419 OA 
HETATM   33  H1  UNL     1     -10.756  11.751  65.168  1.00  0.00     0.000 HD 
HETATM   34  H   UNL     1     -12.029  16.236  63.520  1.00  0.00     0.000 HD 
HETATM   35  H   UNL     1     -11.621  12.961  63.934  1.00  0.00     0.000 HD 
HETATM   36  N   UNL     1     -10.125  12.231  65.810  1.00  0.00    -0.248 NA 
HETATM   37  O   UNL     1     -11.876  13.846  64.169  1.00  0.00    -0.416 OA 
HETATM   38  C   UNL     1     -10.562  13.590  66.205  1.00  0.00    -0.288 C  
BRANCH  28  39
HETATM   39  C   UNL     1     -10.481  17.892  66.736  1.00  0.00    -0.311 C  
HETATM   40  H2  UNL     1     -10.911  18.642  64.863  1.00  0.00     0.000 HD 
HETATM   41  N   UNL     1     -10.337  18.891  65.669  1.00  0.00    -0.531 NA 
HETATM   42  H1  UNL     1     -10.535  19.846  65.970  1.00  0.00     0.000 HD 
ENDBRANCH  28  39
ENDBRANCH  25  26
ENDBRANCH  24  25
ENDBRANCH  10  11
ENDBRANCH   1  10
BRANCH   5  43
HETATM   43  C   UNL     1      -6.352  18.925  66.101  1.00  0.00    -0.193 C  
HETATM   44  O   UNL     1      -7.361  18.158  65.434  1.00  0.00    -0.520 OA 
HETATM   45  H   UNL     1      -7.032  17.864  64.593  1.00  0.00     0.000 HD 
ENDBRANCH   5  43
TORSDOF 6
ENDMDL
MODEL       74
REMARK 921   NORMALIZED FREE ENERGY PREDICTED BY IDOCK:   -5.87 KCAL/MOL
REMARK 922        TOTAL FREE ENERGY PREDICTED BY IDOCK:   -9.57 KCAL/MOL
REMARK 923 INTER-LIGAND FREE ENERGY PREDICTED BY IDOCK:   -8.28 KCAL/MOL
REMARK 924 INTRA-LIGAND FREE ENERGY PREDICTED BY IDOCK:   -1.29 KCAL/MOL
REMARK 927      BINDING AFFINITY PREDICTED BY RF-SCORE:    0.00 PKD
ROOT
HETATM    1  C   UNL     1      -9.495  15.698  67.123  1.00  0.00    -0.217 C  
HETATM    2  O   UNL     1      -9.353  18.789  68.337  1.00  0.00    -0.316 OA 
HETATM    3  O   UNL     1      -8.969  15.692  68.458  1.00  0.00    -0.179 OA 
HETATM    4  H   UNL     1     -10.064  18.733  65.915  1.00  0.00     0.000 HD 
HETATM    5  C   UNL     1      -9.776  16.558  69.277  1.00  0.00    -0.193 C  
HETATM    6  H   UNL     1      -9.653  19.480  67.758  1.00  0.00     0.000 HD 
HETATM    7  C   UNL     1     -10.255  17.665  68.349  1.00  0.00    -0.381 C  
HETATM    8  O   UNL     1      -9.598  17.911  66.020  1.00  0.00    -0.502 OA 
HETATM    9  C   UNL     1     -10.253  17.035  66.953  1.00  0.00    -0.305 C  
ENDROOT
BRANCH   1  10
HETATM   10  O   UNL     1     -10.407  14.612  66.942  1.00  0.00    -0.260 OA 
BRANCH  10  11
HETATM   11  C   UNL     1     -10.291  13.815  65.731  1.00  0.00    -0.307 C  
HETATM   12  O   UNL     1     -11.705  15.315  64.449  1.00  0.00    -0.606 OA 
HETATM   13  H2  UNL     1      -9.646   9.529  64.031  1.00  0.00     0.000 HD 
HETATM   14  H   UNL     1     -12.471  15.395  63.892  1.00  0.00     0.000 HD 
HETATM   15  C   UNL     1     -11.530  13.944  64.831  1.00  0.00    -0.350 C  
HETATM   16  H1  UNL     1      -8.775   9.969  65.416  1.00  0.00     0.000 HD 
HETATM   17  C   UNL     1     -11.180  11.668  63.847  1.00  0.00    -0.479 C  
HETATM   18  N   UNL     1     -12.651  13.310  62.738  1.00  0.00    -0.561 NA 
HETATM   19  N   UNL     1      -9.642  10.078  64.889  1.00  0.00    -0.294 NA 
HETATM   20  H1  UNL     1     -12.579  12.773  61.874  1.00  0.00     0.000 HD 
HETATM   21  H2  UNL     1     -12.861  14.293  62.563  1.00  0.00     0.000 HD 
HETATM   22  C   UNL     1      -9.877  11.504  64.639  1.00  0.00    -0.246 C  
HETATM   23  C   UNL     1     -11.423  13.137  63.532  1.00  0.00    -0.253 C  
HETATM   24  C   UNL     1      -9.881  12.330  65.971  1.00  0.00    -0.248 C  
BRANCH  24  25
HETATM   25  O   UNL     1      -8.663  12.206  66.754  1.00  0.00    -0.194 OA 
BRANCH  25  26
HETATM   26  C   UNL     1      -8.817  12.173  68.178  1.00  0.00    -0.187 C  
HETATM   27  O   UNL     1      -9.736  11.153  68.575  1.00  0.00    -0.183 OA 
HETATM   28  C   UNL     1      -9.266   9.831  68.273  1.00  0.00    -0.129 C  
HETATM   29  C   UNL     1      -8.012   9.524  69.103  1.00  0.00    -0.094 C  
HETATM   30  H2  UNL     1      -6.751  13.915  68.670  1.00  0.00     0.000 HD 
HETATM   31  C   UNL     1      -6.933  10.553  68.765  1.00  0.00    -0.070 C  
HETATM   32  O   UNL     1      -7.448   8.232  68.831  1.00  0.00    -0.088 OA 
HETATM   33  H1  UNL     1      -5.522  12.842  69.041  1.00  0.00     0.000 HD 
HETATM   34  H   UNL     1      -6.672   8.042  69.345  1.00  0.00     0.000 HD 
HETATM   35  H   UNL     1      -5.128  10.988  69.417  1.00  0.00     0.000 HD 
HETATM   36  N   UNL     1      -6.409  12.963  68.551  1.00  0.00    -0.073 NA 
HETATM   37  O   UNL     1      -5.798  10.348  69.626  1.00  0.00    -0.041 OA 
HETATM   38  C   UNL     1      -7.460  11.988  68.927  1.00  0.00    -0.043 C  
BRANCH  28  39
HETATM   39  C   UNL     1     -10.431   8.858  68.522  1.00  0.00    -0.182 C  
HETATM   40  H2  UNL     1      -9.942   7.522  67.028  1.00  0.00     0.000 HD 
HETATM   41  N   UNL     1     -10.766   8.025  67.359  1.00  0.00    -0.489 NA 
HETATM   42  H1  UNL     1     -11.538   7.379  67.525  1.00  0.00     0.000 HD 
ENDBRANCH  28  39
ENDBRANCH  25  26
ENDBRANCH  24  25
ENDBRANCH  10  11
ENDBRANCH   1  10
BRANCH   5  43
HETATM   43  C   UNL     1     -10.943  15.810  69.936  1.00  0.00    -0.333 C  
HETATM   44  O   UNL     1     -11.686  16.716  70.760  1.00  0.00    -0.478 OA 
HETATM   45  H   UNL     1     -12.408  16.254  71.168  1.00  0.00     0.000 HD 
ENDBRANCH   5  43
TORSDOF 6
ENDMDL
MODEL       75
REMARK 921   NORMALIZED FREE ENERGY PREDICTED BY IDOCK:   -5.86 KCAL/MOL
REMARK 922        TOTAL FREE ENERGY PREDICTED BY IDOCK:   -9.56 KCAL/MOL
REMARK 923 INTER-LIGAND FREE ENERGY PREDICTED BY IDOCK:   -8.28 KCAL/MOL
REMARK 924 INTRA-LIGAND FREE ENERGY PREDICTED BY IDOCK:   -1.28 KCAL/MOL
REMARK 927      BINDING AFFINITY PREDICTED BY RF-SCORE:    0.00 PKD
ROOT
HETATM    1  C   UNL     1     -10.321  16.697  67.085  1.00  0.00    -0.300 C  
HETATM    2  O   UNL     1     -10.486  19.115  69.360  1.00  0.00    -0.428 OA 
HETATM    3  O   UNL     1     -10.459  17.977  66.452  1.00  0.00    -0.375 OA 
HETATM    4  H   UNL     1     -10.460  16.813  70.396  1.00  0.00     0.000 HD 
HETATM    5  C   UNL     1      -9.566  18.908  67.091  1.00  0.00    -0.306 C  
HETATM    6  H   UNL     1     -10.438  18.839  70.268  1.00  0.00     0.000 HD 
HETATM    7  C   UNL     1      -9.490  18.465  68.545  1.00  0.00    -0.334 C  
HETATM    8  O   UNL     1     -10.780  16.648  69.517  1.00  0.00    -0.316 OA 
HETATM    9  C   UNL     1      -9.799  16.966  68.517  1.00  0.00    -0.267 C  
ENDROOT
BRANCH   1  10
HETATM   10  O   UNL     1      -9.372  15.892  66.381  1.00  0.00    -0.246 OA 
BRANCH  10  11
HETATM   11  C   UNL     1      -9.878  14.852  65.498  1.00  0.00    -0.313 C  
HETATM   12  O   UNL     1     -10.941  16.448  64.010  1.00  0.00    -1.126 OA 
HETATM   13  H2  UNL     1     -11.298  10.426  65.236  1.00  0.00     0.000 HD 
HETATM   14  H   UNL     1     -11.746  16.707  63.575  1.00  0.00     0.000 HD 
HETATM   15  C   UNL     1     -11.178  15.271  64.794  1.00  0.00    -0.396 C  
HETATM   16  H1  UNL     1      -9.993  10.779  66.257  1.00  0.00     0.000 HD 
HETATM   17  C   UNL     1     -11.947  12.898  64.578  1.00  0.00    -0.452 C  
HETATM   18  N   UNL     1     -12.965  14.684  63.213  1.00  0.00     0.252 NA 
HETATM   19  N   UNL     1     -10.868  11.113  65.855  1.00  0.00    -0.205 NA 
HETATM   20  H1  UNL     1     -13.324  13.975  62.574  1.00  0.00     0.000 HD 
HETATM   21  H2  UNL     1     -12.845  15.588  62.755  1.00  0.00     0.000 HD 
HETATM   22  C   UNL     1     -10.630  12.395  65.184  1.00  0.00    -0.292 C  
HETATM   23  C   UNL     1     -11.718  14.205  63.834  1.00  0.00    -0.089 C  
HETATM   24  C   UNL     1      -9.983  13.442  66.154  1.00  0.00    -0.294 C  
BRANCH  24  25
HETATM   25  O   UNL     1      -8.730  13.008  66.750  1.00  0.00    -0.188 OA 
BRANCH  25  26
HETATM   26  C   UNL     1      -8.606  13.166  68.169  1.00  0.00    -0.181 C  
HETATM   27  O   UNL     1      -9.539  12.336  68.864  1.00  0.00    -0.007 OA 
HETATM   28  C   UNL     1      -9.288  10.936  68.675  1.00  0.00    -0.187 C  
HETATM   29  C   UNL     1      -7.939  10.561  69.304  1.00  0.00    -0.154 C  
HETATM   30  H2  UNL     1      -6.302  14.656  68.030  1.00  0.00     0.000 HD 
HETATM   31  C   UNL     1      -6.838  11.385  68.636  1.00  0.00    -0.078 C  
HETATM   32  O   UNL     1      -7.587   9.181  69.123  1.00  0.00    -0.071 OA 
HETATM   33  H1  UNL     1      -5.153  13.475  68.326  1.00  0.00     0.000 HD 
HETATM   34  H   UNL     1      -6.752   8.949  69.512  1.00  0.00     0.000 HD 
HETATM   35  H   UNL     1      -4.903  11.643  68.886  1.00  0.00     0.000 HD 
HETATM   36  N   UNL     1      -6.099  13.657  67.990  1.00  0.00    -0.124 NA 
HETATM   37  O   UNL     1      -5.588  11.131  69.301  1.00  0.00    -0.041 OA 
HETATM   38  C   UNL     1      -7.159  12.888  68.682  1.00  0.00    -0.103 C  
BRANCH  28  39
HETATM   39  C   UNL     1     -10.484  10.169  69.265  1.00  0.00    -0.225 C  
HETATM   40  H2  UNL     1     -11.840  10.693  67.802  1.00  0.00     0.000 HD 
HETATM   41  N   UNL     1     -11.790  10.675  68.820  1.00  0.00    -0.662 NA 
HETATM   42  H1  UNL     1     -12.583  10.166  69.211  1.00  0.00     0.000 HD 
ENDBRANCH  28  39
ENDBRANCH  25  26
ENDBRANCH  24  25
ENDBRANCH  10  11
ENDBRANCH   1  10
BRANCH   5  43
HETATM   43  C   UNL     1      -8.185  18.938  66.422  1.00  0.00    -0.294 C  
HETATM   44  O   UNL     1      -8.076  20.109  65.605  1.00  0.00    -0.483 OA 
HETATM   45  H   UNL     1      -7.222  20.128  65.191  1.00  0.00     0.000 HD 
ENDBRANCH   5  43
TORSDOF 6
ENDMDL
MODEL       76
REMARK 921   NORMALIZED FREE ENERGY PREDICTED BY IDOCK:   -5.85 KCAL/MOL
REMARK 922        TOTAL FREE ENERGY PREDICTED BY IDOCK:   -9.54 KCAL/MOL
REMARK 923 INTER-LIGAND FREE ENERGY PREDICTED BY IDOCK:   -8.52 KCAL/MOL
REMARK 924 INTRA-LIGAND FREE ENERGY PREDICTED BY IDOCK:   -1.02 KCAL/MOL
REMARK 927      BINDING AFFINITY PREDICTED BY RF-SCORE:    0.00 PKD
ROOT
HETATM    1  C   UNL     1     -10.524   8.160  69.869  1.00  0.00    -0.226 C  
HETATM    2  O   UNL     1      -9.996   8.036  73.149  1.00  0.00    -0.293 OA 
HETATM    3  O   UNL     1     -11.623   7.522  70.534  1.00  0.00    -0.271 OA 
HETATM    4  H   UNL     1      -8.011   8.949  71.884  1.00  0.00     0.000 HD 
HETATM    5  C   UNL     1     -11.966   8.289  71.702  1.00  0.00    -0.303 C  
HETATM    6  H   UNL     1      -9.179   8.411  73.456  1.00  0.00     0.000 HD 
HETATM    7  C   UNL     1     -10.656   8.889  72.193  1.00  0.00    -0.253 C  
HETATM    8  O   UNL     1      -8.471   8.445  71.224  1.00  0.00    -0.122 OA 
HETATM    9  C   UNL     1      -9.775   8.981  70.945  1.00  0.00    -0.264 C  
ENDROOT
BRANCH   1  10
HETATM   10  O   UNL     1     -11.000   9.041  68.849  1.00  0.00    -0.099 OA 
BRANCH  10  11
HETATM   11  C   UNL     1     -10.531   8.832  67.489  1.00  0.00    -0.271 C  
HETATM   12  O   UNL     1     -11.173   6.491  67.486  1.00  0.00    -0.556 OA 
HETATM   13  H2  UNL     1      -7.481  10.206  64.251  1.00  0.00     0.000 HD 
HETATM   14  H   UNL     1     -10.891   5.595  67.338  1.00  0.00     0.000 HD 
HETATM   15  C   UNL     1     -10.076   7.384  67.249  1.00  0.00    -0.228 C  
HETATM   16  H1  UNL     1      -8.161  11.393  65.251  1.00  0.00     0.000 HD 
HETATM   17  C   UNL     1      -8.469   8.077  65.458  1.00  0.00    -0.159 C  
HETATM   18  N   UNL     1      -9.179   5.724  65.675  1.00  0.00    -0.328 NA 
HETATM   19  N   UNL     1      -7.846  10.425  65.177  1.00  0.00    -0.144 NA 
HETATM   20  H1  UNL     1      -8.865   5.553  64.720  1.00  0.00     0.000 HD 
HETATM   21  H2  UNL     1      -9.909   5.071  65.962  1.00  0.00     0.000 HD 
HETATM   22  C   UNL     1      -8.942   9.532  65.569  1.00  0.00    -0.194 C  
HETATM   23  C   UNL     1      -9.604   7.127  65.813  1.00  0.00     0.434 C  
HETATM   24  C   UNL     1      -9.482   9.876  67.000  1.00  0.00    -0.160 C  
BRANCH  24  25
HETATM   25  O   UNL     1      -9.943  11.246  67.150  1.00  0.00    -0.188 OA 
BRANCH  25  26
HETATM   26  C   UNL     1     -11.310  11.504  66.803  1.00  0.00    -0.238 C  
HETATM   27  O   UNL     1     -12.041  12.003  67.925  1.00  0.00    -0.531 OA 
HETATM   28  C   UNL     1     -11.575  13.286  68.368  1.00  0.00    -0.337 C  
HETATM   29  C   UNL     1     -11.832  14.336  67.278  1.00  0.00    -0.413 C  
HETATM   30  H2  UNL     1     -10.932  11.143  64.107  1.00  0.00     0.000 HD 
HETATM   31  C   UNL     1     -11.090  13.919  66.008  1.00  0.00    -0.289 C  
HETATM   32  O   UNL     1     -11.356  15.646  67.622  1.00  0.00    -0.313 OA 
HETATM   33  H1  UNL     1     -10.778  12.731  63.601  1.00  0.00     0.000 HD 
HETATM   34  H   UNL     1     -11.515  16.296  66.947  1.00  0.00     0.000 HD 
HETATM   35  H   UNL     1     -10.963  14.572  64.156  1.00  0.00     0.000 HD 
HETATM   36  N   UNL     1     -10.686  12.091  64.390  1.00  0.00    -0.301 NA 
HETATM   37  O   UNL     1     -11.424  14.831  64.945  1.00  0.00    -0.378 OA 
HETATM   38  C   UNL     1     -11.450  12.483  65.596  1.00  0.00    -0.359 C  
BRANCH  28  39
HETATM   39  C   UNL     1     -12.271  13.594  69.705  1.00  0.00    -0.291 C  
HETATM   40  H2  UNL     1     -10.883  14.963  70.379  1.00  0.00     0.000 HD 
HETATM   41  N   UNL     1     -11.369  14.138  70.730  1.00  0.00    -0.490 NA 
HETATM   42  H1  UNL     1     -11.831  14.343  71.616  1.00  0.00     0.000 HD 
ENDBRANCH  28  39
ENDBRANCH  25  26
ENDBRANCH  24  25
ENDBRANCH  10  11
ENDBRANCH   1  10
BRANCH   5  43
HETATM   43  C   UNL     1     -13.019   9.365  71.402  1.00  0.00    -0.346 C  
HETATM   44  O   UNL     1     -14.202   8.744  70.886  1.00  0.00    -0.610 OA 
HETATM   45  H   UNL     1     -14.853   9.410  70.700  1.00  0.00     0.000 HD 
ENDBRANCH   5  43
TORSDOF 6
ENDMDL
MODEL       77
REMARK 921   NORMALIZED FREE ENERGY PREDICTED BY IDOCK:   -5.84 KCAL/MOL
REMARK 922        TOTAL FREE ENERGY PREDICTED BY IDOCK:   -9.53 KCAL/MOL
REMARK 923 INTER-LIGAND FREE ENERGY PREDICTED BY IDOCK:   -8.09 KCAL/MOL
REMARK 924 INTRA-LIGAND FREE ENERGY PREDICTED BY IDOCK:   -1.44 KCAL/MOL
REMARK 927      BINDING AFFINITY PREDICTED BY RF-SCORE:    0.00 PKD
ROOT
HETATM    1  C   UNL     1     -10.210  12.617  66.902  1.00  0.00    -0.234 C  
HETATM    2  O   UNL     1     -12.083  14.430  64.839  1.00  0.00    -0.401 OA 
HETATM    3  O   UNL     1      -9.505  13.794  66.484  1.00  0.00    -0.276 OA 
HETATM    4  H   UNL     1     -13.167  12.233  65.451  1.00  0.00     0.000 HD 
HETATM    5  C   UNL     1     -10.398  14.920  66.561  1.00  0.00    -0.293 C  
HETATM    6  H   UNL     1     -12.946  14.084  64.644  1.00  0.00     0.000 HD 
HETATM    7  C   UNL     1     -11.780  14.365  66.247  1.00  0.00    -0.385 C  
HETATM    8  O   UNL     1     -12.244  12.066  65.603  1.00  0.00    -0.503 OA 
HETATM    9  C   UNL     1     -11.712  12.890  66.653  1.00  0.00    -0.390 C  
ENDROOT
BRANCH   1  10
HETATM   10  O   UNL     1      -9.998  12.377  68.296  1.00  0.00    -0.216 OA 
BRANCH  10  11
HETATM   11  C   UNL     1     -10.903  11.468  68.980  1.00  0.00    -0.212 C  
HETATM   12  O   UNL     1     -12.433  13.247  69.602  1.00  0.00    -0.152 OA 
HETATM   13  H2  UNL     1     -11.233   7.461  71.327  1.00  0.00     0.000 HD 
HETATM   14  H   UNL     1     -12.901  13.673  70.311  1.00  0.00     0.000 HD 
HETATM   15  C   UNL     1     -11.661  12.157  70.125  1.00  0.00    -0.218 C  
HETATM   16  H1  UNL     1     -10.157   7.525  70.021  1.00  0.00     0.000 HD 
HETATM   17  C   UNL     1     -11.914  10.009  71.388  1.00  0.00    -0.470 C  
HETATM   18  N   UNL     1     -13.319  11.965  71.930  1.00  0.00    -0.405 NA 
HETATM   19  N   UNL     1     -10.596   8.041  70.784  1.00  0.00    -0.211 NA 
HETATM   20  H1  UNL     1     -13.973  11.347  72.409  1.00  0.00     0.000 HD 
HETATM   21  H2  UNL     1     -13.769  12.817  71.594  1.00  0.00     0.000 HD 
HETATM   22  C   UNL     1     -11.254   9.234  70.241  1.00  0.00    -0.231 C  
HETATM   23  C   UNL     1     -12.646  11.229  70.846  1.00  0.00    -0.371 C  
HETATM   24  C   UNL     1     -10.255  10.120  69.420  1.00  0.00    -0.227 C  
BRANCH  24  25
HETATM   25  O   UNL     1      -9.607   9.426  68.320  1.00  0.00    -0.141 OA 
BRANCH  25  26
HETATM   26  C   UNL     1     -10.468   8.843  67.334  1.00  0.00    -0.277 C  
HETATM   27  O   UNL     1     -10.380   9.545  66.092  1.00  0.00    -0.233 OA 
HETATM   28  C   UNL     1      -9.083   9.443  65.485  1.00  0.00    -0.218 C  
HETATM   29  C   UNL     1      -8.806   7.986  65.092  1.00  0.00     0.106 C  
HETATM   30  H2  UNL     1     -11.078   6.631  68.843  1.00  0.00     0.000 HD 
HETATM   31  C   UNL     1      -8.867   7.116  66.349  1.00  0.00    -0.145 C  
HETATM   32  O   UNL     1      -7.508   7.785  64.515  1.00  0.00    -0.083 OA 
HETATM   33  H1  UNL     1     -10.014   5.512  68.196  1.00  0.00     0.000 HD 
HETATM   34  H   UNL     1      -7.337   6.882  64.271  1.00  0.00     0.000 HD 
HETATM   35  H   UNL     1      -8.768   5.193  66.754  1.00  0.00     0.000 HD 
HETATM   36  N   UNL     1     -10.198   6.504  68.343  1.00  0.00    -0.159 NA 
HETATM   37  O   UNL     1      -8.731   5.733  65.973  1.00  0.00    -0.136 OA 
HETATM   38  C   UNL     1     -10.186   7.324  67.109  1.00  0.00    -0.269 C  
BRANCH  28  39
HETATM   39  C   UNL     1      -9.048  10.425  64.301  1.00  0.00    -0.238 C  
HETATM   40  H2  UNL     1     -10.971  11.133  64.531  1.00  0.00     0.000 HD 
HETATM   41  N   UNL     1     -10.377  10.775  63.783  1.00  0.00    -0.487 NA 
HETATM   42  H1  UNL     1     -10.354  11.426  62.998  1.00  0.00     0.000 HD 
ENDBRANCH  28  39
ENDBRANCH  25  26
ENDBRANCH  24  25
ENDBRANCH  10  11
ENDBRANCH   1  10
BRANCH   5  43
HETATM   43  C   UNL     1     -10.348  15.608  67.931  1.00  0.00    -0.259 C  
HETATM   44  O   UNL     1     -11.681  15.883  68.377  1.00  0.00    -0.358 OA 
HETATM   45  H   UNL     1     -11.650  16.308  69.225  1.00  0.00     0.000 HD 
ENDBRANCH   5  43
TORSDOF 6
ENDMDL
MODEL       78
REMARK 921   NORMALIZED FREE ENERGY PREDICTED BY IDOCK:   -5.82 KCAL/MOL
REMARK 922        TOTAL FREE ENERGY PREDICTED BY IDOCK:   -9.51 KCAL/MOL
REMARK 923 INTER-LIGAND FREE ENERGY PREDICTED BY IDOCK:   -7.66 KCAL/MOL
REMARK 924 INTRA-LIGAND FREE ENERGY PREDICTED BY IDOCK:   -1.85 KCAL/MOL
REMARK 927      BINDING AFFINITY PREDICTED BY RF-SCORE:    0.00 PKD
ROOT
HETATM    1  C   UNL     1      -9.942  11.941  65.561  1.00  0.00    -0.238 C  
HETATM    2  O   UNL     1     -10.119  10.840  62.430  1.00  0.00    -0.691 OA 
HETATM    3  O   UNL     1     -10.022  13.041  64.643  1.00  0.00    -0.240 OA 
HETATM    4  H   UNL     1      -9.756   8.974  64.092  1.00  0.00     0.000 HD 
HETATM    5  C   UNL     1     -11.039  12.754  63.666  1.00  0.00    -0.393 C  
HETATM    6  H   UNL     1     -10.104   9.897  62.317  1.00  0.00     0.000 HD 
HETATM    7  C   UNL     1     -11.014  11.243  63.485  1.00  0.00    -0.245 C  
HETATM    8  O   UNL     1      -9.432   9.738  64.554  1.00  0.00    -0.282 OA 
HETATM    9  C   UNL     1     -10.471  10.698  64.808  1.00  0.00    -0.210 C  
ENDROOT
BRANCH   1  10
HETATM   10  O   UNL     1     -10.763  12.186  66.706  1.00  0.00    -0.222 OA 
BRANCH  10  11
HETATM   11  C   UNL     1     -10.247  13.061  67.746  1.00  0.00    -0.228 C  
HETATM   12  O   UNL     1     -12.288  14.371  67.843  1.00  0.00    -0.615 OA 
HETATM   13  H2  UNL     1      -6.410  14.959  69.577  1.00  0.00     0.000 HD 
HETATM   14  H   UNL     1     -12.670  15.240  67.803  1.00  0.00     0.000 HD 
HETATM   15  C   UNL     1     -10.866  14.466  67.682  1.00  0.00    -0.273 C  
HETATM   16  H1  UNL     1      -6.313  13.362  69.019  1.00  0.00     0.000 HD 
HETATM   17  C   UNL     1      -8.844  15.515  68.723  1.00  0.00    -0.203 C  
HETATM   18  N   UNL     1     -10.995  16.723  68.645  1.00  0.00    -0.328 NA 
HETATM   19  N   UNL     1      -6.741  14.279  68.893  1.00  0.00    -0.094 NA 
HETATM   20  H1  UNL     1     -10.659  17.344  69.380  1.00  0.00     0.000 HD 
HETATM   21  H2  UNL     1     -12.013  16.661  68.630  1.00  0.00     0.000 HD 
HETATM   22  C   UNL     1      -8.201  14.136  68.912  1.00  0.00    -0.014 C  
HETATM   23  C   UNL     1     -10.361  15.401  68.786  1.00  0.00    -0.229 C  
HETATM   24  C   UNL     1      -8.691  13.098  67.845  1.00  0.00    -0.192 C  
BRANCH  24  25
HETATM   25  O   UNL     1      -8.108  11.775  67.987  1.00  0.00    -0.129 OA 
BRANCH  25  26
HETATM   26  C   UNL     1      -8.436  11.054  69.182  1.00  0.00    -0.012 C  
HETATM   27  O   UNL     1      -9.500  10.128  68.950  1.00  0.00    -0.163 OA 
HETATM   28  C   UNL     1      -9.139   9.083  68.035  1.00  0.00    -0.136 C  
HETATM   29  C   UNL     1      -8.035   8.212  68.651  1.00  0.00    -0.115 C  
HETATM   30  H2  UNL     1      -6.274  11.974  70.604  1.00  0.00     0.000 HD 
HETATM   31  C   UNL     1      -6.820   9.093  68.946  1.00  0.00    -0.056 C  
HETATM   32  O   UNL     1      -7.582   7.163  67.782  1.00  0.00    -0.105 OA 
HETATM   33  H1  UNL     1      -5.219  10.685  70.431  1.00  0.00     0.000 HD 
HETATM   34  H   UNL     1      -6.898   6.625  68.163  1.00  0.00     0.000 HD 
HETATM   35  H   UNL     1      -5.072   8.859  69.819  1.00  0.00     0.000 HD 
HETATM   36  N   UNL     1      -6.022  11.170  70.029  1.00  0.00    -0.109 NA 
HETATM   37  O   UNL     1      -5.827   8.311  69.635  1.00  0.00    -0.026 OA 
HETATM   38  C   UNL     1      -7.208  10.313  69.796  1.00  0.00    -0.147 C  
BRANCH  28  39
HETATM   39  C   UNL     1     -10.422   8.308  67.689  1.00  0.00    -0.235 C  
HETATM   40  H2  UNL     1      -9.501   6.785  66.648  1.00  0.00     0.000 HD 
HETATM   41  N   UNL     1     -10.285   7.425  66.523  1.00  0.00    -0.478 NA 
HETATM   42  H1  UNL     1     -11.136   6.911  66.294  1.00  0.00     0.000 HD 
ENDBRANCH  28  39
ENDBRANCH  25  26
ENDBRANCH  24  25
ENDBRANCH  10  11
ENDBRANCH   1  10
BRANCH   5  43
HETATM   43  C   UNL     1     -12.420  13.262  64.100  1.00  0.00    -0.260 C  
HETATM   44  O   UNL     1     -12.540  14.652  63.779  1.00  0.00    -0.992 OA 
HETATM   45  H   UNL     1     -13.395  14.967  64.048  1.00  0.00     0.000 HD 
ENDBRANCH   5  43
TORSDOF 6
ENDMDL
MODEL       79
REMARK 921   NORMALIZED FREE ENERGY PREDICTED BY IDOCK:   -5.82 KCAL/MOL
REMARK 922        TOTAL FREE ENERGY PREDICTED BY IDOCK:   -9.51 KCAL/MOL
REMARK 923 INTER-LIGAND FREE ENERGY PREDICTED BY IDOCK:   -8.01 KCAL/MOL
REMARK 924 INTRA-LIGAND FREE ENERGY PREDICTED BY IDOCK:   -1.50 KCAL/MOL
REMARK 927      BINDING AFFINITY PREDICTED BY RF-SCORE:    0.00 PKD
ROOT
HETATM    1  C   UNL     1     -11.190  12.385  66.488  1.00  0.00    -0.319 C  
HETATM    2  O   UNL     1     -13.775  14.314  65.686  1.00  0.00    -0.510 OA 
HETATM    3  O   UNL     1     -12.114  11.670  65.656  1.00  0.00    -0.214 OA 
HETATM    4  H   UNL     1     -12.211  15.426  67.327  1.00  0.00     0.000 HD 
HETATM    5  C   UNL     1     -12.515  12.525  64.569  1.00  0.00    -0.459 C  
HETATM    6  H   UNL     1     -13.765  15.196  66.040  1.00  0.00     0.000 HD 
HETATM    7  C   UNL     1     -12.498  13.937  65.136  1.00  0.00    -0.453 C  
HETATM    8  O   UNL     1     -12.033  14.502  67.455  1.00  0.00    -0.382 OA 
HETATM    9  C   UNL     1     -11.480  13.890  66.279  1.00  0.00    -0.339 C  
ENDROOT
BRANCH   1  10
HETATM   10  O   UNL     1      -9.844  12.104  66.095  1.00  0.00    -0.228 OA 
BRANCH  10  11
HETATM   11  C   UNL     1      -9.179  10.959  66.697  1.00  0.00    -0.168 C  
HETATM   12  O   UNL     1      -9.599   9.536  64.776  1.00  0.00    -0.433 OA 
HETATM   13  H2  UNL     1      -8.084   8.855  70.703  1.00  0.00     0.000 HD 
HETATM   14  H   UNL     1      -9.956   8.711  64.467  1.00  0.00     0.000 HD 
HETATM   15  C   UNL     1      -9.757   9.625  66.198  1.00  0.00    -0.252 C  
HETATM   16  H1  UNL     1      -8.028  10.548  70.658  1.00  0.00     0.000 HD 
HETATM   17  C   UNL     1      -9.126   8.443  68.315  1.00  0.00    -0.139 C  
HETATM   18  N   UNL     1      -9.674   7.170  66.272  1.00  0.00    -0.409 NA 
HETATM   19  N   UNL     1      -8.484   9.705  70.308  1.00  0.00    -0.200 NA 
HETATM   20  H1  UNL     1      -9.206   6.356  66.669  1.00  0.00     0.000 HD 
HETATM   21  H2  UNL     1      -9.685   7.148  65.252  1.00  0.00     0.000 HD 
HETATM   22  C   UNL     1      -8.441   9.710  68.841  1.00  0.00    -0.125 C  
HETATM   23  C   UNL     1      -9.054   8.400  66.795  1.00  0.00    -0.157 C  
HETATM   24  C   UNL     1      -9.072  11.018  68.251  1.00  0.00    -0.158 C  
BRANCH  24  25
HETATM   25  O   UNL     1      -8.451  12.245  68.723  1.00  0.00    -0.037 OA 
BRANCH  25  26
HETATM   26  C   UNL     1      -7.113  12.499  68.277  1.00  0.00    -0.104 C  
HETATM   27  O   UNL     1      -7.074  13.597  67.361  1.00  0.00    -0.168 OA 
HETATM   28  C   UNL     1      -7.451  14.841  67.968  1.00  0.00    -0.129 C  
HETATM   29  C   UNL     1      -6.421  15.231  69.038  1.00  0.00    -0.111 C  
HETATM   30  H2  UNL     1      -5.944  10.786  70.077  1.00  0.00     0.000 HD 
HETATM   31  C   UNL     1      -6.368  14.128  70.095  1.00  0.00    -0.125 C  
HETATM   32  O   UNL     1      -6.745  16.447  69.728  1.00  0.00    -0.194 OA 
HETATM   33  H1  UNL     1      -5.471  11.864  71.267  1.00  0.00     0.000 HD 
HETATM   34  H   UNL     1      -6.107  16.688  70.390  1.00  0.00     0.000 HD 
HETATM   35  H   UNL     1      -5.286  13.739  71.692  1.00  0.00     0.000 HD 
HETATM   36  N   UNL     1      -6.119  11.698  70.497  1.00  0.00    -0.298 NA 
HETATM   37  O   UNL     1      -5.319  14.425  71.035  1.00  0.00    -0.125 OA 
HETATM   38  C   UNL     1      -6.122  12.752  69.456  1.00  0.00    -0.118 C  
BRANCH  28  39
HETATM   39  C   UNL     1      -7.600  15.878  66.841  1.00  0.00    -0.219 C  
HETATM   40  H2  UNL     1      -9.339  16.736  67.545  1.00  0.00     0.000 HD 
HETATM   41  N   UNL     1      -8.974  16.368  66.666  1.00  0.00    -0.235 NA 
HETATM   42  H1  UNL     1      -9.073  17.056  65.919  1.00  0.00     0.000 HD 
ENDBRANCH  28  39
ENDBRANCH  25  26
ENDBRANCH  24  25
ENDBRANCH  10  11
ENDBRANCH   1  10
BRANCH   5  43
HETATM   43  C   UNL     1     -11.596  12.380  63.348  1.00  0.00    -0.462 C  
HETATM   44  O   UNL     1     -11.396  10.991  63.063  1.00  0.00    -0.738 OA 
HETATM   45  H   UNL     1     -10.828  10.902  62.307  1.00  0.00     0.000 HD 
ENDBRANCH   5  43
TORSDOF 6
ENDMDL
MODEL       80
REMARK 921   NORMALIZED FREE ENERGY PREDICTED BY IDOCK:   -5.82 KCAL/MOL
REMARK 922        TOTAL FREE ENERGY PREDICTED BY IDOCK:   -9.51 KCAL/MOL
REMARK 923 INTER-LIGAND FREE ENERGY PREDICTED BY IDOCK:   -8.19 KCAL/MOL
REMARK 924 INTRA-LIGAND FREE ENERGY PREDICTED BY IDOCK:   -1.31 KCAL/MOL
REMARK 927      BINDING AFFINITY PREDICTED BY RF-SCORE:    0.00 PKD
ROOT
HETATM    1  C   UNL     1      -8.973  11.294  65.890  1.00  0.00    -0.197 C  
HETATM    2  O   UNL     1      -5.659  11.538  65.767  1.00  0.00    -0.508 OA 
HETATM    3  O   UNL     1      -8.470  10.735  64.668  1.00  0.00    -0.133 OA 
HETATM    4  H   UNL     1      -6.640  12.693  67.787  1.00  0.00     0.000 HD 
HETATM    5  C   UNL     1      -7.326   9.916  64.970  1.00  0.00    -0.135 C  
HETATM    6  H   UNL     1      -5.242  11.950  66.515  1.00  0.00     0.000 HD 
HETATM    7  C   UNL     1      -6.657  10.578  66.167  1.00  0.00    -0.123 C  
HETATM    8  O   UNL     1      -7.369  12.672  67.178  1.00  0.00    -0.127 OA 
HETATM    9  C   UNL     1      -7.785  11.329  66.881  1.00  0.00    -0.152 C  
ENDROOT
BRANCH   1  10
HETATM   10  O   UNL     1     -10.011  10.470  66.426  1.00  0.00    -0.202 OA 
BRANCH  10  11
HETATM   11  C   UNL     1     -10.117  10.355  67.872  1.00  0.00    -0.171 C  
HETATM   12  O   UNL     1      -9.387   8.040  67.874  1.00  0.00    -0.137 OA 
HETATM   13  H2  UNL     1     -12.325  11.893  71.671  1.00  0.00     0.000 HD 
HETATM   14  H   UNL     1      -9.581   7.152  68.150  1.00  0.00     0.000 HD 
HETATM   15  C   UNL     1     -10.430   8.918  68.318  1.00  0.00    -0.195 C  
HETATM   16  H1  UNL     1     -11.971  13.017  70.453  1.00  0.00     0.000 HD 
HETATM   17  C   UNL     1     -11.571   9.705  70.404  1.00  0.00    -0.299 C  
HETATM   18  N   UNL     1     -10.829   7.362  70.177  1.00  0.00    -0.252 NA 
HETATM   19  N   UNL     1     -12.212  12.050  70.670  1.00  0.00    -0.371 NA 
HETATM   20  H1  UNL     1     -10.888   7.258  71.190  1.00  0.00     0.000 HD 
HETATM   21  H2  UNL     1     -10.165   6.709  69.761  1.00  0.00     0.000 HD 
HETATM   22  C   UNL     1     -11.208  11.159  70.077  1.00  0.00    -0.181 C  
HETATM   23  C   UNL     1     -10.518   8.762  69.840  1.00  0.00    -0.221 C  
HETATM   24  C   UNL     1     -11.058  11.405  68.537  1.00  0.00    -0.235 C  
BRANCH  24  25
HETATM   25  O   UNL     1     -10.713  12.771  68.181  1.00  0.00    -0.213 OA 
BRANCH  25  26
HETATM   26  C   UNL     1     -11.768  13.582  67.649  1.00  0.00    -0.363 C  
HETATM   27  O   UNL     1     -12.478  14.254  68.691  1.00  0.00    -0.136 OA 
HETATM   28  C   UNL     1     -11.666  15.207  69.394  1.00  0.00    -0.332 C  
HETATM   29  C   UNL     1     -11.261  16.344  68.446  1.00  0.00    -0.324 C  
HETATM   30  H2  UNL     1     -10.983  13.287  65.033  1.00  0.00     0.000 HD 
HETATM   31  C   UNL     1     -10.478  15.752  67.272  1.00  0.00    -0.308 C  
HETATM   32  O   UNL     1     -10.408  17.323  69.057  1.00  0.00    -0.330 OA 
HETATM   33  H1  UNL     1     -10.130  14.709  64.804  1.00  0.00     0.000 HD 
HETATM   34  H   UNL     1     -10.158  18.027  68.470  1.00  0.00     0.000 HD 
HETATM   35  H   UNL     1      -9.715  16.425  65.588  1.00  0.00     0.000 HD 
HETATM   36  N   UNL     1     -10.462  14.033  65.492  1.00  0.00    -0.311 NA 
HETATM   37  O   UNL     1     -10.201  16.793  66.317  1.00  0.00    -0.309 OA 
HETATM   38  C   UNL     1     -11.260  14.616  66.596  1.00  0.00    -0.349 C  
BRANCH  28  39
HETATM   39  C   UNL     1     -12.462  15.675  70.624  1.00  0.00    -0.417 C  
HETATM   40  H2  UNL     1     -13.891  14.190  70.554  1.00  0.00     0.000 HD 
HETATM   41  N   UNL     1     -13.854  15.205  70.642  1.00  0.00    -0.673 NA 
HETATM   42  H1  UNL     1     -14.382  15.516  71.458  1.00  0.00     0.000 HD 
ENDBRANCH  28  39
ENDBRANCH  25  26
ENDBRANCH  24  25
ENDBRANCH  10  11
ENDBRANCH   1  10
BRANCH   5  43
HETATM   43  C   UNL     1      -7.713   8.460  65.255  1.00  0.00    -0.098 C  
HETATM   44  O   UNL     1      -9.072   8.241  64.861  1.00  0.00    -0.391 OA 
HETATM   45  H   UNL     1      -9.312   7.339  65.037  1.00  0.00     0.000 HD 
ENDBRANCH   5  43
TORSDOF 6
ENDMDL
MODEL       81
REMARK 921   NORMALIZED FREE ENERGY PREDICTED BY IDOCK:   -5.80 KCAL/MOL
REMARK 922        TOTAL FREE ENERGY PREDICTED BY IDOCK:   -9.48 KCAL/MOL
REMARK 923 INTER-LIGAND FREE ENERGY PREDICTED BY IDOCK:   -7.97 KCAL/MOL
REMARK 924 INTRA-LIGAND FREE ENERGY PREDICTED BY IDOCK:   -1.50 KCAL/MOL
REMARK 927      BINDING AFFINITY PREDICTED BY RF-SCORE:    0.00 PKD
ROOT
HETATM    1  C   UNL     1     -10.827  10.735  67.679  1.00  0.00    -0.279 C  
HETATM    2  O   UNL     1     -10.352  12.421  64.853  1.00  0.00    -0.280 OA 
HETATM    3  O   UNL     1      -9.655  10.262  67.000  1.00  0.00    -0.163 OA 
HETATM    4  H   UNL     1     -12.514  13.044  66.000  1.00  0.00     0.000 HD 
HETATM    5  C   UNL     1      -8.894  11.397  66.546  1.00  0.00    -0.187 C  
HETATM    6  H   UNL     1     -10.993  13.094  64.655  1.00  0.00     0.000 HD 
HETATM    7  C   UNL     1      -9.921  12.474  66.227  1.00  0.00    -0.252 C  
HETATM    8  O   UNL     1     -12.332  12.177  66.344  1.00  0.00    -0.489 OA 
HETATM    9  C   UNL     1     -11.122  12.147  67.119  1.00  0.00    -0.291 C  
ENDROOT
BRANCH   1  10
HETATM   10  O   UNL     1     -10.586  10.826  69.085  1.00  0.00    -0.200 OA 
BRANCH  10  11
HETATM   11  C   UNL     1     -10.914   9.676  69.912  1.00  0.00    -0.252 C  
HETATM   12  O   UNL     1     -13.212  10.390  70.227  1.00  0.00    -0.488 OA 
HETATM   13  H2  UNL     1      -9.238   6.521  72.898  1.00  0.00     0.000 HD 
HETATM   14  H   UNL     1     -13.900  10.584  70.854  1.00  0.00     0.000 HD 
HETATM   15  C   UNL     1     -12.026   9.989  70.926  1.00  0.00    -0.361 C  
HETATM   16  H1  UNL     1      -8.253   6.982  71.599  1.00  0.00     0.000 HD 
HETATM   17  C   UNL     1     -11.192   8.256  72.531  1.00  0.00    -0.446 C  
HETATM   18  N   UNL     1     -13.474   9.173  72.736  1.00  0.00    -0.780 NA 
HETATM   19  N   UNL     1      -8.969   7.273  72.265  1.00  0.00    -0.130 NA 
HETATM   20  H1  UNL     1     -13.731   8.372  73.312  1.00  0.00     0.000 HD 
HETATM   21  H2  UNL     1     -14.280   9.581  72.262  1.00  0.00     0.000 HD 
HETATM   22  C   UNL     1     -10.115   7.819  71.530  1.00  0.00    -0.178 C  
HETATM   23  C   UNL     1     -12.413   8.784  71.791  1.00  0.00    -0.350 C  
HETATM   24  C   UNL     1      -9.683   8.983  70.572  1.00  0.00    -0.216 C  
BRANCH  24  25
HETATM   25  O   UNL     1      -8.665   8.612  69.604  1.00  0.00    -0.128 OA 
BRANCH  25  26
HETATM   26  C   UNL     1      -8.450   7.209  69.404  1.00  0.00    -0.134 C  
HETATM   27  O   UNL     1      -9.579   6.599  68.772  1.00  0.00    -0.132 OA 
HETATM   28  C   UNL     1      -9.799   7.083  67.439  1.00  0.00    -0.154 C  
HETATM   29  C   UNL     1      -8.624   6.678  66.539  1.00  0.00    -0.124 C  
HETATM   30  H2  UNL     1      -5.795   7.283  70.102  1.00  0.00     0.000 HD 
HETATM   31  C   UNL     1      -7.338   7.279  67.107  1.00  0.00    -0.094 C  
HETATM   32  O   UNL     1      -8.743   7.160  65.192  1.00  0.00    -0.350 OA 
HETATM   33  H1  UNL     1      -5.079   7.340  68.590  1.00  0.00     0.000 HD 
HETATM   34  H   UNL     1      -8.015   6.909  64.635  1.00  0.00     0.000 HD 
HETATM   35  H   UNL     1      -5.417   7.177  66.695  1.00  0.00     0.000 HD 
HETATM   36  N   UNL     1      -5.926   7.538  69.124  1.00  0.00    -0.032 NA 
HETATM   37  O   UNL     1      -6.216   6.804  66.341  1.00  0.00    -0.041 OA 
HETATM   38  C   UNL     1      -7.155   6.908  68.588  1.00  0.00    -0.085 C  
BRANCH  28  39
HETATM   39  C   UNL     1     -11.160   6.539  66.970  1.00  0.00    -0.339 C  
HETATM   40  H2  UNL     1     -10.472   4.694  66.356  1.00  0.00     0.000 HD 
HETATM   41  N   UNL     1     -11.055   5.447  65.992  1.00  0.00    -0.789 NA 
HETATM   42  H1  UNL     1     -11.957   5.087  65.681  1.00  0.00     0.000 HD 
ENDBRANCH  28  39
ENDBRANCH  25  26
ENDBRANCH  24  25
ENDBRANCH  10  11
ENDBRANCH   1  10
BRANCH   5  43
HETATM   43  C   UNL     1      -7.870  11.864  67.589  1.00  0.00    -0.142 C  
HETATM   44  O   UNL     1      -7.506  10.762  68.427  1.00  0.00    -0.087 OA 
HETATM   45  H   UNL     1      -6.872  11.050  69.073  1.00  0.00     0.000 HD 
ENDBRANCH   5  43
TORSDOF 6
ENDMDL
MODEL       82
REMARK 921   NORMALIZED FREE ENERGY PREDICTED BY IDOCK:   -5.79 KCAL/MOL
REMARK 922        TOTAL FREE ENERGY PREDICTED BY IDOCK:   -9.47 KCAL/MOL
REMARK 923 INTER-LIGAND FREE ENERGY PREDICTED BY IDOCK:   -8.67 KCAL/MOL
REMARK 924 INTRA-LIGAND FREE ENERGY PREDICTED BY IDOCK:   -0.80 KCAL/MOL
REMARK 927      BINDING AFFINITY PREDICTED BY RF-SCORE:    0.00 PKD
ROOT
HETATM    1  C   UNL     1     -11.034  10.734  67.244  1.00  0.00    -0.297 C  
HETATM    2  O   UNL     1     -11.992   9.210  70.038  1.00  0.00    -0.447 OA 
HETATM    3  O   UNL     1     -12.115  11.446  67.862  1.00  0.00    -0.646 OA 
HETATM    4  H   UNL     1     -10.240   7.903  68.775  1.00  0.00     0.000 HD 
HETATM    5  C   UNL     1     -11.858  11.542  69.275  1.00  0.00    -0.348 C  
HETATM    6  H   UNL     1     -11.521   8.417  70.265  1.00  0.00     0.000 HD 
HETATM    7  C   UNL     1     -11.103  10.271  69.637  1.00  0.00    -0.274 C  
HETATM    8  O   UNL     1     -10.626   8.448  68.101  1.00  0.00    -0.197 OA 
HETATM    9  C   UNL     1     -10.404   9.847  68.343  1.00  0.00    -0.198 C  
ENDROOT
BRANCH   1  10
HETATM   10  O   UNL     1     -10.050  11.648  66.753  1.00  0.00    -0.208 OA 
BRANCH  10  11
HETATM   11  C   UNL     1     -10.457  13.021  66.498  1.00  0.00    -0.277 C  
HETATM   12  O   UNL     1     -12.513  12.346  65.397  1.00  0.00    -0.637 OA 
HETATM   13  H2  UNL     1      -8.966  17.366  65.741  1.00  0.00     0.000 HD 
HETATM   14  H   UNL     1     -13.053  12.421  64.618  1.00  0.00     0.000 HD 
HETATM   15  C   UNL     1     -11.330  13.141  65.239  1.00  0.00    -0.296 C  
HETATM   16  H1  UNL     1      -8.116  16.422  66.863  1.00  0.00     0.000 HD 
HETATM   17  C   UNL     1     -10.600  15.502  64.834  1.00  0.00    -0.370 C  
HETATM   18  N   UNL     1     -12.618  14.600  63.738  1.00  0.00    -0.988 NA 
HETATM   19  N   UNL     1      -8.660  16.428  65.999  1.00  0.00    -0.412 NA 
HETATM   20  H1  UNL     1     -12.930  15.553  63.554  1.00  0.00     0.000 HD 
HETATM   21  H2  UNL     1     -13.397  13.943  63.783  1.00  0.00     0.000 HD 
HETATM   22  C   UNL     1      -9.782  15.493  66.131  1.00  0.00    -0.319 C  
HETATM   23  C   UNL     1     -11.799  14.574  64.962  1.00  0.00    -0.399 C  
HETATM   24  C   UNL     1      -9.291  14.055  66.516  1.00  0.00    -0.255 C  
BRANCH  24  25
HETATM   25  O   UNL     1      -8.513  13.998  67.742  1.00  0.00    -0.160 OA 
BRANCH  25  26
HETATM   26  C   UNL     1      -7.152  13.567  67.619  1.00  0.00    -0.168 C  
HETATM   27  O   UNL     1      -6.277  14.676  67.398  1.00  0.00    -0.332 OA 
HETATM   28  C   UNL     1      -6.227  15.577  68.514  1.00  0.00    -0.098 C  
HETATM   29  C   UNL     1      -5.607  14.869  69.726  1.00  0.00    -0.101 C  
HETATM   30  H2  UNL     1      -7.660  10.984  68.400  1.00  0.00     0.000 HD 
HETATM   31  C   UNL     1      -6.462  13.650  70.075  1.00  0.00    -0.002 C  
HETATM   32  O   UNL     1      -5.558  15.687  70.904  1.00  0.00    -0.102 OA 
HETATM   33  H1  UNL     1      -7.215  11.055  70.012  1.00  0.00     0.000 HD 
HETATM   34  H   UNL     1      -5.173  15.249  71.654  1.00  0.00     0.000 HD 
HETATM   35  H   UNL     1      -6.352  12.153  71.348  1.00  0.00     0.000 HD 
HETATM   36  N   UNL     1      -7.533  11.594  69.207  1.00  0.00     0.004 NA 
HETATM   37  O   UNL     1      -5.821  12.911  71.131  1.00  0.00    -0.325 OA 
HETATM   38  C   UNL     1      -6.666  12.742  68.851  1.00  0.00    -0.097 C  
BRANCH  28  39
HETATM   39  C   UNL     1      -5.456  16.829  68.062  1.00  0.00    -0.119 C  
HETATM   40  H2  UNL     1      -5.669  17.881  69.824  1.00  0.00     0.000 HD 
HETATM   41  N   UNL     1      -5.793  18.039  68.824  1.00  0.00    -0.188 NA 
HETATM   42  H1  UNL     1      -5.282  18.870  68.525  1.00  0.00     0.000 HD 
ENDBRANCH  28  39
ENDBRANCH  25  26
ENDBRANCH  24  25
ENDBRANCH  10  11
ENDBRANCH   1  10
BRANCH   5  43
HETATM   43  C   UNL     1     -11.069  12.807  69.636  1.00  0.00     0.102 C  
HETATM   44  O   UNL     1     -11.718  13.482  70.719  1.00  0.00    -0.514 OA 
HETATM   45  H   UNL     1     -11.230  14.265  70.943  1.00  0.00     0.000 HD 
ENDBRANCH   5  43
TORSDOF 6
ENDMDL
MODEL       83
REMARK 921   NORMALIZED FREE ENERGY PREDICTED BY IDOCK:   -5.76 KCAL/MOL
REMARK 922        TOTAL FREE ENERGY PREDICTED BY IDOCK:   -9.42 KCAL/MOL
REMARK 923 INTER-LIGAND FREE ENERGY PREDICTED BY IDOCK:   -9.26 KCAL/MOL
REMARK 924 INTRA-LIGAND FREE ENERGY PREDICTED BY IDOCK:   -0.16 KCAL/MOL
REMARK 927      BINDING AFFINITY PREDICTED BY RF-SCORE:    0.00 PKD
ROOT
HETATM    1  C   UNL     1     -10.275  16.380  67.171  1.00  0.00    -0.282 C  
HETATM    2  O   UNL     1     -10.502  18.888  69.341  1.00  0.00    -0.391 OA 
HETATM    3  O   UNL     1     -10.454  17.627  66.484  1.00  0.00    -0.335 OA 
HETATM    4  H   UNL     1     -10.405  16.634  70.474  1.00  0.00     0.000 HD 
HETATM    5  C   UNL     1      -9.585  18.610  67.077  1.00  0.00    -0.304 C  
HETATM    6  H   UNL     1     -10.443  18.653  70.259  1.00  0.00     0.000 HD 
HETATM    7  C   UNL     1      -9.491  18.233  68.549  1.00  0.00    -0.331 C  
HETATM    8  O   UNL     1     -10.724  16.422  69.605  1.00  0.00    -0.311 OA 
HETATM    9  C   UNL     1      -9.757  16.725  68.586  1.00  0.00    -0.259 C  
ENDROOT
BRANCH   1  10
HETATM   10  O   UNL     1      -9.307  15.573  66.496  1.00  0.00    -0.239 OA 
BRANCH  10  11
HETATM   11  C   UNL     1      -9.786  14.524  65.610  1.00  0.00    -0.305 C  
HETATM   12  O   UNL     1     -10.923  16.095  64.150  1.00  0.00    -1.061 OA 
HETATM   13  H2  UNL     1     -11.053  10.053  65.323  1.00  0.00     0.000 HD 
HETATM   14  H   UNL     1     -11.741  16.330  63.726  1.00  0.00     0.000 HD 
HETATM   15  C   UNL     1     -11.109  14.904  64.926  1.00  0.00    -0.414 C  
HETATM   16  H1  UNL     1      -9.749  10.442  66.332  1.00  0.00     0.000 HD 
HETATM   17  C   UNL     1     -11.797  12.506  64.696  1.00  0.00    -0.439 C  
HETATM   18  N   UNL     1     -12.893  14.268  63.360  1.00  0.00    -0.476 NA 
HETATM   19  N   UNL     1     -10.640  10.749  65.943  1.00  0.00    -0.192 NA 
HETATM   20  H1  UNL     1     -13.234  13.552  62.719  1.00  0.00     0.000 HD 
HETATM   21  H2  UNL     1     -12.810  15.179  62.909  1.00  0.00     0.000 HD 
HETATM   22  C   UNL     1     -10.456  12.045  65.281  1.00  0.00    -0.284 C  
HETATM   23  C   UNL     1     -11.623  13.828  63.962  1.00  0.00    -0.275 C  
HETATM   24  C   UNL     1      -9.833  13.105  66.254  1.00  0.00    -0.283 C  
BRANCH  24  25
HETATM   25  O   UNL     1      -8.560  12.710  66.831  1.00  0.00    -0.200 OA 
BRANCH  25  26
HETATM   26  C   UNL     1      -8.463  12.749  68.260  1.00  0.00    -0.161 C  
HETATM   27  O   UNL     1      -9.662  13.264  68.845  1.00  0.00    -0.033 OA 
HETATM   28  C   UNL     1     -10.798  12.415  68.624  1.00  0.00    -0.240 C  
HETATM   29  C   UNL     1     -10.594  11.076  69.345  1.00  0.00    -0.174 C  
HETATM   30  H2  UNL     1      -6.117  11.324  68.368  1.00  0.00     0.000 HD 
HETATM   31  C   UNL     1      -9.330  10.410  68.802  1.00  0.00    -0.175 C  
HETATM   32  O   UNL     1     -11.669  10.147  69.142  1.00  0.00    -0.477 OA 
HETATM   33  H1  UNL     1      -6.700   9.794  68.711  1.00  0.00     0.000 HD 
HETATM   34  H   UNL     1     -11.543   9.318  69.589  1.00  0.00     0.000 HD 
HETATM   35  H   UNL     1      -8.278   8.801  69.220  1.00  0.00     0.000 HD 
HETATM   36  N   UNL     1      -6.923  10.703  68.306  1.00  0.00    -0.071 NA 
HETATM   37  O   UNL     1      -9.064   9.214  69.557  1.00  0.00    -0.144 OA 
HETATM   38  C   UNL     1      -8.122  11.357  68.879  1.00  0.00    -0.067 C  
BRANCH  28  39
HETATM   39  C   UNL     1     -12.047  13.187  69.083  1.00  0.00    -0.214 C  
HETATM   40  H2  UNL     1     -11.062  14.501  70.331  1.00  0.00     0.000 HD 
HETATM   41  N   UNL     1     -11.874  13.885  70.364  1.00  0.00    -0.444 NA 
HETATM   42  H1  UNL     1     -12.702  14.397  70.669  1.00  0.00     0.000 HD 
ENDBRANCH  28  39
ENDBRANCH  25  26
ENDBRANCH  24  25
ENDBRANCH  10  11
ENDBRANCH   1  10
BRANCH   5  43
HETATM   43  C   UNL     1      -8.209  18.651  66.401  1.00  0.00    -0.277 C  
HETATM   44  O   UNL     1      -7.915  19.993  65.997  1.00  0.00    -0.401 OA 
HETATM   45  H   UNL     1      -7.063  20.019  65.578  1.00  0.00     0.000 HD 
ENDBRANCH   5  43
TORSDOF 6
ENDMDL
MODEL       84
REMARK 921   NORMALIZED FREE ENERGY PREDICTED BY IDOCK:   -5.76 KCAL/MOL
REMARK 922        TOTAL FREE ENERGY PREDICTED BY IDOCK:   -9.42 KCAL/MOL
REMARK 923 INTER-LIGAND FREE ENERGY PREDICTED BY IDOCK:   -8.40 KCAL/MOL
REMARK 924 INTRA-LIGAND FREE ENERGY PREDICTED BY IDOCK:   -1.02 KCAL/MOL
REMARK 927      BINDING AFFINITY PREDICTED BY RF-SCORE:    0.00 PKD
ROOT
HETATM    1  C   UNL     1     -10.588  13.348  65.968  1.00  0.00    -0.287 C  
HETATM    2  O   UNL     1     -12.526  14.158  63.391  1.00  0.00    -1.122 OA 
HETATM    3  O   UNL     1     -10.006  14.422  65.217  1.00  0.00    -0.356 OA 
HETATM    4  H   UNL     1     -13.371  12.132  64.638  1.00  0.00     0.000 HD 
HETATM    5  C   UNL     1     -11.033  15.383  64.911  1.00  0.00    -0.437 C  
HETATM    6  H   UNL     1     -13.325  13.654  63.294  1.00  0.00     0.000 HD 
HETATM    7  C   UNL     1     -12.313  14.574  64.755  1.00  0.00    -0.391 C  
HETATM    8  O   UNL     1     -12.448  12.148  64.859  1.00  0.00    -0.467 OA 
HETATM    9  C   UNL     1     -12.092  13.322  65.608  1.00  0.00    -0.441 C  
ENDROOT
BRANCH   1  10
HETATM   10  O   UNL     1     -10.442  13.583  67.371  1.00  0.00    -0.245 OA 
BRANCH  10  11
HETATM   11  C   UNL     1      -9.098  13.608  67.925  1.00  0.00    -0.198 C  
HETATM   12  O   UNL     1      -9.470  15.709  69.082  1.00  0.00    -0.219 OA 
HETATM   13  H2  UNL     1      -4.680  12.288  67.280  1.00  0.00     0.000 HD 
HETATM   14  H   UNL     1      -9.159  16.595  69.229  1.00  0.00     0.000 HD 
HETATM   15  C   UNL     1      -8.595  15.040  68.163  1.00  0.00    -0.156 C  
HETATM   16  H1  UNL     1      -5.903  11.211  66.815  1.00  0.00     0.000 HD 
HETATM   17  C   UNL     1      -6.202  14.357  67.885  1.00  0.00    -0.167 C  
HETATM   18  N   UNL     1      -6.786  16.500  68.960  1.00  0.00    -0.190 NA 
HETATM   19  N   UNL     1      -5.626  12.188  66.914  1.00  0.00    -0.308 NA 
HETATM   20  H1  UNL     1      -5.852  16.536  69.367  1.00  0.00     0.000 HD 
HETATM   21  H2  UNL     1      -7.466  17.027  69.509  1.00  0.00     0.000 HD 
HETATM   22  C   UNL     1      -6.618  12.888  67.737  1.00  0.00    -0.140 C  
HETATM   23  C   UNL     1      -7.191  15.096  68.775  1.00  0.00    -0.127 C  
HETATM   24  C   UNL     1      -8.064  12.734  67.151  1.00  0.00    -0.129 C  
BRANCH  24  25
HETATM   25  O   UNL     1      -8.501  11.357  66.996  1.00  0.00    -0.147 OA 
BRANCH  25  26
HETATM   26  C   UNL     1      -8.046  10.424  67.983  1.00  0.00    -0.110 C  
HETATM   27  O   UNL     1      -8.970  10.330  69.070  1.00  0.00    -0.152 OA 
HETATM   28  C   UNL     1     -10.238   9.786  68.676  1.00  0.00    -0.190 C  
HETATM   29  C   UNL     1     -10.062   8.328  68.230  1.00  0.00    -0.198 C  
HETATM   30  H2  UNL     1      -5.986   9.454  66.447  1.00  0.00     0.000 HD 
HETATM   31  C   UNL     1      -9.087   8.287  67.053  1.00  0.00    -0.145 C  
HETATM   32  O   UNL     1     -11.280   7.717  67.778  1.00  0.00    -0.461 OA 
HETATM   33  H1  UNL     1      -6.686   8.062  65.835  1.00  0.00     0.000 HD 
HETATM   34  H   UNL     1     -11.170   6.814  67.502  1.00  0.00     0.000 HD 
HETATM   35  H   UNL     1      -8.215   6.890  65.976  1.00  0.00     0.000 HD 
HETATM   36  N   UNL     1      -6.865   8.989  66.221  1.00  0.00    -0.077 NA 
HETATM   37  O   UNL     1      -8.821   6.915  66.707  1.00  0.00    -0.117 OA 
HETATM   38  C   UNL     1      -7.772   9.006  67.392  1.00  0.00    -0.092 C  
BRANCH  28  39
HETATM   39  C   UNL     1     -11.204   9.962  69.861  1.00  0.00    -0.250 C  
HETATM   40  H2  UNL     1     -12.945   9.760  68.774  1.00  0.00     0.000 HD 
HETATM   41  N   UNL     1     -12.551  10.395  69.467  1.00  0.00    -0.637 NA 
HETATM   42  H1  UNL     1     -13.192  10.512  70.253  1.00  0.00     0.000 HD 
ENDBRANCH  28  39
ENDBRANCH  25  26
ENDBRANCH  24  25
ENDBRANCH  10  11
ENDBRANCH   1  10
BRANCH   5  43
HETATM   43  C   UNL     1     -11.159  16.462  65.996  1.00  0.00     0.157 C  
HETATM   44  O   UNL     1     -10.344  17.586  65.648  1.00  0.00    -0.601 OA 
HETATM   45  H   UNL     1     -10.422  18.254  66.319  1.00  0.00     0.000 HD 
ENDBRANCH   5  43
TORSDOF 6
ENDMDL
MODEL       85
REMARK 921   NORMALIZED FREE ENERGY PREDICTED BY IDOCK:   -5.75 KCAL/MOL
REMARK 922        TOTAL FREE ENERGY PREDICTED BY IDOCK:   -9.42 KCAL/MOL
REMARK 923 INTER-LIGAND FREE ENERGY PREDICTED BY IDOCK:  -10.54 KCAL/MOL
REMARK 924 INTRA-LIGAND FREE ENERGY PREDICTED BY IDOCK:    1.13 KCAL/MOL
REMARK 927      BINDING AFFINITY PREDICTED BY RF-SCORE:    0.00 PKD
ROOT
HETATM    1  C   UNL     1     -10.971  13.154  65.962  1.00  0.00    -0.279 C  
HETATM    2  O   UNL     1     -12.456  14.138  63.155  1.00  0.00    -1.126 OA 
HETATM    3  O   UNL     1     -10.036  13.826  65.105  1.00  0.00    -0.335 OA 
HETATM    4  H   UNL     1     -13.978  12.757  64.622  1.00  0.00     0.000 HD 
HETATM    5  C   UNL     1     -10.659  15.014  64.584  1.00  0.00    -0.155 C  
HETATM    6  H   UNL     1     -13.378  13.927  63.074  1.00  0.00     0.000 HD 
HETATM    7  C   UNL     1     -12.137  14.676  64.453  1.00  0.00    -0.462 C  
HETATM    8  O   UNL     1     -13.111  12.494  64.907  1.00  0.00    -0.833 OA 
HETATM    9  C   UNL     1     -12.383  13.583  65.498  1.00  0.00    -0.481 C  
ENDROOT
BRANCH   1  10
HETATM   10  O   UNL     1     -10.779  13.555  67.321  1.00  0.00    -0.264 OA 
BRANCH  10  11
HETATM   11  C   UNL     1     -11.757  13.123  68.308  1.00  0.00    -0.349 C  
HETATM   12  O   UNL     1     -12.169  15.386  69.083  1.00  0.00    -0.558 OA 
HETATM   13  H2  UNL     1     -13.075   9.642  71.103  1.00  0.00     0.000 HD 
HETATM   14  H   UNL     1     -12.204  15.970  69.832  1.00  0.00     0.000 HD 
HETATM   15  C   UNL     1     -11.813  14.067  69.519  1.00  0.00    -0.325 C  
HETATM   16  H1  UNL     1     -12.472   9.241  69.572  1.00  0.00     0.000 HD 
HETATM   17  C   UNL     1     -12.584  12.234  71.041  1.00  0.00    -0.352 C  
HETATM   18  N   UNL     1     -12.838  14.602  71.687  1.00  0.00    -0.314 NA 
HETATM   19  N   UNL     1     -12.429   9.892  70.356  1.00  0.00    -0.111 NA 
HETATM   20  H1  UNL     1     -13.532  14.326  72.381  1.00  0.00     0.000 HD 
HETATM   21  H2  UNL     1     -12.964  15.566  71.380  1.00  0.00     0.000 HD 
HETATM   22  C   UNL     1     -12.649  11.255  69.861  1.00  0.00    -0.064 C  
HETATM   23  C   UNL     1     -12.857  13.652  70.562  1.00  0.00    -0.098 C  
HETATM   24  C   UNL     1     -11.637  11.626  68.723  1.00  0.00    -0.313 C  
BRANCH  24  25
HETATM   25  O   UNL     1     -11.665  10.725  67.583  1.00  0.00    -0.538 OA 
BRANCH  25  26
HETATM   26  C   UNL     1     -10.695   9.670  67.575  1.00  0.00    -0.256 C  
HETATM   27  O   UNL     1     -10.253   9.386  66.246  1.00  0.00    -0.274 OA 
HETATM   28  C   UNL     1      -9.541  10.480  65.650  1.00  0.00    -0.226 C  
HETATM   29  C   UNL     1      -8.234  10.728  66.416  1.00  0.00    -0.155 C  
HETATM   30  H2  UNL     1     -10.400   9.611  70.305  1.00  0.00     0.000 HD 
HETATM   31  C   UNL     1      -8.570  11.052  67.872  1.00  0.00    -0.133 C  
HETATM   32  O   UNL     1      -7.476  11.837  65.911  1.00  0.00    -0.182 OA 
HETATM   33  H1  UNL     1      -9.013  10.530  70.486  1.00  0.00     0.000 HD 
HETATM   34  H   UNL     1      -6.667  11.990  66.385  1.00  0.00     0.000 HD 
HETATM   35  H   UNL     1      -7.558  11.367  69.530  1.00  0.00     0.000 HD 
HETATM   36  N   UNL     1      -9.814  10.333  69.887  1.00  0.00    -0.174 NA 
HETATM   37  O   UNL     1      -7.349  11.165  68.625  1.00  0.00    -0.094 OA 
HETATM   38  C   UNL     1      -9.469   9.971  68.492  1.00  0.00    -0.148 C  
BRANCH  28  39
HETATM   39  C   UNL     1      -9.337  10.143  64.163  1.00  0.00    -0.287 C  
HETATM   40  H2  UNL     1      -7.933  11.606  63.784  1.00  0.00     0.000 HD 
HETATM   41  N   UNL     1      -8.798  11.258  63.372  1.00  0.00    -0.443 NA 
HETATM   42  H1  UNL     1      -8.663  11.034  62.385  1.00  0.00     0.000 HD 
ENDBRANCH  28  39
ENDBRANCH  25  26
ENDBRANCH  24  25
ENDBRANCH  10  11
ENDBRANCH   1  10
BRANCH   5  43
HETATM   43  C   UNL     1     -10.422  16.235  65.482  1.00  0.00    -0.362 C  
HETATM   44  O   UNL     1     -11.126  17.363  64.951  1.00  0.00    -0.849 OA 
HETATM   45  H   UNL     1     -10.979  18.119  65.507  1.00  0.00     0.000 HD 
ENDBRANCH   5  43
TORSDOF 6
ENDMDL
MODEL       86
REMARK 921   NORMALIZED FREE ENERGY PREDICTED BY IDOCK:   -5.73 KCAL/MOL
REMARK 922        TOTAL FREE ENERGY PREDICTED BY IDOCK:   -9.39 KCAL/MOL
REMARK 923 INTER-LIGAND FREE ENERGY PREDICTED BY IDOCK:   -8.29 KCAL/MOL
REMARK 924 INTRA-LIGAND FREE ENERGY PREDICTED BY IDOCK:   -1.10 KCAL/MOL
REMARK 927      BINDING AFFINITY PREDICTED BY RF-SCORE:    0.00 PKD
ROOT
HETATM    1  C   UNL     1     -11.314  12.600  68.781  1.00  0.00    -0.289 C  
HETATM    2  O   UNL     1     -12.026  13.797  71.800  1.00  0.00    -0.171 OA 
HETATM    3  O   UNL     1     -11.071  11.607  69.788  1.00  0.00    -0.177 OA 
HETATM    4  H   UNL     1     -12.219  15.551  69.993  1.00  0.00     0.000 HD 
HETATM    5  C   UNL     1     -12.179  11.601  70.708  1.00  0.00    -0.344 C  
HETATM    6  H   UNL     1     -12.335  14.695  71.831  1.00  0.00     0.000 HD 
HETATM    7  C   UNL     1     -12.673  13.040  70.759  1.00  0.00    -0.165 C  
HETATM    8  O   UNL     1     -11.631  14.912  69.608  1.00  0.00    -0.268 OA 
HETATM    9  C   UNL     1     -12.271  13.641  69.409  1.00  0.00    -0.259 C  
ENDROOT
BRANCH   1  10
HETATM   10  O   UNL     1     -11.940  12.010  67.640  1.00  0.00    -0.547 OA 
BRANCH  10  11
HETATM   11  C   UNL     1     -11.291  12.161  66.347  1.00  0.00    -0.356 C  
HETATM   12  O   UNL     1     -12.617  14.109  65.760  1.00  0.00    -0.488 OA 
HETATM   13  H2  UNL     1      -9.135   9.931  62.876  1.00  0.00     0.000 HD 
HETATM   14  H   UNL     1     -13.189  14.509  65.116  1.00  0.00     0.000 HD 
HETATM   15  C   UNL     1     -12.217  12.809  65.305  1.00  0.00    -0.483 C  
HETATM   16  H1  UNL     1      -8.830   9.411  64.459  1.00  0.00     0.000 HD 
HETATM   17  C   UNL     1     -11.042  11.675  63.406  1.00  0.00    -0.422 C  
HETATM   18  N   UNL     1     -12.505  13.622  63.005  1.00  0.00    -0.973 NA 
HETATM   19  N   UNL     1      -9.512   9.813  63.816  1.00  0.00    -0.137 NA 
HETATM   20  H1  UNL     1     -12.060  13.754  62.097  1.00  0.00     0.000 HD 
HETATM   21  H2  UNL     1     -12.898  14.489  63.370  1.00  0.00     0.000 HD 
HETATM   22  C   UNL     1     -10.018  11.071  64.375  1.00  0.00    -0.312 C  
HETATM   23  C   UNL     1     -11.548  13.008  63.940  1.00  0.00    -0.449 C  
HETATM   24  C   UNL     1     -10.605  10.867  65.813  1.00  0.00    -0.163 C  
BRANCH  24  25
HETATM   25  O   UNL     1      -9.667  10.298  66.766  1.00  0.00    -0.173 OA 
BRANCH  25  26
HETATM   26  C   UNL     1      -8.275  10.418  66.445  1.00  0.00    -0.141 C  
HETATM   27  O   UNL     1      -7.779  11.717  66.774  1.00  0.00    -0.149 OA 
HETATM   28  C   UNL     1      -7.806  11.982  68.185  1.00  0.00    -0.145 C  
HETATM   29  C   UNL     1      -6.839  11.037  68.910  1.00  0.00    -0.079 C  
HETATM   30  H2  UNL     1      -7.937   7.746  65.904  1.00  0.00     0.000 HD 
HETATM   31  C   UNL     1      -7.267   9.593  68.640  1.00  0.00    -0.073 C  
HETATM   32  O   UNL     1      -6.835  11.205  70.335  1.00  0.00    -0.490 OA 
HETATM   33  H1  UNL     1      -7.287   7.217  67.353  1.00  0.00     0.000 HD 
HETATM   34  H   UNL     1      -6.236  10.619  70.784  1.00  0.00     0.000 HD 
HETATM   35  H   UNL     1      -6.562   7.801  69.046  1.00  0.00     0.000 HD 
HETATM   36  N   UNL     1      -7.859   7.932  66.903  1.00  0.00    -0.102 NA 
HETATM   37  O   UNL     1      -6.296   8.698  69.214  1.00  0.00    -0.041 OA 
HETATM   38  C   UNL     1      -7.402   9.323  67.133  1.00  0.00    -0.091 C  
BRANCH  28  39
HETATM   39  C   UNL     1      -7.482  13.474  68.380  1.00  0.00    -0.124 C  
HETATM   40  H2  UNL     1      -8.455  14.146  66.690  1.00  0.00     0.000 HD 
HETATM   41  N   UNL     1      -7.548  14.261  67.142  1.00  0.00    -0.338 NA 
HETATM   42  H1  UNL     1      -7.333  15.250  67.272  1.00  0.00     0.000 HD 
ENDBRANCH  28  39
ENDBRANCH  25  26
ENDBRANCH  24  25
ENDBRANCH  10  11
ENDBRANCH   1  10
BRANCH   5  43
HETATM   43  C   UNL     1     -13.282  10.624  70.280  1.00  0.00     0.179 C  
HETATM   44  O   UNL     1     -13.029   9.337  70.853  1.00  0.00    -0.521 OA 
HETATM   45  H   UNL     1     -13.712   8.732  70.589  1.00  0.00     0.000 HD 
ENDBRANCH   5  43
TORSDOF 6
ENDMDL
MODEL       87
REMARK 921   NORMALIZED FREE ENERGY PREDICTED BY IDOCK:   -5.67 KCAL/MOL
REMARK 922        TOTAL FREE ENERGY PREDICTED BY IDOCK:   -9.30 KCAL/MOL
REMARK 923 INTER-LIGAND FREE ENERGY PREDICTED BY IDOCK:   -7.84 KCAL/MOL
REMARK 924 INTRA-LIGAND FREE ENERGY PREDICTED BY IDOCK:   -1.46 KCAL/MOL
REMARK 927      BINDING AFFINITY PREDICTED BY RF-SCORE:    0.00 PKD
ROOT
HETATM    1  C   UNL     1      -9.285   9.268  67.376  1.00  0.00    -0.126 C  
HETATM    2  O   UNL     1      -6.206   8.020  67.254  1.00  0.00    -0.052 OA 
HETATM    3  O   UNL     1      -9.093   8.514  66.170  1.00  0.00    -0.171 OA 
HETATM    4  H   UNL     1      -6.556   9.540  69.239  1.00  0.00     0.000 HD 
HETATM    5  C   UNL     1      -8.424   7.282  66.496  1.00  0.00    -0.125 C  
HETATM    6  H   UNL     1      -5.642   8.225  67.990  1.00  0.00     0.000 HD 
HETATM    7  C   UNL     1      -7.521   7.610  67.677  1.00  0.00    -0.104 C  
HETATM    8  O   UNL     1      -7.225   9.827  68.630  1.00  0.00    -0.071 OA 
HETATM    9  C   UNL     1      -8.194   8.799  68.367  1.00  0.00    -0.118 C  
ENDROOT
BRANCH   1  10
HETATM   10  O   UNL     1     -10.575   9.000  67.931  1.00  0.00    -0.234 OA 
BRANCH  10  11
HETATM   11  C   UNL     1     -10.826   9.405  69.305  1.00  0.00    -0.172 C  
HETATM   12  O   UNL     1     -10.484   7.162  70.169  1.00  0.00    -0.206 OA 
HETATM   13  H2  UNL     1     -13.086  12.417  72.043  1.00  0.00     0.000 HD 
HETATM   14  H   UNL     1     -10.843   6.454  70.691  1.00  0.00     0.000 HD 
HETATM   15  C   UNL     1     -11.407   8.260  70.150  1.00  0.00    -0.060 C  
HETATM   16  H1  UNL     1     -12.448  12.999  70.586  1.00  0.00     0.000 HD 
HETATM   17  C   UNL     1     -12.586   9.851  71.682  1.00  0.00    -0.519 C  
HETATM   18  N   UNL     1     -12.216   7.502  72.343  1.00  0.00    -0.510 NA 
HETATM   19  N   UNL     1     -12.860  12.203  71.072  1.00  0.00    -0.233 NA 
HETATM   20  H1  UNL     1     -12.381   7.762  73.315  1.00  0.00     0.000 HD 
HETATM   21  H2  UNL     1     -11.632   6.670  72.261  1.00  0.00     0.000 HD 
HETATM   22  C   UNL     1     -11.965  11.048  70.950  1.00  0.00    -0.286 C  
HETATM   23  C   UNL     1     -11.654   8.650  71.612  1.00  0.00    -0.310 C  
HETATM   24  C   UNL     1     -11.641  10.726  69.451  1.00  0.00    -0.308 C  
BRANCH  24  25
HETATM   25  O   UNL     1     -11.048  11.832  68.718  1.00  0.00    -0.210 OA 
BRANCH  25  26
HETATM   26  C   UNL     1     -11.933  12.606  67.898  1.00  0.00    -0.249 C  
HETATM   27  O   UNL     1     -12.440  13.737  68.609  1.00  0.00    -0.132 OA 
HETATM   28  C   UNL     1     -11.417  14.682  68.955  1.00  0.00    -0.298 C  
HETATM   29  C   UNL     1     -10.826  15.297  67.679  1.00  0.00    -0.295 C  
HETATM   30  H2  UNL     1     -11.345  11.246  65.585  1.00  0.00     0.000 HD 
HETATM   31  C   UNL     1     -10.237  14.179  66.819  1.00  0.00    -0.262 C  
HETATM   32  O   UNL     1      -9.761  16.226  67.932  1.00  0.00    -0.230 OA 
HETATM   33  H1  UNL     1     -10.225  12.281  64.895  1.00  0.00     0.000 HD 
HETATM   34  H   UNL     1      -9.396  16.607  67.141  1.00  0.00     0.000 HD 
HETATM   35  H   UNL     1      -9.426  14.035  65.032  1.00  0.00     0.000 HD 
HETATM   36  N   UNL     1     -10.659  11.979  65.767  1.00  0.00    -0.254 NA 
HETATM   37  O   UNL     1      -9.791  14.730  65.567  1.00  0.00    -0.342 OA 
HETATM   38  C   UNL     1     -11.269  13.068  66.564  1.00  0.00    -0.302 C  
BRANCH  28  39
HETATM   39  C   UNL     1     -12.043  15.712  69.911  1.00  0.00    -0.341 C  
HETATM   40  H2  UNL     1     -13.330  14.404  70.852  1.00  0.00     0.000 HD 
HETATM   41  N   UNL     1     -13.367  15.324  70.414  1.00  0.00    -0.695 NA 
HETATM   42  H1  UNL     1     -13.782  16.007  71.049  1.00  0.00     0.000 HD 
ENDBRANCH  28  39
ENDBRANCH  25  26
ENDBRANCH  24  25
ENDBRANCH  10  11
ENDBRANCH   1  10
BRANCH   5  43
HETATM   43  C   UNL     1      -9.412   6.153  66.820  1.00  0.00    -0.146 C  
HETATM   44  O   UNL     1     -10.681   6.443  66.222  1.00  0.00    -0.481 OA 
HETATM   45  H   UNL     1     -11.292   5.744  66.422  1.00  0.00     0.000 HD 
ENDBRANCH   5  43
TORSDOF 6
ENDMDL
MODEL       88
REMARK 921   NORMALIZED FREE ENERGY PREDICTED BY IDOCK:   -5.66 KCAL/MOL
REMARK 922        TOTAL FREE ENERGY PREDICTED BY IDOCK:   -9.29 KCAL/MOL
REMARK 923 INTER-LIGAND FREE ENERGY PREDICTED BY IDOCK:   -8.60 KCAL/MOL
REMARK 924 INTRA-LIGAND FREE ENERGY PREDICTED BY IDOCK:   -0.70 KCAL/MOL
REMARK 927      BINDING AFFINITY PREDICTED BY RF-SCORE:    0.00 PKD
ROOT
HETATM    1  C   UNL     1     -11.425  10.430  70.657  1.00  0.00    -0.349 C  
HETATM    2  O   UNL     1     -13.167   9.038  73.123  1.00  0.00    -0.836 OA 
HETATM    3  O   UNL     1     -10.595   9.547  71.425  1.00  0.00    -0.336 OA 
HETATM    4  H   UNL     1     -14.497  10.771  71.858  1.00  0.00     0.000 HD 
HETATM    5  C   UNL     1     -11.319   8.326  71.667  1.00  0.00    -0.272 C  
HETATM    6  H   UNL     1     -14.080   9.292  73.185  1.00  0.00     0.000 HD 
HETATM    7  C   UNL     1     -12.782   8.734  71.767  1.00  0.00    -0.359 C  
HETATM    8  O   UNL     1     -13.598  11.023  71.684  1.00  0.00    -0.152 OA 
HETATM    9  C   UNL     1     -12.889  10.019  70.941  1.00  0.00    -0.324 C  
ENDROOT
BRANCH   1  10
HETATM   10  O   UNL     1     -11.154  10.282  69.261  1.00  0.00    -0.227 OA 
BRANCH  10  11
HETATM   11  C   UNL     1     -11.041  11.486  68.454  1.00  0.00    -0.235 C  
HETATM   12  O   UNL     1     -11.360  12.954  70.360  1.00  0.00    -0.422 OA 
HETATM   13  H2  UNL     1     -11.692  13.318  64.224  1.00  0.00     0.000 HD 
HETATM   14  H   UNL     1     -11.856  13.678  70.724  1.00  0.00     0.000 HD 
HETATM   15  C   UNL     1     -11.843  12.657  69.043  1.00  0.00    -0.294 C  
HETATM   16  H1  UNL     1     -11.122  11.726  64.316  1.00  0.00     0.000 HD 
HETATM   17  C   UNL     1     -12.161  13.706  66.792  1.00  0.00    -0.445 C  
HETATM   18  N   UNL     1     -12.521  15.011  68.855  1.00  0.00    -0.549 NA 
HETATM   19  N   UNL     1     -11.703  12.444  64.748  1.00  0.00    -0.354 NA 
HETATM   20  H1  UNL     1     -12.437  15.870  68.312  1.00  0.00     0.000 HD 
HETATM   21  H2  UNL     1     -12.276  15.150  69.836  1.00  0.00     0.000 HD 
HETATM   22  C   UNL     1     -11.287  12.626  66.143  1.00  0.00    -0.330 C  
HETATM   23  C   UNL     1     -11.717  13.949  68.227  1.00  0.00    -0.361 C  
HETATM   24  C   UNL     1     -11.323  11.274  66.935  1.00  0.00    -0.155 C  
BRANCH  24  25
HETATM   25  O   UNL     1     -10.506  10.221  66.356  1.00  0.00    -0.224 OA 
BRANCH  25  26
HETATM   26  C   UNL     1      -9.108  10.502  66.206  1.00  0.00    -0.164 C  
HETATM   27  O   UNL     1      -8.363  10.030  67.331  1.00  0.00    -0.118 OA 
HETATM   28  C   UNL     1      -8.390   8.600  67.456  1.00  0.00    -0.120 C  
HETATM   29  C   UNL     1      -7.675   7.960  66.259  1.00  0.00    -0.092 C  
HETATM   30  H2  UNL     1      -9.319  11.312  63.590  1.00  0.00     0.000 HD 
HETATM   31  C   UNL     1      -8.385   8.387  64.974  1.00  0.00    -0.158 C  
HETATM   32  O   UNL     1      -7.692   6.525  66.282  1.00  0.00    -0.091 OA 
HETATM   33  H1  UNL     1      -8.855   9.915  62.795  1.00  0.00     0.000 HD 
HETATM   34  H   UNL     1      -7.249   6.129  65.541  1.00  0.00     0.000 HD 
HETATM   35  H   UNL     1      -8.091   8.157  63.042  1.00  0.00     0.000 HD 
HETATM   36  N   UNL     1      -9.244  10.298  63.657  1.00  0.00    -0.258 NA 
HETATM   37  O   UNL     1      -7.650   7.892  63.841  1.00  0.00    -0.106 OA 
HETATM   38  C   UNL     1      -8.514   9.916  64.888  1.00  0.00    -0.161 C  
BRANCH  28  39
HETATM   39  C   UNL     1      -7.768   8.244  68.817  1.00  0.00    -0.114 C  
HETATM   40  H2  UNL     1      -7.517   6.232  68.438  1.00  0.00     0.000 HD 
HETATM   41  N   UNL     1      -7.898   6.825  69.175  1.00  0.00    -0.109 NA 
HETATM   42  H1  UNL     1      -7.485   6.589  70.078  1.00  0.00     0.000 HD 
ENDBRANCH  28  39
ENDBRANCH  25  26
ENDBRANCH  24  25
ENDBRANCH  10  11
ENDBRANCH   1  10
BRANCH   5  43
HETATM   43  C   UNL     1     -11.083   7.284  70.566  1.00  0.00    -0.267 C  
HETATM   44  O   UNL     1     -12.344   6.805  70.083  1.00  0.00    -0.614 OA 
HETATM   45  H   UNL     1     -12.198   6.160  69.402  1.00  0.00     0.000 HD 
ENDBRANCH   5  43
TORSDOF 6
ENDMDL
MODEL       89
REMARK 921   NORMALIZED FREE ENERGY PREDICTED BY IDOCK:   -5.66 KCAL/MOL
REMARK 922        TOTAL FREE ENERGY PREDICTED BY IDOCK:   -9.29 KCAL/MOL
REMARK 923 INTER-LIGAND FREE ENERGY PREDICTED BY IDOCK:   -8.37 KCAL/MOL
REMARK 924 INTRA-LIGAND FREE ENERGY PREDICTED BY IDOCK:   -0.92 KCAL/MOL
REMARK 927      BINDING AFFINITY PREDICTED BY RF-SCORE:    0.00 PKD
ROOT
HETATM    1  C   UNL     1     -10.601  12.581  64.148  1.00  0.00    -0.398 C  
HETATM    2  O   UNL     1     -12.051  15.570  64.009  1.00  0.00    -0.913 OA 
HETATM    3  O   UNL     1      -9.694  13.603  64.586  1.00  0.00    -0.015 OA 
HETATM    4  H   UNL     1     -13.506  13.743  63.050  1.00  0.00     0.000 HD 
HETATM    5  C   UNL     1     -10.395  14.495  65.472  1.00  0.00    -0.359 C  
HETATM    6  H   UNL     1     -12.948  15.585  63.697  1.00  0.00     0.000 HD 
HETATM    7  C   UNL     1     -11.832  14.520  64.971  1.00  0.00    -0.399 C  
HETATM    8  O   UNL     1     -12.632  13.379  62.979  1.00  0.00    -0.669 OA 
HETATM    9  C   UNL     1     -12.025  13.175  64.265  1.00  0.00    -0.411 C  
ENDROOT
BRANCH   1  10
HETATM   10  O   UNL     1     -10.499  11.430  64.989  1.00  0.00    -0.277 OA 
BRANCH  10  11
HETATM   11  C   UNL     1      -9.218  10.743  65.058  1.00  0.00    -0.211 C  
HETATM   12  O   UNL     1      -8.484  11.618  62.916  1.00  0.00    -0.531 OA 
HETATM   13  H2  UNL     1      -6.969   7.022  66.721  1.00  0.00     0.000 HD 
HETATM   14  H   UNL     1      -8.142  11.410  62.054  1.00  0.00     0.000 HD 
HETATM   15  C   UNL     1      -8.665  10.408  63.664  1.00  0.00    -0.198 C  
HETATM   16  H1  UNL     1      -8.140   7.744  67.709  1.00  0.00     0.000 HD 
HETATM   17  C   UNL     1      -7.390   8.435  64.532  1.00  0.00    -0.094 C  
HETATM   18  N   UNL     1      -6.852   9.418  62.334  1.00  0.00    -0.095 NA 
HETATM   19  N   UNL     1      -7.855   7.526  66.754  1.00  0.00    -0.108 NA 
HETATM   20  H1  UNL     1      -5.944   8.954  62.362  1.00  0.00     0.000 HD 
HETATM   21  H2  UNL     1      -6.838  10.253  61.748  1.00  0.00     0.000 HD 
HETATM   22  C   UNL     1      -7.821   8.763  65.967  1.00  0.00    -0.105 C  
HETATM   23  C   UNL     1      -7.301   9.710  63.706  1.00  0.00    -0.123 C  
HETATM   24  C   UNL     1      -9.194   9.517  66.020  1.00  0.00    -0.196 C  
BRANCH  24  25
HETATM   25  O   UNL     1      -9.640   9.851  67.362  1.00  0.00    -0.150 OA 
BRANCH  25  26
HETATM   26  C   UNL     1     -10.885   9.281  67.785  1.00  0.00    -0.126 C  
HETATM   27  O   UNL     1     -10.684   8.022  68.432  1.00  0.00    -0.139 OA 
HETATM   28  C   UNL     1      -9.953   8.139  69.661  1.00  0.00    -0.193 C  
HETATM   29  C   UNL     1     -10.776   8.938  70.681  1.00  0.00    -0.234 C  
HETATM   30  H2  UNL     1     -12.361  11.534  67.244  1.00  0.00     0.000 HD 
HETATM   31  C   UNL     1     -11.059  10.327  70.107  1.00  0.00    -0.319 C  
HETATM   32  O   UNL     1     -10.098   9.140  71.931  1.00  0.00    -0.322 OA 
HETATM   33  H1  UNL     1     -12.456  12.214  68.770  1.00  0.00     0.000 HD 
HETATM   34  H   UNL     1     -10.608   9.634  72.562  1.00  0.00     0.000 HD 
HETATM   35  H   UNL     1     -12.108  11.902  70.645  1.00  0.00     0.000 HD 
HETATM   36  N   UNL     1     -11.923  11.592  68.163  1.00  0.00    -0.610 NA 
HETATM   37  O   UNL     1     -11.932  11.039  71.002  1.00  0.00    -0.318 OA 
HETATM   38  C   UNL     1     -11.700  10.234  68.713  1.00  0.00     0.051 C  
BRANCH  28  39
HETATM   39  C   UNL     1      -9.599   6.716  70.125  1.00  0.00    -0.161 C  
HETATM   40  H2  UNL     1     -10.890   6.667  71.733  1.00  0.00     0.000 HD 
HETATM   41  N   UNL     1      -9.911   6.458  71.537  1.00  0.00    -0.169 NA 
HETATM   42  H1  UNL     1      -9.676   5.514  71.845  1.00  0.00     0.000 HD 
ENDBRANCH  28  39
ENDBRANCH  25  26
ENDBRANCH  24  25
ENDBRANCH  10  11
ENDBRANCH   1  10
BRANCH   5  43
HETATM   43  C   UNL     1     -10.300  14.049  66.938  1.00  0.00    -0.269 C  
HETATM   44  O   UNL     1     -11.516  14.381  67.617  1.00  0.00    -0.311 OA 
HETATM   45  H   UNL     1     -11.457  14.105  68.524  1.00  0.00     0.000 HD 
ENDBRANCH   5  43
TORSDOF 6
ENDMDL
MODEL       90
REMARK 921   NORMALIZED FREE ENERGY PREDICTED BY IDOCK:   -5.62 KCAL/MOL
REMARK 922        TOTAL FREE ENERGY PREDICTED BY IDOCK:   -9.24 KCAL/MOL
REMARK 923 INTER-LIGAND FREE ENERGY PREDICTED BY IDOCK:   -9.22 KCAL/MOL
REMARK 924 INTRA-LIGAND FREE ENERGY PREDICTED BY IDOCK:   -0.02 KCAL/MOL
REMARK 927      BINDING AFFINITY PREDICTED BY RF-SCORE:    0.00 PKD
ROOT
HETATM    1  C   UNL     1     -11.367  15.036  66.968  1.00  0.00    -0.318 C  
HETATM    2  O   UNL     1     -11.459  16.686  64.084  1.00  0.00    -1.375 OA 
HETATM    3  O   UNL     1     -12.466  14.584  66.163  1.00  0.00    -0.315 OA 
HETATM    4  H   UNL     1      -9.687  17.572  65.649  1.00  0.00     0.000 HD 
HETATM    5  C   UNL     1     -12.005  14.403  64.811  1.00  0.00    -0.447 C  
HETATM    6  H   UNL     1     -10.784  17.342  63.955  1.00  0.00     0.000 HD 
HETATM    7  C   UNL     1     -10.924  15.454  64.606  1.00  0.00    -0.314 C  
HETATM    8  O   UNL     1     -10.299  17.146  66.238  1.00  0.00    -0.327 OA 
HETATM    9  C   UNL     1     -10.372  15.729  66.008  1.00  0.00    -0.340 C  
ENDROOT
BRANCH   1  10
HETATM   10  O   UNL     1     -10.722  13.927  67.598  1.00  0.00    -0.247 OA 
BRANCH  10  11
HETATM   11  C   UNL     1     -11.539  13.010  68.377  1.00  0.00    -0.335 C  
HETATM   12  O   UNL     1     -12.744  14.809  69.475  1.00  0.00    -0.576 OA 
HETATM   13  H2  UNL     1     -11.716   8.805  70.368  1.00  0.00     0.000 HD 
HETATM   14  H   UNL     1     -13.015  15.187  70.304  1.00  0.00     0.000 HD 
HETATM   15  C   UNL     1     -11.977  13.622  69.718  1.00  0.00    -0.341 C  
HETATM   16  H1  UNL     1     -10.935   8.939  68.870  1.00  0.00     0.000 HD 
HETATM   17  C   UNL     1     -12.145  11.372  70.806  1.00  0.00    -0.433 C  
HETATM   18  N   UNL     1     -13.230  13.346  71.813  1.00  0.00    -0.404 NA 
HETATM   19  N   UNL     1     -11.158   9.398  69.754  1.00  0.00    -0.211 NA 
HETATM   20  H1  UNL     1     -13.821  12.725  72.365  1.00  0.00     0.000 HD 
HETATM   21  H2  UNL     1     -13.666  14.256  71.662  1.00  0.00     0.000 HD 
HETATM   22  C   UNL     1     -11.809  10.683  69.477  1.00  0.00    -0.273 C  
HETATM   23  C   UNL     1     -12.866  12.688  70.548  1.00  0.00     0.145 C  
HETATM   24  C   UNL     1     -10.932  11.584  68.543  1.00  0.00    -0.223 C  
BRANCH  24  25
HETATM   25  O   UNL     1     -10.591  10.971  67.270  1.00  0.00    -0.217 OA 
BRANCH  25  26
HETATM   26  C   UNL     1      -9.785   9.787  67.324  1.00  0.00    -0.169 C  
HETATM   27  O   UNL     1      -9.718   9.149  66.047  1.00  0.00    -0.263 OA 
HETATM   28  C   UNL     1      -9.048   9.947  65.060  1.00  0.00    -0.218 C  
HETATM   29  C   UNL     1      -7.574  10.124  65.449  1.00  0.00    -0.144 C  
HETATM   30  H2  UNL     1      -8.841  10.270  69.858  1.00  0.00     0.000 HD 
HETATM   31  C   UNL     1      -7.503  10.810  66.813  1.00  0.00    -0.129 C  
HETATM   32  O   UNL     1      -6.836  10.949  64.534  1.00  0.00    -0.329 OA 
HETATM   33  H1  UNL     1      -7.352  10.951  69.508  1.00  0.00     0.000 HD 
HETATM   34  H   UNL     1      -5.924  11.058  64.775  1.00  0.00     0.000 HD 
HETATM   35  H   UNL     1      -6.086  11.295  68.090  1.00  0.00     0.000 HD 
HETATM   36  N   UNL     1      -8.293  10.771  69.158  1.00  0.00    -0.137 NA 
HETATM   37  O   UNL     1      -6.130  10.869  67.241  1.00  0.00    -0.056 OA 
HETATM   38  C   UNL     1      -8.345  10.062  67.859  1.00  0.00    -0.117 C  
BRANCH  28  39
HETATM   39  C   UNL     1      -9.256   9.266  63.696  1.00  0.00     0.249 C  
HETATM   40  H2  UNL     1      -8.973  10.955  62.547  1.00  0.00     0.000 HD 
HETATM   41  N   UNL     1      -9.646  10.192  62.625  1.00  0.00    -0.519 NA 
HETATM   42  H1  UNL     1      -9.783   9.740  61.720  1.00  0.00     0.000 HD 
ENDBRANCH  28  39
ENDBRANCH  25  26
ENDBRANCH  24  25
ENDBRANCH  10  11
ENDBRANCH   1  10
BRANCH   5  43
HETATM   43  C   UNL     1     -11.484  12.981  64.562  1.00  0.00    -0.347 C  
HETATM   44  O   UNL     1     -10.882  12.913  63.265  1.00  0.00    -0.490 OA 
HETATM   45  H   UNL     1     -10.560  12.034  63.110  1.00  0.00     0.000 HD 
ENDBRANCH   5  43
TORSDOF 6
ENDMDL
MODEL       91
REMARK 921   NORMALIZED FREE ENERGY PREDICTED BY IDOCK:   -5.62 KCAL/MOL
REMARK 922        TOTAL FREE ENERGY PREDICTED BY IDOCK:   -9.23 KCAL/MOL
REMARK 923 INTER-LIGAND FREE ENERGY PREDICTED BY IDOCK:   -8.03 KCAL/MOL
REMARK 924 INTRA-LIGAND FREE ENERGY PREDICTED BY IDOCK:   -1.20 KCAL/MOL
REMARK 927      BINDING AFFINITY PREDICTED BY RF-SCORE:    0.00 PKD
ROOT
HETATM    1  C   UNL     1     -11.122  14.129  69.099  1.00  0.00    -0.262 C  
HETATM    2  O   UNL     1     -11.812  16.518  71.306  1.00  0.00    -0.626 OA 
HETATM    3  O   UNL     1     -11.107  13.603  70.434  1.00  0.00     0.250 OA 
HETATM    4  H   UNL     1     -11.604  17.407  68.952  1.00  0.00     0.000 HD 
HETATM    5  C   UNL     1     -12.255  14.106  71.142  1.00  0.00    -0.358 C  
HETATM    6  H   UNL     1     -11.971  17.384  70.949  1.00  0.00     0.000 HD 
HETATM    7  C   UNL     1     -12.509  15.494  70.570  1.00  0.00    -0.427 C  
HETATM    8  O   UNL     1     -11.106  16.598  68.919  1.00  0.00    -0.308 OA 
HETATM    9  C   UNL     1     -11.932  15.446  69.153  1.00  0.00    -0.299 C  
ENDROOT
BRANCH   1  10
HETATM   10  O   UNL     1     -11.765  13.214  68.209  1.00  0.00    -0.309 OA 
BRANCH  10  11
HETATM   11  C   UNL     1     -11.187  13.021  66.889  1.00  0.00    -0.295 C  
HETATM   12  O   UNL     1     -12.138  15.080  66.025  1.00  0.00    -0.062 OA 
HETATM   13  H2  UNL     1      -9.750   9.871  63.776  1.00  0.00     0.000 HD 
HETATM   14  H   UNL     1     -12.662  15.482  65.342  1.00  0.00     0.000 HD 
HETATM   15  C   UNL     1     -12.035  13.671  65.784  1.00  0.00    -0.395 C  
HETATM   16  H1  UNL     1      -9.449   9.558  65.414  1.00  0.00     0.000 HD 
HETATM   17  C   UNL     1     -11.236  12.032  64.066  1.00  0.00    -0.468 C  
HETATM   18  N   UNL     1     -12.309  14.149  63.389  1.00  0.00    -1.144 NA 
HETATM   19  N   UNL     1     -10.080   9.984  64.735  1.00  0.00    -0.207 NA 
HETATM   20  H1  UNL     1     -11.908  14.040  62.458  1.00  0.00     0.000 HD 
HETATM   21  H2  UNL     1     -12.498  15.126  63.615  1.00  0.00     0.000 HD 
HETATM   22  C   UNL     1     -10.289  11.392  65.089  1.00  0.00    -0.290 C  
HETATM   23  C   UNL     1     -11.432  13.508  64.384  1.00  0.00    -0.394 C  
HETATM   24  C   UNL     1     -10.807  11.545  66.560  1.00  0.00    -0.288 C  
BRANCH  24  25
HETATM   25  O   UNL     1      -9.938  10.954  67.563  1.00  0.00    -0.170 OA 
BRANCH  25  26
HETATM   26  C   UNL     1     -10.192   9.586  67.906  1.00  0.00    -0.205 C  
HETATM   27  O   UNL     1      -8.993   8.809  67.851  1.00  0.00    -0.139 OA 
HETATM   28  C   UNL     1      -8.024   9.210  68.831  1.00  0.00    -0.099 C  
HETATM   29  C   UNL     1      -8.566   8.932  70.240  1.00  0.00    -0.167 C  
HETATM   30  H2  UNL     1     -12.765  10.037  68.754  1.00  0.00     0.000 HD 
HETATM   31  C   UNL     1      -9.863   9.718  70.434  1.00  0.00    -0.209 C  
HETATM   32  O   UNL     1      -7.674   9.344  71.287  1.00  0.00    -0.336 OA 
HETATM   33  H1  UNL     1     -12.533  10.134  70.408  1.00  0.00     0.000 HD 
HETATM   34  H   UNL     1      -8.010   9.172  72.159  1.00  0.00     0.000 HD 
HETATM   35  H   UNL     1     -11.248   9.858  71.824  1.00  0.00     0.000 HD 
HETATM   36  N   UNL     1     -12.093  10.236  69.494  1.00  0.00    -0.041 NA 
HETATM   37  O   UNL     1     -10.441   9.369  71.704  1.00  0.00    -0.325 OA 
HETATM   38  C   UNL     1     -10.865   9.429  69.305  1.00  0.00    -0.172 C  
BRANCH  28  39
HETATM   39  C   UNL     1      -6.712   8.473  68.511  1.00  0.00    -0.060 C  
HETATM   40  H2  UNL     1      -7.295   7.748  66.671  1.00  0.00     0.000 HD 
HETATM   41  N   UNL     1      -6.863   7.395  67.525  1.00  0.00    -0.075 NA 
HETATM   42  H1  UNL     1      -5.993   6.907  67.313  1.00  0.00     0.000 HD 
ENDBRANCH  28  39
ENDBRANCH  25  26
ENDBRANCH  24  25
ENDBRANCH  10  11
ENDBRANCH   1  10
BRANCH   5  43
HETATM   43  C   UNL     1     -13.475  13.188  70.997  1.00  0.00     0.303 C  
HETATM   44  O   UNL     1     -13.265  11.991  71.755  1.00  0.00    -0.450 OA 
HETATM   45  H   UNL     1     -14.020  11.422  71.665  1.00  0.00     0.000 HD 
ENDBRANCH   5  43
TORSDOF 6
ENDMDL
MODEL       92
REMARK 921   NORMALIZED FREE ENERGY PREDICTED BY IDOCK:   -5.60 KCAL/MOL
REMARK 922        TOTAL FREE ENERGY PREDICTED BY IDOCK:   -9.20 KCAL/MOL
REMARK 923 INTER-LIGAND FREE ENERGY PREDICTED BY IDOCK:   -7.73 KCAL/MOL
REMARK 924 INTRA-LIGAND FREE ENERGY PREDICTED BY IDOCK:   -1.48 KCAL/MOL
REMARK 927      BINDING AFFINITY PREDICTED BY RF-SCORE:    0.00 PKD
ROOT
HETATM    1  C   UNL     1      -8.613   9.091  67.580  1.00  0.00    -0.120 C  
HETATM    2  O   UNL     1      -8.765   7.085  64.933  1.00  0.00    -0.361 OA 
HETATM    3  O   UNL     1      -7.294   8.735  67.140  1.00  0.00    -0.079 OA 
HETATM    4  H   UNL     1     -11.043   7.582  65.903  1.00  0.00     0.000 HD 
HETATM    5  C   UNL     1      -7.239   8.849  65.706  1.00  0.00    -0.085 C  
HETATM    6  H   UNL     1      -9.636   6.862  64.627  1.00  0.00     0.000 HD 
HETATM    7  C   UNL     1      -8.635   8.492  65.216  1.00  0.00    -0.165 C  
HETATM    8  O   UNL     1     -10.460   7.740  66.636  1.00  0.00    -0.292 OA 
HETATM    9  C   UNL     1      -9.561   8.834  66.386  1.00  0.00    -0.249 C  
ENDROOT
BRANCH   1  10
HETATM   10  O   UNL     1      -8.664  10.475  67.934  1.00  0.00    -0.125 OA 
BRANCH  10  11
HETATM   11  C   UNL     1      -9.941  11.163  67.826  1.00  0.00    -0.175 C  
HETATM   12  O   UNL     1      -9.272  12.369  65.828  1.00  0.00    -0.433 OA 
HETATM   13  H2  UNL     1     -13.594  12.820  70.189  1.00  0.00     0.000 HD 
HETATM   14  H   UNL     1      -9.188  13.218  65.410  1.00  0.00     0.000 HD 
HETATM   15  C   UNL     1      -9.803  12.536  67.149  1.00  0.00    -0.210 C  
HETATM   16  H1  UNL     1     -12.917  11.355  70.705  1.00  0.00     0.000 HD 
HETATM   17  C   UNL     1     -11.802  13.444  68.355  1.00  0.00    -0.401 C  
HETATM   18  N   UNL     1     -10.915  14.576  66.349  1.00  0.00    -0.318 NA 
HETATM   19  N   UNL     1     -12.743  12.266  70.279  1.00  0.00     0.081 NA 
HETATM   20  H1  UNL     1     -11.804  15.065  66.247  1.00  0.00     0.000 HD 
HETATM   21  H2  UNL     1     -10.422  14.486  65.461  1.00  0.00     0.000 HD 
HETATM   22  C   UNL     1     -12.063  12.075  68.994  1.00  0.00    -0.166 C  
HETATM   23  C   UNL     1     -11.139  13.272  66.995  1.00  0.00    -0.282 C  
HETATM   24  C   UNL     1     -10.752  11.232  69.155  1.00  0.00    -0.207 C  
BRANCH  24  25
HETATM   25  O   UNL     1     -10.953   9.924  69.756  1.00  0.00    -0.241 OA 
BRANCH  25  26
HETATM   26  C   UNL     1     -10.900   9.860  71.186  1.00  0.00    -0.156 C  
HETATM   27  O   UNL     1     -12.155   9.446  71.732  1.00  0.00    -0.354 OA 
HETATM   28  C   UNL     1     -12.506   8.104  71.364  1.00  0.00    -0.292 C  
HETATM   29  C   UNL     1     -11.506   7.118  71.982  1.00  0.00    -0.274 C  
HETATM   30  H2  UNL     1      -8.180  10.213  71.329  1.00  0.00     0.000 HD 
HETATM   31  C   UNL     1     -10.104   7.451  71.469  1.00  0.00    -0.185 C  
HETATM   32  O   UNL     1     -11.758   5.749  71.628  1.00  0.00    -0.138 OA 
HETATM   33  H1  UNL     1      -7.672   8.627  71.502  1.00  0.00     0.000 HD 
HETATM   34  H   UNL     1     -11.139   5.139  72.011  1.00  0.00     0.000 HD 
HETATM   35  H   UNL     1      -8.274   6.819  71.818  1.00  0.00     0.000 HD 
HETATM   36  N   UNL     1      -8.417   9.235  71.162  1.00  0.00    -0.319 NA 
HETATM   37  O   UNL     1      -9.145   6.611  72.136  1.00  0.00    -0.139 OA 
HETATM   38  C   UNL     1      -9.760   8.930  71.707  1.00  0.00    -0.295 C  
BRANCH  28  39
HETATM   39  C   UNL     1     -13.962   7.870  71.803  1.00  0.00    -0.399 C  
HETATM   40  H2  UNL     1     -14.267   9.747  72.604  1.00  0.00     0.000 HD 
HETATM   41  N   UNL     1     -14.410   8.773  72.872  1.00  0.00    -1.104 NA 
HETATM   42  H1  UNL     1     -15.376   8.618  73.163  1.00  0.00     0.000 HD 
ENDBRANCH  28  39
ENDBRANCH  25  26
ENDBRANCH  24  25
ENDBRANCH  10  11
ENDBRANCH   1  10
BRANCH   5  43
HETATM   43  C   UNL     1      -6.807  10.250  65.252  1.00  0.00    -0.131 C  
HETATM   44  O   UNL     1      -6.474  11.042  66.398  1.00  0.00    -0.119 OA 
HETATM   45  H   UNL     1      -6.207  11.909  66.117  1.00  0.00     0.000 HD 
ENDBRANCH   5  43
TORSDOF 6
ENDMDL
MODEL       93
REMARK 921   NORMALIZED FREE ENERGY PREDICTED BY IDOCK:   -5.59 KCAL/MOL
REMARK 922        TOTAL FREE ENERGY PREDICTED BY IDOCK:   -9.19 KCAL/MOL
REMARK 923 INTER-LIGAND FREE ENERGY PREDICTED BY IDOCK:   -8.09 KCAL/MOL
REMARK 924 INTRA-LIGAND FREE ENERGY PREDICTED BY IDOCK:   -1.10 KCAL/MOL
REMARK 927      BINDING AFFINITY PREDICTED BY RF-SCORE:    0.00 PKD
ROOT
HETATM    1  C   UNL     1     -11.160  12.693  65.707  1.00  0.00    -0.297 C  
HETATM    2  O   UNL     1     -13.398  11.739  63.441  1.00  0.00    -0.510 OA 
HETATM    3  O   UNL     1     -10.883  11.360  65.254  1.00  0.00    -0.284 OA 
HETATM    4  H   UNL     1     -13.940  13.990  64.448  1.00  0.00     0.000 HD 
HETATM    5  C   UNL     1     -11.006  11.324  63.820  1.00  0.00    -0.301 C  
HETATM    6  H   UNL     1     -14.073  12.372  63.228  1.00  0.00     0.000 HD 
HETATM    7  C   UNL     1     -12.088  12.338  63.479  1.00  0.00    -0.553 C  
HETATM    8  O   UNL     1     -13.390  13.588  65.109  1.00  0.00    -0.655 OA 
HETATM    9  C   UNL     1     -12.057  13.348  64.629  1.00  0.00    -0.410 C  
ENDROOT
BRANCH   1  10
HETATM   10  O   UNL     1      -9.947  13.440  65.830  1.00  0.00    -0.285 OA 
BRANCH  10  11
HETATM   11  C   UNL     1      -9.508  13.819  67.164  1.00  0.00    -0.244 C  
HETATM   12  O   UNL     1     -11.480  15.174  67.572  1.00  0.00    -0.337 OA 
HETATM   13  H2  UNL     1      -5.814  14.559  69.898  1.00  0.00     0.000 HD 
HETATM   14  H   UNL     1     -11.813  16.026  67.831  1.00  0.00     0.000 HD 
HETATM   15  C   UNL     1     -10.047  15.196  67.582  1.00  0.00    -0.231 C  
HETATM   16  H1  UNL     1      -5.733  13.281  68.789  1.00  0.00     0.000 HD 
HETATM   17  C   UNL     1      -8.106  15.604  69.112  1.00  0.00    -0.238 C  
HETATM   18  N   UNL     1     -10.173  16.938  69.311  1.00  0.00    -0.285 NA 
HETATM   19  N   UNL     1      -6.099  14.214  68.982  1.00  0.00    -0.089 NA 
HETATM   20  H1  UNL     1      -9.891  17.211  70.252  1.00  0.00     0.000 HD 
HETATM   21  H2  UNL     1     -11.184  16.976  69.186  1.00  0.00     0.000 HD 
HETATM   22  C   UNL     1      -7.556  14.202  68.820  1.00  0.00    -0.125 C  
HETATM   23  C   UNL     1      -9.624  15.608  68.997  1.00  0.00    -0.243 C  
HETATM   24  C   UNL     1      -7.974  13.680  67.403  1.00  0.00    -0.166 C  
BRANCH  24  25
HETATM   25  O   UNL     1      -7.476  12.353  67.085  1.00  0.00    -0.148 OA 
BRANCH  25  26
HETATM   26  C   UNL     1      -7.268  11.464  68.190  1.00  0.00    -0.082 C  
HETATM   27  O   UNL     1      -8.471  11.283  68.940  1.00  0.00    -0.139 OA 
HETATM   28  C   UNL     1      -9.502  10.624  68.190  1.00  0.00    -0.154 C  
HETATM   29  C   UNL     1      -9.068   9.190  67.859  1.00  0.00    -0.127 C  
HETATM   30  H2  UNL     1      -4.756  10.692  67.390  1.00  0.00     0.000 HD 
HETATM   31  C   UNL     1      -7.777   9.241  67.042  1.00  0.00    -0.095 C  
HETATM   32  O   UNL     1     -10.026   8.469  67.070  1.00  0.00    -0.200 OA 
HETATM   33  H1  UNL     1      -5.106   9.243  66.630  1.00  0.00     0.000 HD 
HETATM   34  H   UNL     1      -9.757   7.581  66.866  1.00  0.00     0.000 HD 
HETATM   35  H   UNL     1      -6.494   7.933  66.324  1.00  0.00     0.000 HD 
HETATM   36  N   UNL     1      -5.477  10.148  66.917  1.00  0.00    -0.044 NA 
HETATM   37  O   UNL     1      -7.296   7.901  66.832  1.00  0.00    -0.086 OA 
HETATM   38  C   UNL     1      -6.700  10.079  67.750  1.00  0.00    -0.071 C  
BRANCH  28  39
HETATM   39  C   UNL     1     -10.799  10.708  69.014  1.00  0.00    -0.235 C  
HETATM   40  H2  UNL     1     -11.949   9.546  67.756  1.00  0.00     0.000 HD 
HETATM   41  N   UNL     1     -12.015  10.446  68.232  1.00  0.00    -0.726 NA 
HETATM   42  H1  UNL     1     -12.874  10.501  68.779  1.00  0.00     0.000 HD 
ENDBRANCH  28  39
ENDBRANCH  25  26
ENDBRANCH  24  25
ENDBRANCH  10  11
ENDBRANCH   1  10
BRANCH   5  43
HETATM   43  C   UNL     1      -9.678  11.635  63.117  1.00  0.00    -0.360 C  
HETATM   44  O   UNL     1      -8.589  11.335  63.997  1.00  0.00    -0.370 OA 
HETATM   45  H   UNL     1      -7.767  11.527  63.561  1.00  0.00     0.000 HD 
ENDBRANCH   5  43
TORSDOF 6
ENDMDL
MODEL       94
REMARK 921   NORMALIZED FREE ENERGY PREDICTED BY IDOCK:   -5.55 KCAL/MOL
REMARK 922        TOTAL FREE ENERGY PREDICTED BY IDOCK:   -9.14 KCAL/MOL
REMARK 923 INTER-LIGAND FREE ENERGY PREDICTED BY IDOCK:   -7.20 KCAL/MOL
REMARK 924 INTRA-LIGAND FREE ENERGY PREDICTED BY IDOCK:   -1.93 KCAL/MOL
REMARK 927      BINDING AFFINITY PREDICTED BY RF-SCORE:    0.00 PKD
ROOT
HETATM    1  C   UNL     1      -9.740  11.935  65.873  1.00  0.00    -0.238 C  
HETATM    2  O   UNL     1     -11.081  11.464  62.868  1.00  0.00    -0.791 OA 
HETATM    3  O   UNL     1     -10.097  13.190  65.277  1.00  0.00    -0.287 OA 
HETATM    4  H   UNL     1     -10.226   9.320  63.892  1.00  0.00     0.000 HD 
HETATM    5  C   UNL     1     -11.410  13.070  64.698  1.00  0.00    -0.327 C  
HETATM    6  H   UNL     1     -11.149  10.562  62.577  1.00  0.00     0.000 HD 
HETATM    7  C   UNL     1     -11.518  11.626  64.232  1.00  0.00    -0.250 C  
HETATM    8  O   UNL     1      -9.724   9.988  64.344  1.00  0.00    -0.305 OA 
HETATM    9  C   UNL     1     -10.558  10.848  65.137  1.00  0.00    -0.198 C  
ENDROOT
BRANCH   1  10
HETATM   10  O   UNL     1     -10.082  11.925  67.261  1.00  0.00    -0.195 OA 
BRANCH  10  11
HETATM   11  C   UNL     1      -9.041  12.243  68.226  1.00  0.00    -0.187 C  
HETATM   12  O   UNL     1      -9.488  14.627  68.122  1.00  0.00    -0.200 OA 
HETATM   13  H2  UNL     1      -4.940  10.921  69.987  1.00  0.00     0.000 HD 
HETATM   14  H   UNL     1      -9.122  15.493  67.983  1.00  0.00     0.000 HD 
HETATM   15  C   UNL     1      -8.451  13.644  68.001  1.00  0.00    -0.174 C  
HETATM   16  H1  UNL     1      -6.058   9.711  69.595  1.00  0.00     0.000 HD 
HETATM   17  C   UNL     1      -6.250  12.988  69.000  1.00  0.00    -0.094 C  
HETATM   18  N   UNL     1      -6.855  15.365  68.729  1.00  0.00    -0.109 NA 
HETATM   19  N   UNL     1      -5.693  10.635  69.363  1.00  0.00    -0.037 NA 
HETATM   20  H1  UNL     1      -6.137  15.613  69.409  1.00  0.00     0.000 HD 
HETATM   21  H2  UNL     1      -7.600  16.061  68.686  1.00  0.00     0.000 HD 
HETATM   22  C   UNL     1      -6.799  11.599  69.347  1.00  0.00    -0.086 C  
HETATM   23  C   UNL     1      -7.371  14.017  69.023  1.00  0.00    -0.081 C  
HETATM   24  C   UNL     1      -7.941  11.149  68.373  1.00  0.00    -0.137 C  
BRANCH  24  25
HETATM   25  O   UNL     1      -8.493   9.837  68.667  1.00  0.00    -0.111 OA 
BRANCH  25  26
HETATM   26  C   UNL     1      -8.570   9.468  70.049  1.00  0.00    -0.215 C  
HETATM   27  O   UNL     1      -9.829   9.842  70.614  1.00  0.00    -0.244 OA 
HETATM   28  C   UNL     1     -10.933   9.133  70.032  1.00  0.00    -0.220 C  
HETATM   29  C   UNL     1     -10.822   7.638  70.363  1.00  0.00    -0.244 C  
HETATM   30  H2  UNL     1      -6.259   7.984  70.018  1.00  0.00     0.000 HD 
HETATM   31  C   UNL     1      -9.503   7.105  69.802  1.00  0.00    -0.149 C  
HETATM   32  O   UNL     1     -11.867   6.844  69.782  1.00  0.00    -0.613 OA 
HETATM   33  H1  UNL     1      -6.884   6.442  69.843  1.00  0.00     0.000 HD 
HETATM   34  H   UNL     1     -11.799   5.919  69.987  1.00  0.00     0.000 HD 
HETATM   35  H   UNL     1      -8.514   5.405  69.864  1.00  0.00     0.000 HD 
HETATM   36  N   UNL     1      -7.053   7.436  69.690  1.00  0.00    -0.070 NA 
HETATM   37  O   UNL     1      -9.334   5.736  70.212  1.00  0.00    -0.152 OA 
HETATM   38  C   UNL     1      -8.311   7.947  70.283  1.00  0.00    -0.126 C  
BRANCH  28  39
HETATM   39  C   UNL     1     -12.226   9.790  70.545  1.00  0.00    -0.130 C  
HETATM   40  H2  UNL     1     -12.130   9.029  72.460  1.00  0.00     0.000 HD 
HETATM   41  N   UNL     1     -12.814   9.111  71.708  1.00  0.00    -0.351 NA 
HETATM   42  H1  UNL     1     -13.671   9.548  72.048  1.00  0.00     0.000 HD 
ENDBRANCH  28  39
ENDBRANCH  25  26
ENDBRANCH  24  25
ENDBRANCH  10  11
ENDBRANCH   1  10
BRANCH   5  43
HETATM   43  C   UNL     1     -12.518  13.442  65.692  1.00  0.00    -0.464 C  
HETATM   44  O   UNL     1     -11.973  14.263  66.731  1.00  0.00    -0.414 OA 
HETATM   45  H   UNL     1     -12.658  14.493  67.346  1.00  0.00     0.000 HD 
ENDBRANCH   5  43
TORSDOF 6
ENDMDL
MODEL       95
REMARK 921   NORMALIZED FREE ENERGY PREDICTED BY IDOCK:   -5.54 KCAL/MOL
REMARK 922        TOTAL FREE ENERGY PREDICTED BY IDOCK:   -9.12 KCAL/MOL
REMARK 923 INTER-LIGAND FREE ENERGY PREDICTED BY IDOCK:   -7.68 KCAL/MOL
REMARK 924 INTRA-LIGAND FREE ENERGY PREDICTED BY IDOCK:   -1.45 KCAL/MOL
REMARK 927      BINDING AFFINITY PREDICTED BY RF-SCORE:    0.00 PKD
ROOT
HETATM    1  C   UNL     1      -9.049   9.776  68.475  1.00  0.00    -0.128 C  
HETATM    2  O   UNL     1      -5.996   8.743  69.292  1.00  0.00    -0.040 OA 
HETATM    3  O   UNL     1      -8.565   8.823  67.518  1.00  0.00    -0.125 OA 
HETATM    4  H   UNL     1      -6.832  10.584  70.805  1.00  0.00     0.000 HD 
HETATM    5  C   UNL     1      -7.961   7.724  68.224  1.00  0.00    -0.122 C  
HETATM    6  H   UNL     1      -5.624   9.122  70.080  1.00  0.00     0.000 HD 
HETATM    7  C   UNL     1      -7.364   8.331  69.486  1.00  0.00    -0.074 C  
HETATM    8  O   UNL     1      -7.349  10.704  70.017  1.00  0.00    -0.133 OA 
HETATM    9  C   UNL     1      -8.206   9.580  69.757  1.00  0.00    -0.151 C  
ENDROOT
BRANCH   1  10
HETATM   10  O   UNL     1     -10.426   9.530  68.772  1.00  0.00    -0.209 OA 
BRANCH  10  11
HETATM   11  C   UNL     1     -10.967  10.072  70.008  1.00  0.00    -0.300 C  
HETATM   12  O   UNL     1     -10.990   7.905  71.102  1.00  0.00    -0.233 OA 
HETATM   13  H2  UNL     1     -13.603  13.425  71.874  1.00  0.00     0.000 HD 
HETATM   14  H   UNL     1     -11.509   7.265  71.576  1.00  0.00     0.000 HD 
HETATM   15  C   UNL     1     -11.806   9.037  70.775  1.00  0.00    -0.206 C  
HETATM   16  H1  UNL     1     -12.601  13.840  70.572  1.00  0.00     0.000 HD 
HETATM   17  C   UNL     1     -13.205  10.817  71.847  1.00  0.00    -0.524 C  
HETATM   18  N   UNL     1     -13.160   8.524  72.760  1.00  0.00    -0.640 NA 
HETATM   19  N   UNL     1     -13.169  13.112  71.006  1.00  0.00    -0.037 NA 
HETATM   20  H1  UNL     1     -13.532   8.880  73.640  1.00  0.00     0.000 HD 
HETATM   21  H2  UNL     1     -12.630   7.662  72.887  1.00  0.00     0.000 HD 
HETATM   22  C   UNL     1     -12.350  11.910  71.195  1.00  0.00    -0.198 C  
HETATM   23  C   UNL     1     -12.365   9.572  72.099  1.00  0.00    -0.260 C  
HETATM   24  C   UNL     1     -11.703  11.436  69.848  1.00  0.00    -0.346 C  
BRANCH  24  25
HETATM   25  O   UNL     1     -10.881  12.442  69.196  1.00  0.00    -0.197 OA 
BRANCH  25  26
HETATM   26  C   UNL     1     -11.575  13.491  68.509  1.00  0.00    -0.333 C  
HETATM   27  O   UNL     1     -11.043  14.773  68.852  1.00  0.00    -0.231 OA 
HETATM   28  C   UNL     1      -9.687  14.948  68.416  1.00  0.00    -0.209 C  
HETATM   29  C   UNL     1      -9.629  14.935  66.882  1.00  0.00    -0.245 C  
HETATM   30  H2  UNL     1     -12.978  11.796  66.864  1.00  0.00     0.000 HD 
HETATM   31  C   UNL     1     -10.173  13.597  66.379  1.00  0.00    -0.292 C  
HETATM   32  O   UNL     1      -8.299  15.062  66.359  1.00  0.00    -0.400 OA 
HETATM   33  H1  UNL     1     -12.042  11.866  65.478  1.00  0.00     0.000 HD 
HETATM   34  H   UNL     1      -8.263  15.055  65.409  1.00  0.00     0.000 HD 
HETATM   35  H   UNL     1     -10.574  12.793  64.629  1.00  0.00     0.000 HD 
HETATM   36  N   UNL     1     -12.048  11.986  66.491  1.00  0.00    -0.541 NA 
HETATM   37  O   UNL     1     -10.237  13.624  64.941  1.00  0.00    -0.372 OA 
HETATM   38  C   UNL     1     -11.566  13.306  66.959  1.00  0.00    -0.359 C  
BRANCH  28  39
HETATM   39  C   UNL     1      -9.163  16.248  69.048  1.00  0.00    -0.253 C  
HETATM   40  H2  UNL     1     -10.146  17.539  67.775  1.00  0.00     0.000 HD 
HETATM   41  N   UNL     1      -9.205  17.405  68.144  1.00  0.00    -0.263 NA 
HETATM   42  H1  UNL     1      -8.857  18.268  68.564  1.00  0.00     0.000 HD 
ENDBRANCH  28  39
ENDBRANCH  25  26
ENDBRANCH  24  25
ENDBRANCH  10  11
ENDBRANCH   1  10
BRANCH   5  43
HETATM   43  C   UNL     1      -8.970   6.611  68.539  1.00  0.00    -0.120 C  
HETATM   44  O   UNL     1      -8.818   6.200  69.902  1.00  0.00    -0.137 OA 
HETATM   45  H   UNL     1      -9.442   5.511  70.097  1.00  0.00     0.000 HD 
ENDBRANCH   5  43
TORSDOF 6
ENDMDL
MODEL       96
REMARK 921   NORMALIZED FREE ENERGY PREDICTED BY IDOCK:   -5.53 KCAL/MOL
REMARK 922        TOTAL FREE ENERGY PREDICTED BY IDOCK:   -9.12 KCAL/MOL
REMARK 923 INTER-LIGAND FREE ENERGY PREDICTED BY IDOCK:   -8.16 KCAL/MOL
REMARK 924 INTRA-LIGAND FREE ENERGY PREDICTED BY IDOCK:   -0.96 KCAL/MOL
REMARK 927      BINDING AFFINITY PREDICTED BY RF-SCORE:    0.00 PKD
ROOT
HETATM    1  C   UNL     1     -11.608  13.723  66.031  1.00  0.00    -0.346 C  
HETATM    2  O   UNL     1     -12.571  13.152  62.901  1.00  0.00    -0.564 OA 
HETATM    3  O   UNL     1     -12.120  12.389  65.896  1.00  0.00    -0.580 OA 
HETATM    4  H   UNL     1     -11.860  15.546  63.273  1.00  0.00     0.000 HD 
HETATM    5  C   UNL     1     -11.576  11.804  64.698  1.00  0.00    -0.198 C  
HETATM    6  H   UNL     1     -12.463  13.873  62.292  1.00  0.00     0.000 HD 
HETATM    7  C   UNL     1     -11.403  12.960  63.723  1.00  0.00    -0.435 C  
HETATM    8  O   UNL     1     -12.091  15.254  64.147  1.00  0.00    -0.554 OA 
HETATM    9  C   UNL     1     -11.232  14.198  64.608  1.00  0.00    -0.368 C  
ENDROOT
BRANCH   1  10
HETATM   10  O   UNL     1     -10.440  13.727  66.855  1.00  0.00    -0.269 OA 
BRANCH  10  11
HETATM   11  C   UNL     1     -10.605  13.983  68.277  1.00  0.00    -0.249 C  
HETATM   12  O   UNL     1     -11.811  11.909  68.645  1.00  0.00    -0.306 OA 
HETATM   13  H2  UNL     1     -10.998  17.281  71.540  1.00  0.00     0.000 HD 
HETATM   14  H   UNL     1     -12.597  11.504  68.994  1.00  0.00     0.000 HD 
HETATM   15  C   UNL     1     -11.876  13.328  68.840  1.00  0.00    -0.327 C  
HETATM   16  H1  UNL     1      -9.925  17.560  70.259  1.00  0.00     0.000 HD 
HETATM   17  C   UNL     1     -12.086  15.048  70.648  1.00  0.00    -0.375 C  
HETATM   18  N   UNL     1     -13.302  12.906  70.796  1.00  0.00     0.348 NA 
HETATM   19  N   UNL     1     -10.800  17.126  70.552  1.00  0.00     0.459 NA 
HETATM   20  H1  UNL     1     -13.424  13.058  71.797  1.00  0.00     0.000 HD 
HETATM   21  H2  UNL     1     -13.328  11.915  70.552  1.00  0.00     0.000 HD 
HETATM   22  C   UNL     1     -10.769  15.700  70.207  1.00  0.00    -0.338 C  
HETATM   23  C   UNL     1     -12.061  13.557  70.344  1.00  0.00    -0.345 C  
HETATM   24  C   UNL     1     -10.478  15.483  68.682  1.00  0.00    -0.237 C  
BRANCH  24  25
HETATM   25  O   UNL     1      -9.237  16.083  68.221  1.00  0.00    -0.187 OA 
BRANCH  25  26
HETATM   26  C   UNL     1      -9.219  17.512  68.111  1.00  0.00    -0.277 C  
HETATM   27  O   UNL     1      -8.288  18.089  69.029  1.00  0.00    -0.169 OA 
HETATM   28  C   UNL     1      -6.928  17.728  68.744  1.00  0.00    -0.257 C  
HETATM   29  C   UNL     1      -6.507  18.318  67.392  1.00  0.00    -0.185 C  
HETATM   30  H2  UNL     1     -10.764  17.585  65.841  1.00  0.00     0.000 HD 
HETATM   31  C   UNL     1      -7.433  17.770  66.305  1.00  0.00    -0.293 C  
HETATM   32  O   UNL     1      -5.169  17.969  67.006  1.00  0.00    -0.120 OA 
HETATM   33  H1  UNL     1      -9.582  17.742  64.667  1.00  0.00     0.000 HD 
HETATM   34  H   UNL     1      -4.909  18.335  66.169  1.00  0.00     0.000 HD 
HETATM   35  H   UNL     1      -7.700  18.071  64.379  1.00  0.00     0.000 HD 
HETATM   36  N   UNL     1      -9.784  17.422  65.614  1.00  0.00    -0.509 NA 
HETATM   37  O   UNL     1      -7.125  18.411  65.054  1.00  0.00    -0.305 OA 
HETATM   38  C   UNL     1      -8.910  18.001  66.661  1.00  0.00    -0.266 C  
BRANCH  28  39
HETATM   39  C   UNL     1      -6.066  18.204  69.927  1.00  0.00    -0.157 C  
HETATM   40  H2  UNL     1      -4.774  16.597  69.934  1.00  0.00     0.000 HD 
HETATM   41  N   UNL     1      -5.338  17.121  70.602  1.00  0.00    -0.243 NA 
HETATM   42  H1  UNL     1      -4.767  17.437  71.386  1.00  0.00     0.000 HD 
ENDBRANCH  28  39
ENDBRANCH  25  26
ENDBRANCH  24  25
ENDBRANCH  10  11
ENDBRANCH   1  10
BRANCH   5  43
HETATM   43  C   UNL     1     -10.256  11.067  64.962  1.00  0.00    -0.299 C  
HETATM   44  O   UNL     1     -10.063  10.922  66.373  1.00  0.00    -0.216 OA 
HETATM   45  H   UNL     1      -9.246  10.466  66.536  1.00  0.00     0.000 HD 
ENDBRANCH   5  43
TORSDOF 6
ENDMDL
MODEL       97
REMARK 921   NORMALIZED FREE ENERGY PREDICTED BY IDOCK:   -5.53 KCAL/MOL
REMARK 922        TOTAL FREE ENERGY PREDICTED BY IDOCK:   -9.11 KCAL/MOL
REMARK 923 INTER-LIGAND FREE ENERGY PREDICTED BY IDOCK:   -8.22 KCAL/MOL
REMARK 924 INTRA-LIGAND FREE ENERGY PREDICTED BY IDOCK:   -0.89 KCAL/MOL
REMARK 927      BINDING AFFINITY PREDICTED BY RF-SCORE:    0.00 PKD
ROOT
HETATM    1  C   UNL     1      -6.419  15.363  69.195  1.00  0.00    -0.128 C  
HETATM    2  O   UNL     1      -5.127  12.367  69.834  1.00  0.00    -0.072 OA 
HETATM    3  O   UNL     1      -5.979  14.734  67.983  1.00  0.00    -0.128 OA 
HETATM    4  H   UNL     1      -5.726  13.631  71.936  1.00  0.00     0.000 HD 
HETATM    5  C   UNL     1      -6.412  13.361  67.990  1.00  0.00    -0.131 C  
HETATM    6  H   UNL     1      -5.116  12.103  70.747  1.00  0.00     0.000 HD 
HETATM    7  C   UNL     1      -6.394  12.937  69.452  1.00  0.00    -0.109 C  
HETATM    8  O   UNL     1      -5.620  14.323  71.294  1.00  0.00    -0.173 OA 
HETATM    9  C   UNL     1      -6.592  14.235  70.240  1.00  0.00    -0.042 C  
ENDROOT
BRANCH   1  10
HETATM   10  O   UNL     1      -7.675  16.015  68.991  1.00  0.00    -0.189 OA 
BRANCH  10  11
HETATM   11  C   UNL     1      -7.744  17.073  67.996  1.00  0.00    -0.180 C  
HETATM   12  O   UNL     1      -5.827  18.244  68.916  1.00  0.00    -0.196 OA 
HETATM   13  H2  UNL     1     -10.558  19.484  65.178  1.00  0.00     0.000 HD 
HETATM   14  H   UNL     1      -5.490  19.069  69.247  1.00  0.00     0.000 HD 
HETATM   15  C   UNL     1      -7.198  18.407  68.530  1.00  0.00    -0.284 C  
HETATM   16  H1  UNL     1     -10.866  17.829  65.377  1.00  0.00     0.000 HD 
HETATM   17  C   UNL     1      -8.652  19.738  66.985  1.00  0.00    -0.378 C  
HETATM   18  N   UNL     1      -6.702  20.773  68.088  1.00  0.00    -0.267 NA 
HETATM   19  N   UNL     1     -10.521  18.686  65.811  1.00  0.00    -0.615 NA 
HETATM   20  H1  UNL     1      -6.724  21.522  67.397  1.00  0.00     0.000 HD 
HETATM   21  H2  UNL     1      -5.771  20.642  68.484  1.00  0.00     0.000 HD 
HETATM   22  C   UNL     1      -9.170  18.450  66.332  1.00  0.00    -0.273 C  
HETATM   23  C   UNL     1      -7.231  19.534  67.492  1.00  0.00    -0.224 C  
HETATM   24  C   UNL     1      -9.136  17.229  67.313  1.00  0.00    -0.228 C  
BRANCH  24  25
HETATM   25  O   UNL     1      -9.618  15.985  66.735  1.00  0.00    -0.218 OA 
BRANCH  25  26
HETATM   26  C   UNL     1     -11.039  15.808  66.689  1.00  0.00    -0.099 C  
HETATM   27  O   UNL     1     -11.438  15.150  65.484  1.00  0.00    -0.312 OA 
HETATM   28  C   UNL     1     -10.944  13.805  65.393  1.00  0.00    -0.309 C  
HETATM   29  C   UNL     1     -11.576  12.945  66.496  1.00  0.00    -0.371 C  
HETATM   30  H2  UNL     1     -11.450  16.583  69.291  1.00  0.00     0.000 HD 
HETATM   31  C   UNL     1     -11.217  13.544  67.856  1.00  0.00    -0.274 C  
HETATM   32  O   UNL     1     -11.104  11.590  66.506  1.00  0.00    -0.293 OA 
HETATM   33  H1  UNL     1     -11.553  15.093  70.046  1.00  0.00     0.000 HD 
HETATM   34  H   UNL     1     -11.495  11.057  67.189  1.00  0.00     0.000 HD 
HETATM   35  H   UNL     1     -11.682  13.190  69.735  1.00  0.00     0.000 HD 
HETATM   36  N   UNL     1     -11.192  15.598  69.237  1.00  0.00    -0.295 NA 
HETATM   37  O   UNL     1     -11.905  12.817  68.890  1.00  0.00    -0.305 OA 
HETATM   38  C   UNL     1     -11.591  15.034  67.927  1.00  0.00    -0.333 C  
BRANCH  28  39
HETATM   39  C   UNL     1     -11.233  13.302  63.969  1.00  0.00    -0.339 C  
HETATM   40  H2  UNL     1     -12.104  15.040  63.280  1.00  0.00     0.000 HD 
HETATM   41  N   UNL     1     -12.304  14.040  63.286  1.00  0.00    -1.145 NA 
HETATM   42  H1  UNL     1     -12.495  13.706  62.341  1.00  0.00     0.000 HD 
ENDBRANCH  28  39
ENDBRANCH  25  26
ENDBRANCH  24  25
ENDBRANCH  10  11
ENDBRANCH   1  10
BRANCH   5  43
HETATM   43  C   UNL     1      -7.797  13.186  67.354  1.00  0.00    -0.165 C  
HETATM   44  O   UNL     1      -8.148  11.798  67.346  1.00  0.00    -0.144 OA 
HETATM   45  H   UNL     1      -9.005  11.690  66.952  1.00  0.00     0.000 HD 
ENDBRANCH   5  43
TORSDOF 6
ENDMDL
MODEL       98
REMARK 921   NORMALIZED FREE ENERGY PREDICTED BY IDOCK:   -5.51 KCAL/MOL
REMARK 922        TOTAL FREE ENERGY PREDICTED BY IDOCK:   -9.09 KCAL/MOL
REMARK 923 INTER-LIGAND FREE ENERGY PREDICTED BY IDOCK:   -8.13 KCAL/MOL
REMARK 924 INTRA-LIGAND FREE ENERGY PREDICTED BY IDOCK:   -0.96 KCAL/MOL
REMARK 927      BINDING AFFINITY PREDICTED BY RF-SCORE:    0.00 PKD
ROOT
HETATM    1  C   UNL     1      -9.683  10.959  65.550  1.00  0.00    -0.233 C  
HETATM    2  O   UNL     1      -8.869   8.834  63.127  1.00  0.00    -0.432 OA 
HETATM    3  O   UNL     1      -9.089   9.774  66.098  1.00  0.00    -0.149 OA 
HETATM    4  H   UNL     1     -10.117  10.852  62.265  1.00  0.00     0.000 HD 
HETATM    5  C   UNL     1      -7.928   9.435  65.317  1.00  0.00    -0.110 C  
HETATM    6  H   UNL     1      -9.069   9.113  62.242  1.00  0.00     0.000 HD 
HETATM    7  C   UNL     1      -8.249   9.882  63.898  1.00  0.00    -0.156 C  
HETATM    8  O   UNL     1     -10.376  10.815  63.178  1.00  0.00    -0.255 OA 
HETATM    9  C   UNL     1      -9.262  11.018  64.063  1.00  0.00    -0.162 C  
ENDROOT
BRANCH   1  10
HETATM   10  O   UNL     1      -9.193  12.120  66.226  1.00  0.00    -0.220 OA 
BRANCH  10  11
HETATM   11  C   UNL     1     -10.130  13.197  66.506  1.00  0.00    -0.280 C  
HETATM   12  O   UNL     1     -10.154  13.953  64.199  1.00  0.00    -0.681 OA 
HETATM   13  H2  UNL     1     -11.667  16.175  69.737  1.00  0.00     0.000 HD 
HETATM   14  H   UNL     1     -10.041  14.689  63.608  1.00  0.00     0.000 HD 
HETATM   15  C   UNL     1      -9.947  14.387  65.550  1.00  0.00    -0.329 C  
HETATM   16  H1  UNL     1     -11.263  14.607  70.236  1.00  0.00     0.000 HD 
HETATM   17  C   UNL     1     -10.828  16.011  67.241  1.00  0.00    -0.255 C  
HETATM   18  N   UNL     1     -10.691  16.622  64.854  1.00  0.00    -0.717 NA 
HETATM   19  N   UNL     1     -11.060  15.369  69.589  1.00  0.00    -0.255 NA 
HETATM   20  H1  UNL     1     -11.353  17.379  65.022  1.00  0.00     0.000 HD 
HETATM   21  H2  UNL     1     -10.709  16.304  63.884  1.00  0.00     0.000 HD 
HETATM   22  C   UNL     1     -11.132  14.864  68.213  1.00  0.00    -0.282 C  
HETATM   23  C   UNL     1     -10.942  15.525  65.803  1.00  0.00    -0.283 C  
HETATM   24  C   UNL     1     -10.183  13.635  68.000  1.00  0.00    -0.248 C  
BRANCH  24  25
HETATM   25  O   UNL     1     -10.437  12.523  68.901  1.00  0.00    -0.185 OA 
BRANCH  25  26
HETATM   26  C   UNL     1     -11.670  11.816  68.715  1.00  0.00    -0.329 C  
HETATM   27  O   UNL     1     -11.435  10.449  68.370  1.00  0.00    -0.259 OA 
HETATM   28  C   UNL     1     -10.798   9.711  69.423  1.00  0.00    -0.217 C  
HETATM   29  C   UNL     1     -11.737   9.617  70.633  1.00  0.00    -0.280 C  
HETATM   30  H2  UNL     1     -13.245  13.847  69.685  1.00  0.00     0.000 HD 
HETATM   31  C   UNL     1     -12.068  11.031  71.111  1.00  0.00    -0.244 C  
HETATM   32  O   UNL     1     -11.162   8.928  71.753  1.00  0.00    -0.315 OA 
HETATM   33  H1  UNL     1     -13.487  13.327  71.257  1.00  0.00     0.000 HD 
HETATM   34  H   UNL     1     -11.744   8.870  72.502  1.00  0.00     0.000 HD 
HETATM   35  H   UNL     1     -13.250  11.836  72.463  1.00  0.00     0.000 HD 
HETATM   36  N   UNL     1     -12.876  13.273  70.442  1.00  0.00    -0.007 NA 
HETATM   37  O   UNL     1     -13.044  10.957  72.167  1.00  0.00    -0.463 OA 
HETATM   38  C   UNL     1     -12.606  11.898  69.961  1.00  0.00     0.094 C  
BRANCH  28  39
HETATM   39  C   UNL     1     -10.387   8.345  68.847  1.00  0.00    -0.215 C  
HETATM   40  H2  UNL     1     -10.724   8.817  66.868  1.00  0.00     0.000 HD 
HETATM   41  N   UNL     1     -10.954   8.067  67.520  1.00  0.00    -0.506 NA 
HETATM   42  H1  UNL     1     -10.681   7.161  67.138  1.00  0.00     0.000 HD 
ENDBRANCH  28  39
ENDBRANCH  25  26
ENDBRANCH  24  25
ENDBRANCH  10  11
ENDBRANCH   1  10
BRANCH   5  43
HETATM   43  C   UNL     1      -6.652  10.094  65.857  1.00  0.00    -0.105 C  
HETATM   44  O   UNL     1      -5.735   9.081  66.283  1.00  0.00    -0.051 OA 
HETATM   45  H   UNL     1      -4.945   9.489  66.618  1.00  0.00     0.000 HD 
ENDBRANCH   5  43
TORSDOF 6
ENDMDL
MODEL       99
REMARK 921   NORMALIZED FREE ENERGY PREDICTED BY IDOCK:   -5.51 KCAL/MOL
REMARK 922        TOTAL FREE ENERGY PREDICTED BY IDOCK:   -9.08 KCAL/MOL
REMARK 923 INTER-LIGAND FREE ENERGY PREDICTED BY IDOCK:   -8.75 KCAL/MOL
REMARK 924 INTRA-LIGAND FREE ENERGY PREDICTED BY IDOCK:   -0.33 KCAL/MOL
REMARK 927      BINDING AFFINITY PREDICTED BY RF-SCORE:    0.00 PKD
ROOT
HETATM    1  C   UNL     1     -10.025   9.158  68.542  1.00  0.00    -0.174 C  
HETATM    2  O   UNL     1      -9.050   6.644  66.598  1.00  0.00    -0.135 OA 
HETATM    3  O   UNL     1      -8.684   9.370  68.077  1.00  0.00    -0.124 OA 
HETATM    4  H   UNL     1     -11.318   6.244  67.632  1.00  0.00     0.000 HD 
HETATM    5  C   UNL     1      -8.628   9.064  66.672  1.00  0.00    -0.127 C  
HETATM    6  H   UNL     1      -9.684   5.949  66.464  1.00  0.00     0.000 HD 
HETATM    7  C   UNL     1      -9.643   7.950  66.458  1.00  0.00    -0.212 C  
HETATM    8  O   UNL     1     -10.922   6.873  68.223  1.00  0.00    -0.202 OA 
HETATM    9  C   UNL     1     -10.669   8.133  67.579  1.00  0.00    -0.156 C  
ENDROOT
BRANCH   1  10
HETATM   10  O   UNL     1     -10.767  10.379  68.497  1.00  0.00    -0.194 OA 
BRANCH  10  11
HETATM   11  C   UNL     1     -11.199  10.965  69.756  1.00  0.00    -0.281 C  
HETATM   12  O   UNL     1     -11.417   8.804  70.840  1.00  0.00    -0.275 OA 
HETATM   13  H2  UNL     1     -13.379  14.570  71.739  1.00  0.00     0.000 HD 
HETATM   14  H   UNL     1     -11.985   8.221  71.331  1.00  0.00     0.000 HD 
HETATM   15  C   UNL     1     -12.116  10.022  70.550  1.00  0.00    -0.251 C  
HETATM   16  H1  UNL     1     -12.388  14.884  70.401  1.00  0.00     0.000 HD 
HETATM   17  C   UNL     1     -13.271  11.934  71.684  1.00  0.00    -0.364 C  
HETATM   18  N   UNL     1     -13.442   9.642  72.584  1.00  0.00    -0.632 NA 
HETATM   19  N   UNL     1     -13.016  14.219  70.853  1.00  0.00    -0.343 NA 
HETATM   20  H1  UNL     1     -13.739  10.028  73.479  1.00  0.00     0.000 HD 
HETATM   21  H2  UNL     1     -13.005   8.726  72.686  1.00  0.00     0.000 HD 
HETATM   22  C   UNL     1     -12.326  12.933  71.004  1.00  0.00    -0.225 C  
HETATM   23  C   UNL     1     -12.563  10.603  71.897  1.00  0.00    -0.207 C  
HETATM   24  C   UNL     1     -11.786  12.404  69.632  1.00  0.00    -0.311 C  
BRANCH  24  25
HETATM   25  O   UNL     1     -10.885  13.319  68.952  1.00  0.00    -0.243 OA 
BRANCH  25  26
HETATM   26  C   UNL     1     -10.283  12.846  67.741  1.00  0.00    -0.224 C  
HETATM   27  O   UNL     1     -11.207  12.898  66.651  1.00  0.00    -0.283 OA 
HETATM   28  C   UNL     1     -11.595  14.238  66.314  1.00  0.00    -0.372 C  
HETATM   29  C   UNL     1     -10.379  15.014  65.789  1.00  0.00    -0.335 C  
HETATM   30  H2  UNL     1      -7.741  12.738  68.776  1.00  0.00     0.000 HD 
HETATM   31  C   UNL     1      -9.304  15.039  66.875  1.00  0.00    -0.241 C  
HETATM   32  O   UNL     1     -10.670  16.383  65.467  1.00  0.00    -0.356 OA 
HETATM   33  H1  UNL     1      -7.116  14.184  68.212  1.00  0.00     0.000 HD 
HETATM   34  H   UNL     1      -9.917  16.863  65.142  1.00  0.00     0.000 HD 
HETATM   35  H   UNL     1      -7.447  15.672  67.025  1.00  0.00     0.000 HD 
HETATM   36  N   UNL     1      -7.968  13.678  68.453  1.00  0.00    -0.144 NA 
HETATM   37  O   UNL     1      -8.115  15.657  66.350  1.00  0.00    -0.215 OA 
HETATM   38  C   UNL     1      -8.980  13.621  67.372  1.00  0.00    -0.218 C  
BRANCH  28  39
HETATM   39  C   UNL     1     -12.755  14.144  65.308  1.00  0.00    -0.403 C  
HETATM   40  H2  UNL     1     -11.586  13.890  63.628  1.00  0.00     0.000 HD 
HETATM   41  N   UNL     1     -12.370  14.469  63.928  1.00  0.00    -1.047 NA 
HETATM   42  H1  UNL     1     -13.139  14.406  63.261  1.00  0.00     0.000 HD 
ENDBRANCH  28  39
ENDBRANCH  25  26
ENDBRANCH  24  25
ENDBRANCH  10  11
ENDBRANCH   1  10
BRANCH   5  43
HETATM   43  C   UNL     1      -8.922  10.291  65.799  1.00  0.00    -0.161 C  
HETATM   44  O   UNL     1     -10.279  10.240  65.344  1.00  0.00    -0.297 OA 
HETATM   45  H   UNL     1     -10.461  10.999  64.804  1.00  0.00     0.000 HD 
ENDBRANCH   5  43
TORSDOF 6
ENDMDL
MODEL      100
REMARK 921   NORMALIZED FREE ENERGY PREDICTED BY IDOCK:   -5.51 KCAL/MOL
REMARK 922        TOTAL FREE ENERGY PREDICTED BY IDOCK:   -9.08 KCAL/MOL
REMARK 923 INTER-LIGAND FREE ENERGY PREDICTED BY IDOCK:   -7.93 KCAL/MOL
REMARK 924 INTRA-LIGAND FREE ENERGY PREDICTED BY IDOCK:   -1.15 KCAL/MOL
REMARK 927      BINDING AFFINITY PREDICTED BY RF-SCORE:    0.00 PKD
ROOT
HETATM    1  C   UNL     1     -10.754  13.228  65.746  1.00  0.00    -0.277 C  
HETATM    2  O   UNL     1     -13.460  12.086  64.187  1.00  0.00    -0.672 OA 
HETATM    3  O   UNL     1     -10.579  11.854  65.371  1.00  0.00    -0.253 OA 
HETATM    4  H   UNL     1     -13.770  14.430  65.072  1.00  0.00     0.000 HD 
HETATM    5  C   UNL     1     -11.042  11.681  64.019  1.00  0.00    -0.384 C  
HETATM    6  H   UNL     1     -14.174  12.704  64.082  1.00  0.00     0.000 HD 
HETATM    7  C   UNL     1     -12.186  12.670  63.851  1.00  0.00    -0.481 C  
HETATM    8  O   UNL     1     -13.072  14.087  65.617  1.00  0.00    -0.639 OA 
HETATM    9  C   UNL     1     -11.891  13.786  64.857  1.00  0.00    -0.375 C  
ENDROOT
BRANCH   1  10
HETATM   10  O   UNL     1      -9.556  13.969  65.501  1.00  0.00    -0.157 OA 
BRANCH  10  11
HETATM   11  C   UNL     1      -8.476  13.863  66.469  1.00  0.00     0.323 C  
HETATM   12  O   UNL     1      -7.988  11.561  65.872  1.00  0.00    -0.369 OA 
HETATM   13  H2  UNL     1      -6.851  15.392  70.555  1.00  0.00     0.000 HD 
HETATM   14  H   UNL     1      -7.874  10.672  66.186  1.00  0.00     0.000 HD 
HETATM   15  C   UNL     1      -8.291  12.424  66.977  1.00  0.00    -0.157 C  
HETATM   16  H1  UNL     1      -7.616  16.512  69.540  1.00  0.00     0.000 HD 
HETATM   17  C   UNL     1      -7.354  13.207  69.163  1.00  0.00     0.131 C  
HETATM   18  N   UNL     1      -7.039  10.876  68.417  1.00  0.00    -0.070 NA 
HETATM   19  N   UNL     1      -7.576  15.542  69.854  1.00  0.00    -0.065 NA 
HETATM   20  H1  UNL     1      -6.273  10.779  69.082  1.00  0.00     0.000 HD 
HETATM   21  H2  UNL     1      -6.950  10.232  67.631  1.00  0.00     0.000 HD 
HETATM   22  C   UNL     1      -7.415  14.665  68.690  1.00  0.00    -0.125 C  
HETATM   23  C   UNL     1      -7.139  12.278  67.977  1.00  0.00    -0.099 C  
HETATM   24  C   UNL     1      -8.545  14.901  67.630  1.00  0.00    -0.174 C  
BRANCH  24  25
HETATM   25  O   UNL     1      -8.638  16.270  67.152  1.00  0.00    -0.169 OA 
BRANCH  25  26
HETATM   26  C   UNL     1      -9.688  17.073  67.705  1.00  0.00    -0.258 C  
HETATM   27  O   UNL     1      -9.219  17.842  68.815  1.00  0.00    -0.286 OA 
HETATM   28  C   UNL     1      -8.234  18.817  68.441  1.00  0.00    -0.341 C  
HETATM   29  C   UNL     1      -8.867  19.868  67.520  1.00  0.00    -0.338 C  
HETATM   30  H2  UNL     1     -11.460  16.564  65.670  1.00  0.00     0.000 HD 
HETATM   31  C   UNL     1      -9.411  19.169  66.274  1.00  0.00    -0.326 C  
HETATM   32  O   UNL     1      -7.938  20.862  67.062  1.00  0.00    -0.559 OA 
HETATM   33  H1  UNL     1     -11.260  17.938  64.734  1.00  0.00     0.000 HD 
HETATM   34  H   UNL     1      -8.331  21.513  66.491  1.00  0.00     0.000 HD 
HETATM   35  H   UNL     1     -10.453  19.692  64.688  1.00  0.00     0.000 HD 
HETATM   36  N   UNL     1     -10.827  17.324  65.425  1.00  0.00    -0.480 NA 
HETATM   37  O   UNL     1     -10.114  20.127  65.463  1.00  0.00    -0.339 OA 
HETATM   38  C   UNL     1     -10.350  18.011  66.648  1.00  0.00    -0.371 C  
BRANCH  28  39
HETATM   39  C   UNL     1      -7.644  19.399  69.737  1.00  0.00     0.249 C  
HETATM   40  H2  UNL     1      -6.380  20.752  68.831  1.00  0.00     0.000 HD 
HETATM   41  N   UNL     1      -6.334  20.038  69.557  1.00  0.00    -0.338 NA 
HETATM   42  H1  UNL     1      -5.943  20.424  70.417  1.00  0.00     0.000 HD 
ENDBRANCH  28  39
ENDBRANCH  25  26
ENDBRANCH  24  25
ENDBRANCH  10  11
ENDBRANCH   1  10
BRANCH   5  43
HETATM   43  C   UNL     1      -9.925  11.906  62.991  1.00  0.00    -0.154 C  
HETATM   44  O   UNL     1      -8.790  11.105  63.335  1.00  0.00    -0.382 OA 
HETATM   45  H   UNL     1      -8.099  11.245  62.698  1.00  0.00     0.000 HD 
ENDBRANCH   5  43
TORSDOF 6
ENDMDL
MODEL      101
REMARK 921   NORMALIZED FREE ENERGY PREDICTED BY IDOCK:   -5.49 KCAL/MOL
REMARK 922        TOTAL FREE ENERGY PREDICTED BY IDOCK:   -9.06 KCAL/MOL
REMARK 923 INTER-LIGAND FREE ENERGY PREDICTED BY IDOCK:   -7.77 KCAL/MOL
REMARK 924 INTRA-LIGAND FREE ENERGY PREDICTED BY IDOCK:   -1.29 KCAL/MOL
REMARK 927      BINDING AFFINITY PREDICTED BY RF-SCORE:    0.00 PKD
ROOT
HETATM    1  C   UNL     1     -10.930  15.021  66.045  1.00  0.00    -0.334 C  
HETATM    2  O   UNL     1     -13.281  15.725  63.802  1.00  0.00    -0.029 OA 
HETATM    3  O   UNL     1     -12.102  14.226  66.276  1.00  0.00    -0.415 OA 
HETATM    4  H   UNL     1     -11.268  17.235  63.600  1.00  0.00     0.000 HD 
HETATM    5  C   UNL     1     -12.567  13.710  65.015  1.00  0.00    -0.390 C  
HETATM    6  H   UNL     1     -13.060  16.389  63.160  1.00  0.00     0.000 HD 
HETATM    7  C   UNL     1     -12.213  14.774  63.985  1.00  0.00    -0.155 C  
HETATM    8  O   UNL     1     -11.218  16.932  64.499  1.00  0.00    -1.057 OA 
HETATM    9  C   UNL     1     -11.012  15.513  64.581  1.00  0.00    -0.322 C  
ENDROOT
BRANCH   1  10
HETATM   10  O   UNL     1      -9.750  14.231  66.213  1.00  0.00    -0.284 OA 
BRANCH  10  11
HETATM   11  C   UNL     1      -8.759  14.677  67.180  1.00  0.00    -0.222 C  
HETATM   12  O   UNL     1      -8.415  16.796  66.048  1.00  0.00    -0.444 OA 
HETATM   13  H2  UNL     1      -5.475  13.311  70.183  1.00  0.00     0.000 HD 
HETATM   14  H   UNL     1      -7.783  17.393  65.664  1.00  0.00     0.000 HD 
HETATM   15  C   UNL     1      -7.737  15.641  66.558  1.00  0.00     0.117 C  
HETATM   16  H1  UNL     1      -6.877  12.367  70.062  1.00  0.00     0.000 HD 
HETATM   17  C   UNL     1      -5.962  14.978  68.197  1.00  0.00    -0.144 C  
HETATM   18  N   UNL     1      -5.755  17.057  66.883  1.00  0.00    -0.169 NA 
HETATM   19  N   UNL     1      -6.217  12.973  69.572  1.00  0.00    -0.113 NA 
HETATM   20  H1  UNL     1      -5.063  17.396  67.552  1.00  0.00     0.000 HD 
HETATM   21  H2  UNL     1      -6.233  17.821  66.405  1.00  0.00     0.000 HD 
HETATM   22  C   UNL     1      -6.954  14.068  68.932  1.00  0.00    -0.110 C  
HETATM   23  C   UNL     1      -6.696  16.151  67.562  1.00  0.00    -0.169 C  
HETATM   24  C   UNL     1      -8.082  13.528  67.987  1.00  0.00    -0.156 C  
BRANCH  24  25
HETATM   25  O   UNL     1      -9.046  12.662  68.643  1.00  0.00    -0.098 OA 
BRANCH  25  26
HETATM   26  C   UNL     1      -9.317  11.406  68.008  1.00  0.00    -0.171 C  
HETATM   27  O   UNL     1      -8.262  10.470  68.243  1.00  0.00    -0.110 OA 
HETATM   28  C   UNL     1      -8.137  10.109  69.627  1.00  0.00    -0.168 C  
HETATM   29  C   UNL     1      -9.393   9.353  70.082  1.00  0.00    -0.241 C  
HETATM   30  H2  UNL     1     -11.904  12.043  67.339  1.00  0.00     0.000 HD 
HETATM   31  C   UNL     1     -10.611  10.257  69.885  1.00  0.00    -0.276 C  
HETATM   32  O   UNL     1      -9.370   8.989  71.470  1.00  0.00    -0.266 OA 
HETATM   33  H1  UNL     1     -12.738  11.295  68.582  1.00  0.00     0.000 HD 
HETATM   34  H   UNL     1     -10.148   8.521  71.752  1.00  0.00     0.000 HD 
HETATM   35  H   UNL     1     -12.561  10.077  70.071  1.00  0.00     0.000 HD 
HETATM   36  N   UNL     1     -11.845  11.697  68.296  1.00  0.00    -0.516 NA 
HETATM   37  O   UNL     1     -11.805   9.515  70.193  1.00  0.00    -0.142 OA 
HETATM   38  C   UNL     1     -10.683  10.791  68.446  1.00  0.00    -0.217 C  
BRANCH  28  39
HETATM   39  C   UNL     1      -6.836   9.301  69.777  1.00  0.00    -0.053 C  
HETATM   40  H2  UNL     1      -7.346   7.793  68.466  1.00  0.00     0.000 HD 
HETATM   41  N   UNL     1      -6.972   7.885  69.411  1.00  0.00    -0.058 NA 
HETATM   42  H1  UNL     1      -6.109   7.350  69.510  1.00  0.00     0.000 HD 
ENDBRANCH  28  39
ENDBRANCH  25  26
ENDBRANCH  24  25
ENDBRANCH  10  11
ENDBRANCH   1  10
BRANCH   5  43
HETATM   43  C   UNL     1     -11.941  12.350  64.679  1.00  0.00    -0.394 C  
HETATM   44  O   UNL     1     -11.994  12.136  63.264  1.00  0.00    -0.670 OA 
HETATM   45  H   UNL     1     -11.607  11.294  63.056  1.00  0.00     0.000 HD 
ENDBRANCH   5  43
TORSDOF 6
ENDMDL
MODEL      102
REMARK 921   NORMALIZED FREE ENERGY PREDICTED BY IDOCK:   -5.49 KCAL/MOL
REMARK 922        TOTAL FREE ENERGY PREDICTED BY IDOCK:   -9.06 KCAL/MOL
REMARK 923 INTER-LIGAND FREE ENERGY PREDICTED BY IDOCK:   -8.84 KCAL/MOL
REMARK 924 INTRA-LIGAND FREE ENERGY PREDICTED BY IDOCK:   -0.22 KCAL/MOL
REMARK 927      BINDING AFFINITY PREDICTED BY RF-SCORE:    0.00 PKD
ROOT
HETATM    1  C   UNL     1     -11.380   9.692  71.016  1.00  0.00    -0.374 C  
HETATM    2  O   UNL     1     -13.757   9.164  73.278  1.00  0.00    -1.031 OA 
HETATM    3  O   UNL     1     -11.046   8.571  71.846  1.00  0.00    -0.279 OA 
HETATM    4  H   UNL     1     -14.163  11.252  71.918  1.00  0.00     0.000 HD 
HETATM    5  C   UNL     1     -12.214   7.743  71.997  1.00  0.00    -0.305 C  
HETATM    6  H   UNL     1     -14.496   9.760  73.256  1.00  0.00     0.000 HD 
HETATM    7  C   UNL     1     -13.397   8.700  71.962  1.00  0.00    -0.392 C  
HETATM    8  O   UNL     1     -13.226  11.123  71.837  1.00  0.00    -0.470 OA 
HETATM    9  C   UNL     1     -12.906   9.902  71.150  1.00  0.00    -0.368 C  
ENDROOT
BRANCH   1  10
HETATM   10  O   UNL     1     -11.058   9.415  69.650  1.00  0.00    -0.222 OA 
BRANCH  10  11
HETATM   11  C   UNL     1      -9.680   9.590  69.222  1.00  0.00    -0.176 C  
HETATM   12  O   UNL     1      -8.948   7.537  70.289  1.00  0.00    -0.146 OA 
HETATM   13  H2  UNL     1      -6.396  12.697  68.107  1.00  0.00     0.000 HD 
HETATM   14  H   UNL     1      -8.331   7.137  70.891  1.00  0.00     0.000 HD 
HETATM   15  C   UNL     1      -8.683   8.943  70.196  1.00  0.00    -0.161 C  
HETATM   16  H1  UNL     1      -7.987  13.019  67.620  1.00  0.00     0.000 HD 
HETATM   17  C   UNL     1      -6.871  10.557  69.576  1.00  0.00    -0.098 C  
HETATM   18  N   UNL     1      -6.339   8.449  70.744  1.00  0.00    -0.036 NA 
HETATM   19  N   UNL     1      -7.386  12.595  68.328  1.00  0.00    -0.107 NA 
HETATM   20  H1  UNL     1      -5.368   8.545  70.449  1.00  0.00     0.000 HD 
HETATM   21  H2  UNL     1      -6.594   7.477  70.918  1.00  0.00     0.000 HD 
HETATM   22  C   UNL     1      -7.775  11.193  68.512  1.00  0.00    -0.129 C  
HETATM   23  C   UNL     1      -7.223   9.087  69.753  1.00  0.00    -0.056 C  
HETATM   24  C   UNL     1      -9.296  11.058  68.864  1.00  0.00    -0.145 C  
BRANCH  24  25
HETATM   25  O   UNL     1     -10.190  11.646  67.880  1.00  0.00    -0.182 OA 
BRANCH  25  26
HETATM   26  C   UNL     1      -9.653  12.703  67.076  1.00  0.00    -0.219 C  
HETATM   27  O   UNL     1      -9.888  12.465  65.686  1.00  0.00    -0.254 OA 
HETATM   28  C   UNL     1     -11.282  12.482  65.347  1.00  0.00    -0.307 C  
HETATM   29  C   UNL     1     -11.854  13.888  65.570  1.00  0.00    -0.362 C  
HETATM   30  H2  UNL     1      -9.089  14.345  69.204  1.00  0.00     0.000 HD 
HETATM   31  C   UNL     1     -11.668  14.269  67.039  1.00  0.00    -0.403 C  
HETATM   32  O   UNL     1     -13.259  13.985  65.294  1.00  0.00    -0.782 OA 
HETATM   33  H1  UNL     1     -10.422  15.357  69.176  1.00  0.00     0.000 HD 
HETATM   34  H   UNL     1     -13.613  14.856  65.432  1.00  0.00     0.000 HD 
HETATM   35  H   UNL     1     -11.974  15.868  68.144  1.00  0.00     0.000 HD 
HETATM   36  N   UNL     1     -10.062  14.439  68.914  1.00  0.00    -0.225 NA 
HETATM   37  O   UNL     1     -12.089  15.631  67.231  1.00  0.00     0.327 OA 
HETATM   38  C   UNL     1     -10.204  14.107  67.477  1.00  0.00    -0.241 C  
BRANCH  28  39
HETATM   39  C   UNL     1     -11.411  11.980  63.898  1.00  0.00    -0.435 C  
HETATM   40  H2  UNL     1     -11.474  13.841  63.012  1.00  0.00     0.000 HD 
HETATM   41  N   UNL     1     -11.996  12.966  62.979  1.00  0.00    -0.785 NA 
HETATM   42  H1  UNL     1     -12.081  12.633  62.019  1.00  0.00     0.000 HD 
ENDBRANCH  28  39
ENDBRANCH  25  26
ENDBRANCH  24  25
ENDBRANCH  10  11
ENDBRANCH   1  10
BRANCH   5  43
HETATM   43  C   UNL     1     -12.308   6.667  70.907  1.00  0.00    -0.201 C  
HETATM   44  O   UNL     1     -11.122   5.864  70.926  1.00  0.00    -0.282 OA 
HETATM   45  H   UNL     1     -11.180   5.198  70.251  1.00  0.00     0.000 HD 
ENDBRANCH   5  43
TORSDOF 6
ENDMDL
MODEL      103
REMARK 921   NORMALIZED FREE ENERGY PREDICTED BY IDOCK:   -5.48 KCAL/MOL
REMARK 922        TOTAL FREE ENERGY PREDICTED BY IDOCK:   -9.05 KCAL/MOL
REMARK 923 INTER-LIGAND FREE ENERGY PREDICTED BY IDOCK:   -7.40 KCAL/MOL
REMARK 924 INTRA-LIGAND FREE ENERGY PREDICTED BY IDOCK:   -1.65 KCAL/MOL
REMARK 927      BINDING AFFINITY PREDICTED BY RF-SCORE:    0.00 PKD
ROOT
HETATM    1  C   UNL     1      -8.923   6.768  67.260  1.00  0.00    -0.117 C  
HETATM    2  O   UNL     1      -9.833   3.975  65.705  1.00  0.00    -0.211 OA 
HETATM    3  O   UNL     1      -7.798   6.168  66.602  1.00  0.00    -0.101 OA 
HETATM    4  H   UNL     1     -11.706   4.977  67.069  1.00  0.00     0.000 HD 
HETATM    5  C   UNL     1      -8.199   5.760  65.281  1.00  0.00    -0.139 C  
HETATM    6  H   UNL     1     -10.749   3.734  65.781  1.00  0.00     0.000 HD 
HETATM    7  C   UNL     1      -9.666   5.374  65.402  1.00  0.00     0.199 C  
HETATM    8  O   UNL     1     -10.928   5.334  67.481  1.00  0.00     0.025 OA 
HETATM    9  C   UNL     1     -10.189   6.186  66.590  1.00  0.00    -0.178 C  
ENDROOT
BRANCH   1  10
HETATM   10  O   UNL     1      -8.904   8.187  67.084  1.00  0.00    -0.127 OA 
BRANCH  10  11
HETATM   11  C   UNL     1      -9.143   9.025  68.249  1.00  0.00    -0.133 C  
HETATM   12  O   UNL     1      -7.172   8.207  69.406  1.00  0.00    -0.064 OA 
HETATM   13  H2  UNL     1     -12.391  11.150  70.820  1.00  0.00     0.000 HD 
HETATM   14  H   UNL     1      -6.828   7.820  70.203  1.00  0.00     0.000 HD 
HETATM   15  C   UNL     1      -8.587   8.398  69.537  1.00  0.00    -0.129 C  
HETATM   16  H1  UNL     1     -12.604  11.124  69.139  1.00  0.00     0.000 HD 
HETATM   17  C   UNL     1     -10.279   9.574  70.961  1.00  0.00    -0.332 C  
HETATM   18  N   UNL     1      -8.246   8.597  71.963  1.00  0.00    -0.313 NA 
HETATM   19  N   UNL     1     -12.241  10.631  69.955  1.00  0.00    -0.309 NA 
HETATM   20  H1  UNL     1      -8.387   9.180  72.787  1.00  0.00     0.000 HD 
HETATM   21  H2  UNL     1      -7.267   8.338  71.837  1.00  0.00     0.000 HD 
HETATM   22  C   UNL     1     -10.826  10.314  69.734  1.00  0.00    -0.287 C  
HETATM   23  C   UNL     1      -8.798   9.274  70.778  1.00  0.00    -0.225 C  
HETATM   24  C   UNL     1     -10.617   9.506  68.408  1.00  0.00    -0.219 C  
BRANCH  24  25
HETATM   25  O   UNL     1     -11.119  10.172  67.218  1.00  0.00    -0.244 OA 
BRANCH  25  26
HETATM   26  C   UNL     1     -10.390  11.323  66.771  1.00  0.00    -0.238 C  
HETATM   27  O   UNL     1      -9.587  11.015  65.629  1.00  0.00    -0.205 OA 
HETATM   28  C   UNL     1     -10.369  10.664  64.478  1.00  0.00    -0.282 C  
HETATM   29  C   UNL     1     -11.191  11.875  64.019  1.00  0.00    -0.396 C  
HETATM   30  H2  UNL     1     -11.712  13.081  68.417  1.00  0.00     0.000 HD 
HETATM   31  C   UNL     1     -12.110  12.309  65.162  1.00  0.00    -0.316 C  
HETATM   32  O   UNL     1     -12.038  11.600  62.893  1.00  0.00    -0.876 OA 
HETATM   33  H1  UNL     1     -12.841  13.710  67.355  1.00  0.00     0.000 HD 
HETATM   34  H   UNL     1     -12.547  12.350  62.610  1.00  0.00     0.000 HD 
HETATM   35  H   UNL     1     -13.366  13.786  65.497  1.00  0.00     0.000 HD 
HETATM   36  N   UNL     1     -12.236  12.914  67.559  1.00  0.00    -0.292 NA 
HETATM   37  O   UNL     1     -12.795  13.517  64.786  1.00  0.00    -0.677 OA 
HETATM   38  C   UNL     1     -11.317  12.539  66.459  1.00  0.00    -0.334 C  
BRANCH  28  39
HETATM   39  C   UNL     1      -9.401  10.128  63.409  1.00  0.00    -0.294 C  
HETATM   40  H2  UNL     1      -8.738  11.967  62.752  1.00  0.00     0.000 HD 
HETATM   41  N   UNL     1      -9.091  11.099  62.351  1.00  0.00    -0.450 NA 
HETATM   42  H1  UNL     1      -8.448  10.743  61.642  1.00  0.00     0.000 HD 
ENDBRANCH  28  39
ENDBRANCH  25  26
ENDBRANCH  24  25
ENDBRANCH  10  11
ENDBRANCH   1  10
BRANCH   5  43
HETATM   43  C   UNL     1      -7.977   6.866  64.240  1.00  0.00    -0.086 C  
HETATM   44  O   UNL     1      -6.906   7.716  64.668  1.00  0.00    -0.049 OA 
HETATM   45  H   UNL     1      -6.769   8.401  64.025  1.00  0.00     0.000 HD 
ENDBRANCH   5  43
TORSDOF 6
ENDMDL
MODEL      104
REMARK 921   NORMALIZED FREE ENERGY PREDICTED BY IDOCK:   -5.48 KCAL/MOL
REMARK 922        TOTAL FREE ENERGY PREDICTED BY IDOCK:   -9.05 KCAL/MOL
REMARK 923 INTER-LIGAND FREE ENERGY PREDICTED BY IDOCK:   -7.83 KCAL/MOL
REMARK 924 INTRA-LIGAND FREE ENERGY PREDICTED BY IDOCK:   -1.22 KCAL/MOL
REMARK 927      BINDING AFFINITY PREDICTED BY RF-SCORE:    0.00 PKD
ROOT
HETATM    1  C   UNL     1      -9.399   7.756  68.554  1.00  0.00    -0.147 C  
HETATM    2  O   UNL     1      -9.193   6.467  65.497  1.00  0.00    -0.371 OA 
HETATM    3  O   UNL     1      -8.069   7.286  68.293  1.00  0.00    -0.121 OA 
HETATM    4  H   UNL     1     -11.552   7.118  66.115  1.00  0.00     0.000 HD 
HETATM    5  C   UNL     1      -7.677   7.714  66.976  1.00  0.00    -0.108 C  
HETATM    6  H   UNL     1      -9.992   6.476  64.984  1.00  0.00     0.000 HD 
HETATM    7  C   UNL     1      -8.959   7.727  66.155  1.00  0.00    -0.163 C  
HETATM    8  O   UNL     1     -11.136   7.000  66.960  1.00  0.00    -0.373 OA 
HETATM    9  C   UNL     1     -10.078   7.948  67.177  1.00  0.00    -0.258 C  
ENDROOT
BRANCH   1  10
HETATM   10  O   UNL     1      -9.360   9.009  69.241  1.00  0.00    -0.147 OA 
BRANCH  10  11
HETATM   11  C   UNL     1     -10.139   9.146  70.462  1.00  0.00    -0.235 C  
HETATM   12  O   UNL     1      -9.446   6.977  71.304  1.00  0.00    -0.164 OA 
HETATM   13  H2  UNL     1     -13.923  11.064  72.379  1.00  0.00     0.000 HD 
HETATM   14  H   UNL     1      -9.728   6.136  71.646  1.00  0.00     0.000 HD 
HETATM   15  C   UNL     1     -10.594   7.786  71.014  1.00  0.00    -0.213 C  
HETATM   16  H1  UNL     1     -13.057  11.983  71.249  1.00  0.00     0.000 HD 
HETATM   17  C   UNL     1     -12.608   8.792  72.113  1.00  0.00    -0.463 C  
HETATM   18  N   UNL     1     -11.795   6.556  72.770  1.00  0.00    -0.491 NA 
HETATM   19  N   UNL     1     -13.351  11.049  71.536  1.00  0.00    -0.258 NA 
HETATM   20  H1  UNL     1     -12.326   6.631  73.637  1.00  0.00     0.000 HD 
HETATM   21  H2  UNL     1     -10.998   5.925  72.860  1.00  0.00     0.000 HD 
HETATM   22  C   UNL     1     -12.166  10.196  71.682  1.00  0.00    -0.331 C  
HETATM   23  C   UNL     1     -11.392   7.899  72.318  1.00  0.00    -0.337 C  
HETATM   24  C   UNL     1     -11.307  10.174  70.371  1.00  0.00    -0.326 C  
BRANCH  24  25
HETATM   25  O   UNL     1     -10.864  11.485  69.927  1.00  0.00    -0.017 OA 
BRANCH  25  26
HETATM   26  C   UNL     1     -11.634  12.104  68.888  1.00  0.00    -0.324 C  
HETATM   27  O   UNL     1     -12.339  13.247  69.378  1.00  0.00    -0.210 OA 
HETATM   28  C   UNL     1     -11.463  14.303  69.799  1.00  0.00    -0.261 C  
HETATM   29  C   UNL     1     -10.691  14.850  68.591  1.00  0.00    -0.250 C  
HETATM   30  H2  UNL     1     -10.540  10.599  66.867  1.00  0.00     0.000 HD 
HETATM   31  C   UNL     1      -9.879  13.714  67.968  1.00  0.00    -0.244 C  
HETATM   32  O   UNL     1      -9.756  15.886  68.930  1.00  0.00    -0.206 OA 
HETATM   33  H1  UNL     1      -9.385  11.660  66.282  1.00  0.00     0.000 HD 
HETATM   34  H   UNL     1      -9.279  16.224  68.181  1.00  0.00     0.000 HD 
HETATM   35  H   UNL     1      -8.746  13.481  66.376  1.00  0.00     0.000 HD 
HETATM   36  N   UNL     1      -9.950  11.400  67.091  1.00  0.00    -0.190 NA 
HETATM   37  O   UNL     1      -9.250  14.187  66.764  1.00  0.00    -0.255 OA 
HETATM   38  C   UNL     1     -10.769  12.501  67.651  1.00  0.00    -0.218 C  
BRANCH  28  39
HETATM   39  C   UNL     1     -12.322  15.357  70.519  1.00  0.00    -0.408 C  
HETATM   40  H2  UNL     1     -10.879  16.828  70.583  1.00  0.00     0.000 HD 
HETATM   41  N   UNL     1     -11.537  16.381  71.221  1.00  0.00    -0.609 NA 
HETATM   42  H1  UNL     1     -12.108  17.080  71.697  1.00  0.00     0.000 HD 
ENDBRANCH  28  39
ENDBRANCH  25  26
ENDBRANCH  24  25
ENDBRANCH  10  11
ENDBRANCH   1  10
BRANCH   5  43
HETATM   43  C   UNL     1      -6.987   9.084  66.993  1.00  0.00    -0.078 C  
HETATM   44  O   UNL     1      -6.432   9.324  68.291  1.00  0.00    -0.054 OA 
HETATM   45  H   UNL     1      -6.005  10.172  68.302  1.00  0.00     0.000 HD 
ENDBRANCH   5  43
TORSDOF 6
ENDMDL
MODEL      105
REMARK 921   NORMALIZED FREE ENERGY PREDICTED BY IDOCK:   -5.46 KCAL/MOL
REMARK 922        TOTAL FREE ENERGY PREDICTED BY IDOCK:   -9.02 KCAL/MOL
REMARK 923 INTER-LIGAND FREE ENERGY PREDICTED BY IDOCK:   -7.72 KCAL/MOL
REMARK 924 INTRA-LIGAND FREE ENERGY PREDICTED BY IDOCK:   -1.29 KCAL/MOL
REMARK 927      BINDING AFFINITY PREDICTED BY RF-SCORE:    0.00 PKD
ROOT
HETATM    1  C   UNL     1     -10.115   8.598  69.963  1.00  0.00    -0.189 C  
HETATM    2  O   UNL     1     -11.260  11.712  70.164  1.00  0.00    -0.493 OA 
HETATM    3  O   UNL     1     -10.292   8.983  71.333  1.00  0.00    -0.271 OA 
HETATM    4  H   UNL     1     -10.716  11.033  67.794  1.00  0.00     0.000 HD 
HETATM    5  C   UNL     1     -11.561   9.650  71.466  1.00  0.00    -0.381 C  
HETATM    6  H   UNL     1     -11.399  12.161  69.338  1.00  0.00     0.000 HD 
HETATM    7  C   UNL     1     -11.782  10.369  70.143  1.00  0.00    -0.312 C  
HETATM    8  O   UNL     1     -10.183  10.442  68.313  1.00  0.00    -0.151 OA 
HETATM    9  C   UNL     1     -10.983   9.560  69.118  1.00  0.00    -0.125 C  
ENDROOT
BRANCH   1  10
HETATM   10  O   UNL     1     -10.565   7.256  69.760  1.00  0.00    -0.224 OA 
BRANCH  10  11
HETATM   11  C   UNL     1      -9.901   6.458  68.741  1.00  0.00    -0.139 C  
HETATM   12  O   UNL     1     -11.526   7.043  67.035  1.00  0.00    -0.566 OA 
HETATM   13  H2  UNL     1      -7.246   2.715  67.955  1.00  0.00     0.000 HD 
HETATM   14  H   UNL     1     -12.134   6.720  66.380  1.00  0.00     0.000 HD 
HETATM   15  C   UNL     1     -10.885   5.936  67.682  1.00  0.00    -0.239 C  
HETATM   16  H1  UNL     1      -6.918   3.642  69.335  1.00  0.00     0.000 HD 
HETATM   17  C   UNL     1      -9.452   3.942  67.186  1.00  0.00    -0.231 C  
HETATM   18  N   UNL     1     -11.219   4.649  65.615  1.00  0.00    -0.866 NA 
HETATM   19  N   UNL     1      -7.633   3.304  68.691  1.00  0.00    -0.052 NA 
HETATM   20  H1  UNL     1     -10.768   4.103  64.882  1.00  0.00     0.000 HD 
HETATM   21  H2  UNL     1     -11.774   5.417  65.238  1.00  0.00     0.000 HD 
HETATM   22  C   UNL     1      -8.376   4.450  68.155  1.00  0.00    -0.093 C  
HETATM   23  C   UNL     1     -10.207   5.115  66.578  1.00  0.00    -0.264 C  
HETATM   24  C   UNL     1      -8.976   5.335  69.301  1.00  0.00    -0.103 C  
BRANCH  24  25
HETATM   25  O   UNL     1      -7.990   5.840  70.242  1.00  0.00    -0.100 OA 
BRANCH  25  26
HETATM   26  C   UNL     1      -7.788   5.069  71.433  1.00  0.00    -0.109 C  
HETATM   27  O   UNL     1      -6.998   5.788  72.385  1.00  0.00    -0.078 OA 
HETATM   28  C   UNL     1      -7.654   6.967  72.874  1.00  0.00    -0.084 C  
HETATM   29  C   UNL     1      -8.904   6.573  73.672  1.00  0.00    -0.125 C  
HETATM   30  H2  UNL     1      -9.579   3.106  70.742  1.00  0.00     0.000 HD 
HETATM   31  C   UNL     1      -9.847   5.792  72.756  1.00  0.00    -0.160 C  
HETATM   32  O   UNL     1      -9.647   7.699  74.164  1.00  0.00    -0.402 OA 
HETATM   33  H1  UNL     1     -10.926   3.598  71.605  1.00  0.00     0.000 HD 
HETATM   34  H   UNL     1     -10.421   7.454  74.658  1.00  0.00     0.000 HD 
HETATM   35  H   UNL     1     -11.551   4.829  72.957  1.00  0.00     0.000 HD 
HETATM   36  N   UNL     1     -10.051   3.899  71.175  1.00  0.00    -0.085 NA 
HETATM   37  O   UNL     1     -10.965   5.314  73.526  1.00  0.00    -0.287 OA 
HETATM   38  C   UNL     1      -9.127   4.610  72.089  1.00  0.00    -0.127 C  
BRANCH  28  39
HETATM   39  C   UNL     1      -6.621   7.764  73.689  1.00  0.00    -0.089 C  
HETATM   40  H2  UNL     1      -7.981   8.756  74.881  1.00  0.00     0.000 HD 
HETATM   41  N   UNL     1      -7.166   8.979  74.309  1.00  0.00    -0.396 NA 
HETATM   42  H1  UNL     1      -6.481   9.508  74.850  1.00  0.00     0.000 HD 
ENDBRANCH  28  39
ENDBRANCH  25  26
ENDBRANCH  24  25
ENDBRANCH  10  11
ENDBRANCH   1  10
BRANCH   5  43
HETATM   43  C   UNL     1     -12.699   8.673  71.792  1.00  0.00    -0.359 C  
HETATM   44  O   UNL     1     -12.454   8.062  73.063  1.00  0.00    -0.625 OA 
HETATM   45  H   UNL     1     -13.158   7.457  73.265  1.00  0.00     0.000 HD 
ENDBRANCH   5  43
TORSDOF 6
ENDMDL
MODEL      106
REMARK 921   NORMALIZED FREE ENERGY PREDICTED BY IDOCK:   -5.46 KCAL/MOL
REMARK 922        TOTAL FREE ENERGY PREDICTED BY IDOCK:   -9.02 KCAL/MOL
REMARK 923 INTER-LIGAND FREE ENERGY PREDICTED BY IDOCK:   -7.46 KCAL/MOL
REMARK 924 INTRA-LIGAND FREE ENERGY PREDICTED BY IDOCK:   -1.56 KCAL/MOL
REMARK 927      BINDING AFFINITY PREDICTED BY RF-SCORE:    0.00 PKD
ROOT
HETATM    1  C   UNL     1     -10.285   8.567  67.985  1.00  0.00    -0.213 C  
HETATM    2  O   UNL     1     -10.442   5.707  69.673  1.00  0.00    -0.249 OA 
HETATM    3  O   UNL     1     -10.086   8.797  69.387  1.00  0.00    -0.192 OA 
HETATM    4  H   UNL     1     -10.997   5.418  67.227  1.00  0.00     0.000 HD 
HETATM    5  C   UNL     1      -9.177   7.803  69.895  1.00  0.00    -0.146 C  
HETATM    6  H   UNL     1     -10.607   4.926  69.158  1.00  0.00     0.000 HD 
HETATM    7  C   UNL     1      -9.442   6.551  69.070  1.00  0.00    -0.130 C  
HETATM    8  O   UNL     1     -11.177   6.339  67.380  1.00  0.00    -0.328 OA 
HETATM    9  C   UNL     1      -9.992   7.068  67.738  1.00  0.00    -0.152 C  
ENDROOT
BRANCH   1  10
HETATM   10  O   UNL     1      -9.377   9.359  67.216  1.00  0.00    -0.129 OA 
BRANCH  10  11
HETATM   11  C   UNL     1      -9.854   9.928  65.966  1.00  0.00    -0.264 C  
HETATM   12  O   UNL     1      -9.007   8.076  64.645  1.00  0.00    -0.341 OA 
HETATM   13  H2  UNL     1     -10.848  13.874  63.703  1.00  0.00     0.000 HD 
HETATM   14  H   UNL     1      -8.472   7.814  63.905  1.00  0.00     0.000 HD 
HETATM   15  C   UNL     1      -8.988   9.504  64.769  1.00  0.00    -0.218 C  
HETATM   16  H1  UNL     1     -11.229  13.790  65.352  1.00  0.00     0.000 HD 
HETATM   17  C   UNL     1      -9.550  11.586  63.494  1.00  0.00    -0.297 C  
HETATM   18  N   UNL     1      -8.598   9.620  62.345  1.00  0.00    -0.180 NA 
HETATM   19  N   UNL     1     -10.590  13.495  64.614  1.00  0.00    -0.411 NA 
HETATM   20  H1  UNL     1      -8.929   9.994  61.457  1.00  0.00     0.000 HD 
HETATM   21  H2  UNL     1      -8.498   8.605  62.322  1.00  0.00     0.000 HD 
HETATM   22  C   UNL     1     -10.510  12.030  64.605  1.00  0.00    -0.297 C  
HETATM   23  C   UNL     1      -9.486  10.066  63.432  1.00  0.00    -0.188 C  
HETATM   24  C   UNL     1     -10.100  11.467  66.009  1.00  0.00    -0.234 C  
BRANCH  24  25
HETATM   25  O   UNL     1     -10.984  11.862  67.092  1.00  0.00    -0.241 OA 
BRANCH  25  26
HETATM   26  C   UNL     1     -10.358  12.254  68.320  1.00  0.00    -0.221 C  
HETATM   27  O   UNL     1      -9.579  13.440  68.147  1.00  0.00    -0.212 OA 
HETATM   28  C   UNL     1     -10.375  14.586  67.813  1.00  0.00    -0.237 C  
HETATM   29  C   UNL     1     -11.300  14.935  68.986  1.00  0.00    -0.292 C  
HETATM   30  H2  UNL     1     -11.740  10.452  69.865  1.00  0.00     0.000 HD 
HETATM   31  C   UNL     1     -12.204  13.736  69.276  1.00  0.00    -0.264 C  
HETATM   32  O   UNL     1     -12.167  16.049  68.721  1.00  0.00    -0.443 OA 
HETATM   33  H1  UNL     1     -12.952  11.433  70.475  1.00  0.00     0.000 HD 
HETATM   34  H   UNL     1     -12.739  16.265  69.448  1.00  0.00     0.000 HD 
HETATM   35  H   UNL     1     -13.550  13.264  70.631  1.00  0.00     0.000 HD 
HETATM   36  N   UNL     1     -12.283  11.302  69.716  1.00  0.00    -0.295 NA 
HETATM   37  O   UNL     1     -12.989  14.009  70.451  1.00  0.00    -0.252 OA 
HETATM   38  C   UNL     1     -11.382  12.454  69.481  1.00  0.00    -0.180 C  
BRANCH  28  39
HETATM   39  C   UNL     1      -9.412  15.720  67.420  1.00  0.00    -0.212 C  
HETATM   40  H2  UNL     1      -9.057  15.068  65.496  1.00  0.00     0.000 HD 
HETATM   41  N   UNL     1      -8.519  15.378  66.305  1.00  0.00    -0.404 NA 
HETATM   42  H1  UNL     1      -7.880  16.130  66.045  1.00  0.00     0.000 HD 
ENDBRANCH  28  39
ENDBRANCH  25  26
ENDBRANCH  24  25
ENDBRANCH  10  11
ENDBRANCH   1  10
BRANCH   5  43
HETATM   43  C   UNL     1      -7.714   8.256  69.807  1.00  0.00    -0.098 C  
HETATM   44  O   UNL     1      -7.611   9.622  70.222  1.00  0.00    -0.136 OA 
HETATM   45  H   UNL     1      -6.705   9.902  70.167  1.00  0.00     0.000 HD 
ENDBRANCH   5  43
TORSDOF 6
ENDMDL
MODEL      107
REMARK 921   NORMALIZED FREE ENERGY PREDICTED BY IDOCK:   -5.45 KCAL/MOL
REMARK 922        TOTAL FREE ENERGY PREDICTED BY IDOCK:   -9.00 KCAL/MOL
REMARK 923 INTER-LIGAND FREE ENERGY PREDICTED BY IDOCK:   -8.32 KCAL/MOL
REMARK 924 INTRA-LIGAND FREE ENERGY PREDICTED BY IDOCK:   -0.68 KCAL/MOL
REMARK 927      BINDING AFFINITY PREDICTED BY RF-SCORE:    0.00 PKD
ROOT
HETATM    1  C   UNL     1     -11.833  11.657  68.877  1.00  0.00    -0.329 C  
HETATM    2  O   UNL     1     -12.308  14.753  67.762  1.00  0.00    -0.570 OA 
HETATM    3  O   UNL     1     -11.961  11.665  67.448  1.00  0.00    -0.621 OA 
HETATM    4  H   UNL     1     -12.291  14.625  70.283  1.00  0.00     0.000 HD 
HETATM    5  C   UNL     1     -11.169  12.745  66.918  1.00  0.00    -0.296 C  
HETATM    6  H   UNL     1     -12.336  15.435  68.422  1.00  0.00     0.000 HD 
HETATM    7  C   UNL     1     -11.215  13.838  67.976  1.00  0.00    -0.267 C  
HETATM    8  O   UNL     1     -12.519  13.739  70.026  1.00  0.00    -0.314 OA 
HETATM    9  C   UNL     1     -11.461  13.099  69.294  1.00  0.00    -0.291 C  
ENDROOT
BRANCH   1  10
HETATM   10  O   UNL     1     -10.791  10.765  69.280  1.00  0.00    -0.212 OA 
BRANCH  10  11
HETATM   11  C   UNL     1     -11.170   9.497  69.883  1.00  0.00    -0.178 C  
HETATM   12  O   UNL     1     -13.182  10.421  70.879  1.00  0.00    -0.377 OA 
HETATM   13  H2  UNL     1      -9.595   5.471  71.611  1.00  0.00     0.000 HD 
HETATM   14  H   UNL     1     -13.684  10.539  71.677  1.00  0.00     0.000 HD 
HETATM   15  C   UNL     1     -11.984   9.689  71.172  1.00  0.00    -0.367 C  
HETATM   16  H1  UNL     1      -8.808   6.111  70.253  1.00  0.00     0.000 HD 
HETATM   17  C   UNL     1     -11.207   7.499  72.109  1.00  0.00    -0.313 C  
HETATM   18  N   UNL     1     -13.185   8.643  73.043  1.00  0.00    -0.816 NA 
HETATM   19  N   UNL     1      -9.312   6.317  71.116  1.00  0.00    -0.160 NA 
HETATM   20  H1  UNL     1     -13.477   7.764  73.470  1.00  0.00     0.000 HD 
HETATM   21  H2  UNL     1     -13.973   9.269  72.875  1.00  0.00     0.000 HD 
HETATM   22  C   UNL     1     -10.450   7.191  70.811  1.00  0.00    -0.212 C  
HETATM   23  C   UNL     1     -12.423   8.367  71.814  1.00  0.00    -0.335 C  
HETATM   24  C   UNL     1      -9.994   8.490  70.063  1.00  0.00    -0.188 C  
BRANCH  24  25
HETATM   25  O   UNL     1      -9.273   8.245  68.826  1.00  0.00    -0.144 OA 
BRANCH  25  26
HETATM   26  C   UNL     1     -10.008   8.422  67.609  1.00  0.00    -0.190 C  
HETATM   27  O   UNL     1      -9.292   9.248  66.688  1.00  0.00    -0.152 OA 
HETATM   28  C   UNL     1      -8.068   8.648  66.238  1.00  0.00    -0.103 C  
HETATM   29  C   UNL     1      -8.378   7.387  65.420  1.00  0.00    -0.117 C  
HETATM   30  H2  UNL     1     -11.915   6.542  68.220  1.00  0.00     0.000 HD 
HETATM   31  C   UNL     1      -9.149   6.404  66.302  1.00  0.00    -0.151 C  
HETATM   32  O   UNL     1      -7.204   6.697  64.965  1.00  0.00    -0.067 OA 
HETATM   33  H1  UNL     1     -11.334   5.223  67.368  1.00  0.00     0.000 HD 
HETATM   34  H   UNL     1      -7.396   5.917  64.458  1.00  0.00     0.000 HD 
HETATM   35  H   UNL     1     -10.030   4.662  66.058  1.00  0.00     0.000 HD 
HETATM   36  N   UNL     1     -11.087   6.108  67.812  1.00  0.00    -0.297 NA 
HETATM   37  O   UNL     1      -9.550   5.272  65.509  1.00  0.00    -0.112 OA 
HETATM   38  C   UNL     1     -10.385   7.068  66.929  1.00  0.00    -0.268 C  
BRANCH  28  39
HETATM   39  C   UNL     1      -7.288   9.720  65.458  1.00  0.00    -0.112 C  
HETATM   40  H2  UNL     1      -8.698  10.004  63.980  1.00  0.00     0.000 HD 
HETATM   41  N   UNL     1      -7.694   9.841  64.051  1.00  0.00    -0.128 NA 
HETATM   42  H1  UNL     1      -7.176  10.552  63.534  1.00  0.00     0.000 HD 
ENDBRANCH  28  39
ENDBRANCH  25  26
ENDBRANCH  24  25
ENDBRANCH  10  11
ENDBRANCH   1  10
BRANCH   5  43
HETATM   43  C   UNL     1      -9.733  12.309  66.598  1.00  0.00    -0.222 C  
HETATM   44  O   UNL     1      -9.584  12.161  65.182  1.00  0.00    -0.413 OA 
HETATM   45  H   UNL     1      -8.695  11.891  64.983  1.00  0.00     0.000 HD 
ENDBRANCH   5  43
TORSDOF 6
ENDMDL
MODEL      108
REMARK 921   NORMALIZED FREE ENERGY PREDICTED BY IDOCK:   -5.41 KCAL/MOL
REMARK 922        TOTAL FREE ENERGY PREDICTED BY IDOCK:   -8.96 KCAL/MOL
REMARK 923 INTER-LIGAND FREE ENERGY PREDICTED BY IDOCK:   -7.13 KCAL/MOL
REMARK 924 INTRA-LIGAND FREE ENERGY PREDICTED BY IDOCK:   -1.82 KCAL/MOL
REMARK 927      BINDING AFFINITY PREDICTED BY RF-SCORE:    0.00 PKD
ROOT
HETATM    1  C   UNL     1     -10.254   7.298  70.505  1.00  0.00    -0.196 C  
HETATM    2  O   UNL     1     -10.114   7.134  73.823  1.00  0.00    -0.307 OA 
HETATM    3  O   UNL     1     -11.533   6.937  71.047  1.00  0.00    -0.279 OA 
HETATM    4  H   UNL     1      -7.854   7.551  72.778  1.00  0.00     0.000 HD 
HETATM    5  C   UNL     1     -11.815   7.788  72.173  1.00  0.00    -0.324 C  
HETATM    6  H   UNL     1      -9.270   7.324  74.215  1.00  0.00     0.000 HD 
HETATM    7  C   UNL     1     -10.462   8.091  72.802  1.00  0.00    -0.345 C  
HETATM    8  O   UNL     1      -8.344   7.147  72.072  1.00  0.00    -0.107 OA 
HETATM    9  C   UNL     1      -9.457   7.955  71.656  1.00  0.00    -0.152 C  
ENDROOT
BRANCH   1  10
HETATM   10  O   UNL     1     -10.411   8.239  69.441  1.00  0.00    -0.220 OA 
BRANCH  10  11
HETATM   11  C   UNL     1     -10.036   7.825  68.098  1.00  0.00    -0.178 C  
HETATM   12  O   UNL     1     -11.753   6.111  68.004  1.00  0.00    -0.225 OA 
HETATM   13  H2  UNL     1      -6.538   7.503  65.043  1.00  0.00     0.000 HD 
HETATM   14  H   UNL     1     -11.945   5.194  67.845  1.00  0.00     0.000 HD 
HETATM   15  C   UNL     1     -10.347   6.342  67.842  1.00  0.00    -0.193 C  
HETATM   16  H1  UNL     1      -6.592   8.870  66.041  1.00  0.00     0.000 HD 
HETATM   17  C   UNL     1      -8.514   6.146  66.146  1.00  0.00    -0.137 C  
HETATM   18  N   UNL     1     -10.308   4.455  66.267  1.00  0.00    -0.400 NA 
HETATM   19  N   UNL     1      -6.796   7.874  65.957  1.00  0.00    -0.057 NA 
HETATM   20  H1  UNL     1     -10.070   4.152  65.324  1.00  0.00     0.000 HD 
HETATM   21  H2  UNL     1     -11.280   4.251  66.503  1.00  0.00     0.000 HD 
HETATM   22  C   UNL     1      -8.209   7.643  66.274  1.00  0.00    -0.120 C  
HETATM   23  C   UNL     1      -9.988   5.884  66.423  1.00  0.00    -0.116 C  
HETATM   24  C   UNL     1      -8.583   8.209  67.686  1.00  0.00    -0.130 C  
BRANCH  24  25
HETATM   25  O   UNL     1      -8.311   9.627  67.852  1.00  0.00    -0.116 OA 
BRANCH  25  26
HETATM   26  C   UNL     1      -8.771  10.495  66.807  1.00  0.00    -0.132 C  
HETATM   27  O   UNL     1     -10.122  10.904  67.033  1.00  0.00    -0.192 OA 
HETATM   28  C   UNL     1     -10.269  11.713  68.209  1.00  0.00    -0.199 C  
HETATM   29  C   UNL     1      -9.520  13.040  68.023  1.00  0.00    -0.217 C  
HETATM   30  H2  UNL     1      -6.296  10.792  65.653  1.00  0.00     0.000 HD 
HETATM   31  C   UNL     1      -8.042  12.741  67.776  1.00  0.00    -0.168 C  
HETATM   32  O   UNL     1      -9.580  13.897  69.173  1.00  0.00    -0.409 OA 
HETATM   33  H1  UNL     1      -5.826  12.260  66.305  1.00  0.00     0.000 HD 
HETATM   34  H   UNL     1      -9.116  14.718  69.058  1.00  0.00     0.000 HD 
HETATM   35  H   UNL     1      -6.435  13.784  67.325  1.00  0.00     0.000 HD 
HETATM   36  N   UNL     1      -6.422  11.441  66.429  1.00  0.00    -0.083 NA 
HETATM   37  O   UNL     1      -7.354  13.970  67.479  1.00  0.00    -0.169 OA 
HETATM   38  C   UNL     1      -7.859  11.747  66.618  1.00  0.00    -0.043 C  
BRANCH  28  39
HETATM   39  C   UNL     1     -11.777  11.880  68.469  1.00  0.00    -0.330 C  
HETATM   40  H2  UNL     1     -12.036  10.102  69.482  1.00  0.00     0.000 HD 
HETATM   41  N   UNL     1     -12.478  10.614  68.718  1.00  0.00    -0.690 NA 
HETATM   42  H1  UNL     1     -13.478  10.725  68.891  1.00  0.00     0.000 HD 
ENDBRANCH  28  39
ENDBRANCH  25  26
ENDBRANCH  24  25
ENDBRANCH  10  11
ENDBRANCH   1  10
BRANCH   5  43
HETATM   43  C   UNL     1     -12.561   9.064  71.763  1.00  0.00    -0.367 C  
HETATM   44  O   UNL     1     -13.657   8.723  70.906  1.00  0.00    -0.533 OA 
HETATM   45  H   UNL     1     -14.118   9.513  70.652  1.00  0.00     0.000 HD 
ENDBRANCH   5  43
TORSDOF 6
ENDMDL
MODEL      109
REMARK 921   NORMALIZED FREE ENERGY PREDICTED BY IDOCK:   -5.38 KCAL/MOL
REMARK 922        TOTAL FREE ENERGY PREDICTED BY IDOCK:   -8.91 KCAL/MOL
REMARK 923 INTER-LIGAND FREE ENERGY PREDICTED BY IDOCK:   -8.35 KCAL/MOL
REMARK 924 INTRA-LIGAND FREE ENERGY PREDICTED BY IDOCK:   -0.56 KCAL/MOL
REMARK 927      BINDING AFFINITY PREDICTED BY RF-SCORE:    0.00 PKD
ROOT
HETATM    1  C   UNL     1      -9.009  15.262  67.263  1.00  0.00    -0.195 C  
HETATM    2  O   UNL     1      -9.493  12.728  65.166  1.00  0.00    -0.461 OA 
HETATM    3  O   UNL     1      -8.990  15.721  65.903  1.00  0.00    -0.321 OA 
HETATM    4  H   UNL     1      -9.296  11.973  67.567  1.00  0.00     0.000 HD 
HETATM    5  C   UNL     1     -10.085  15.114  65.194  1.00  0.00    -0.296 C  
HETATM    6  H   UNL     1      -9.610  11.874  65.563  1.00  0.00     0.000 HD 
HETATM    7  C   UNL     1     -10.271  13.743  65.831  1.00  0.00    -0.313 C  
HETATM    8  O   UNL     1      -8.849  12.811  67.570  1.00  0.00    -0.168 OA 
HETATM    9  C   UNL     1      -9.737  13.898  67.257  1.00  0.00    -0.245 C  
ENDROOT
BRANCH   1  10
HETATM   10  O   UNL     1      -9.731  16.180  68.088  1.00  0.00    -0.218 OA 
BRANCH  10  11
HETATM   11  C   UNL     1      -9.114  17.462  68.389  1.00  0.00    -0.274 C  
HETATM   12  O   UNL     1     -11.020  18.721  67.567  1.00  0.00    -0.407 OA 
HETATM   13  H2  UNL     1      -5.082  19.748  68.825  1.00  0.00     0.000 HD 
HETATM   14  H   UNL     1     -11.319  19.408  66.983  1.00  0.00     0.000 HD 
HETATM   15  C   UNL     1      -9.599  18.574  67.445  1.00  0.00    -0.293 C  
HETATM   16  H1  UNL     1      -5.146  18.147  69.375  1.00  0.00     0.000 HD 
HETATM   17  C   UNL     1      -7.468  19.864  67.704  1.00  0.00    -0.320 C  
HETATM   18  N   UNL     1      -9.496  20.944  66.804  1.00  0.00    -0.637 NA 
HETATM   19  N   UNL     1      -5.488  18.823  68.692  1.00  0.00    -0.195 NA 
HETATM   20  H1  UNL     1      -9.089  21.855  67.013  1.00  0.00     0.000 HD 
HETATM   21  H2  UNL     1     -10.516  20.973  66.786  1.00  0.00     0.000 HD 
HETATM   22  C   UNL     1      -6.954  18.847  68.732  1.00  0.00    -0.302 C  
HETATM   23  C   UNL     1      -8.987  19.944  67.758  1.00  0.00    -0.323 C  
HETATM   24  C   UNL     1      -7.561  17.419  68.512  1.00  0.00    -0.254 C  
BRANCH  24  25
HETATM   25  O   UNL     1      -7.102  16.423  69.466  1.00  0.00    -0.223 OA 
BRANCH  25  26
HETATM   26  C   UNL     1      -5.708  16.095  69.430  1.00  0.00    -0.128 C  
HETATM   27  O   UNL     1      -5.180  15.941  70.750  1.00  0.00    -0.168 OA 
HETATM   28  C   UNL     1      -5.753  14.828  71.452  1.00  0.00     0.022 C  
HETATM   29  C   UNL     1      -5.362  13.517  70.755  1.00  0.00    -0.145 C  
HETATM   30  H2  UNL     1      -5.641  15.679  66.716  1.00  0.00     0.000 HD 
HETATM   31  C   UNL     1      -5.879  13.550  69.317  1.00  0.00    -0.086 C  
HETATM   32  O   UNL     1      -5.930  12.351  71.370  1.00  0.00    -0.471 OA 
HETATM   33  H1  UNL     1      -5.766  14.011  66.656  1.00  0.00     0.000 HD 
HETATM   34  H   UNL     1      -5.688  11.540  70.938  1.00  0.00     0.000 HD 
HETATM   35  H   UNL     1      -5.733  12.402  67.726  1.00  0.00     0.000 HD 
HETATM   36  N   UNL     1      -5.961  14.845  67.209  1.00  0.00    -0.254 NA 
HETATM   37  O   UNL     1      -5.412  12.381  68.620  1.00  0.00    -0.053 OA 
HETATM   38  C   UNL     1      -5.410  14.818  68.584  1.00  0.00    -0.095 C  
BRANCH  28  39
HETATM   39  C   UNL     1      -5.289  14.917  72.916  1.00  0.00     0.057 C  
HETATM   40  H2  UNL     1      -5.792  12.986  73.437  1.00  0.00     0.000 HD 
HETATM   41  N   UNL     1      -5.924  13.930  73.800  1.00  0.00    -0.431 NA 
HETATM   42  H1  UNL     1      -5.616  13.989  74.771  1.00  0.00     0.000 HD 
ENDBRANCH  28  39
ENDBRANCH  25  26
ENDBRANCH  24  25
ENDBRANCH  10  11
ENDBRANCH   1  10
BRANCH   5  43
HETATM   43  C   UNL     1     -11.362  15.961  65.263  1.00  0.00    -0.049 C  
HETATM   44  O   UNL     1     -11.189  17.150  64.484  1.00  0.00    -1.104 OA 
HETATM   45  H   UNL     1     -11.979  17.675  64.527  1.00  0.00     0.000 HD 
ENDBRANCH   5  43
TORSDOF 6
ENDMDL
MODEL      110
REMARK 921   NORMALIZED FREE ENERGY PREDICTED BY IDOCK:   -5.37 KCAL/MOL
REMARK 922        TOTAL FREE ENERGY PREDICTED BY IDOCK:   -8.89 KCAL/MOL
REMARK 923 INTER-LIGAND FREE ENERGY PREDICTED BY IDOCK:   -7.54 KCAL/MOL
REMARK 924 INTRA-LIGAND FREE ENERGY PREDICTED BY IDOCK:   -1.35 KCAL/MOL
REMARK 927      BINDING AFFINITY PREDICTED BY RF-SCORE:    0.00 PKD
ROOT
HETATM    1  C   UNL     1     -11.551  11.131  70.206  1.00  0.00    -0.296 C  
HETATM    2  O   UNL     1     -13.124  12.516  72.786  1.00  0.00    -0.288 OA 
HETATM    3  O   UNL     1     -11.602  10.220  71.314  1.00  0.00    -0.344 OA 
HETATM    4  H   UNL     1     -12.801  14.129  70.871  1.00  0.00     0.000 HD 
HETATM    5  C   UNL     1     -12.929  10.243  71.871  1.00  0.00    -0.449 C  
HETATM    6  H   UNL     1     -13.439  13.403  72.657  1.00  0.00     0.000 HD 
HETATM    7  C   UNL     1     -13.432  11.665  71.664  1.00  0.00     0.023 C  
HETATM    8  O   UNL     1     -12.120  13.483  70.723  1.00  0.00    -0.339 OA 
HETATM    9  C   UNL     1     -12.661  12.181  70.446  1.00  0.00    -0.032 C  
ENDROOT
BRANCH   1  10
HETATM   10  O   UNL     1     -11.811  10.440  68.981  1.00  0.00    -0.170 OA 
BRANCH  10  11
HETATM   11  C   UNL     1     -10.877  10.620  67.881  1.00  0.00    -0.277 C  
HETATM   12  O   UNL     1     -11.596  12.902  67.469  1.00  0.00    -0.313 OA 
HETATM   13  H2  UNL     1      -8.536   8.479  64.474  1.00  0.00     0.000 HD 
HETATM   14  H   UNL     1     -11.915  13.525  66.826  1.00  0.00     0.000 HD 
HETATM   15  C   UNL     1     -11.393  11.629  66.842  1.00  0.00    -0.295 C  
HETATM   16  H1  UNL     1      -8.704   7.665  65.950  1.00  0.00     0.000 HD 
HETATM   17  C   UNL     1     -10.098  10.542  64.994  1.00  0.00    -0.390 C  
HETATM   18  N   UNL     1     -10.989  12.829  64.736  1.00  0.00    -0.292 NA 
HETATM   19  N   UNL     1      -9.126   8.317  65.289  1.00  0.00     0.042 NA 
HETATM   20  H1  UNL     1     -10.337  12.983  63.967  1.00  0.00     0.000 HD 
HETATM   21  H2  UNL     1     -11.259  13.701  65.192  1.00  0.00     0.000 HD 
HETATM   22  C   UNL     1      -9.463   9.561  65.989  1.00  0.00    -0.233 C  
HETATM   23  C   UNL     1     -10.414  11.861  65.685  1.00  0.00    -0.262 C  
HETATM   24  C   UNL     1     -10.382   9.294  67.230  1.00  0.00    -0.265 C  
BRANCH  24  25
HETATM   25  O   UNL     1      -9.819   8.371  68.201  1.00  0.00    -0.158 OA 
BRANCH  25  26
HETATM   26  C   UNL     1     -10.687   7.338  68.684  1.00  0.00    -0.138 C  
HETATM   27  O   UNL     1     -10.882   6.323  67.696  1.00  0.00    -0.280 OA 
HETATM   28  C   UNL     1      -9.677   5.609  67.386  1.00  0.00    -0.127 C  
HETATM   29  C   UNL     1      -9.209   4.822  68.618  1.00  0.00    -0.124 C  
HETATM   30  H2  UNL     1     -10.709   8.252  71.274  1.00  0.00     0.000 HD 
HETATM   31  C   UNL     1      -8.956   5.804  69.763  1.00  0.00    -0.129 C  
HETATM   32  O   UNL     1      -7.981   4.109  68.409  1.00  0.00    -0.073 OA 
HETATM   33  H1  UNL     1      -9.563   7.247  71.966  1.00  0.00     0.000 HD 
HETATM   34  H   UNL     1      -7.691   3.622  69.172  1.00  0.00     0.000 HD 
HETATM   35  H   UNL     1      -8.478   5.676  71.668  1.00  0.00     0.000 HD 
HETATM   36  N   UNL     1      -9.893   7.666  71.096  1.00  0.00    -0.173 NA 
HETATM   37  O   UNL     1      -8.635   5.066  70.956  1.00  0.00    -0.118 OA 
HETATM   38  C   UNL     1     -10.181   6.697  70.014  1.00  0.00    -0.187 C  
BRANCH  28  39
HETATM   39  C   UNL     1      -9.965   4.728  66.158  1.00  0.00    -0.241 C  
HETATM   40  H2  UNL     1     -11.428   5.933  65.346  1.00  0.00     0.000 HD 
HETATM   41  N   UNL     1     -11.293   4.948  65.570  1.00  0.00    -0.942 NA 
HETATM   42  H1  UNL     1     -11.483   4.364  64.755  1.00  0.00     0.000 HD 
ENDBRANCH  28  39
ENDBRANCH  25  26
ENDBRANCH  24  25
ENDBRANCH  10  11
ENDBRANCH   1  10
BRANCH   5  43
HETATM   43  C   UNL     1     -13.849   9.203  71.219  1.00  0.00    -0.152 C  
HETATM   44  O   UNL     1     -13.080   8.059  70.833  1.00  0.00    -0.518 OA 
HETATM   45  H   UNL     1     -13.649   7.415  70.429  1.00  0.00     0.000 HD 
ENDBRANCH   5  43
TORSDOF 6
ENDMDL
MODEL      111
REMARK 921   NORMALIZED FREE ENERGY PREDICTED BY IDOCK:   -5.37 KCAL/MOL
REMARK 922        TOTAL FREE ENERGY PREDICTED BY IDOCK:   -8.89 KCAL/MOL
REMARK 923 INTER-LIGAND FREE ENERGY PREDICTED BY IDOCK:   -8.45 KCAL/MOL
REMARK 924 INTRA-LIGAND FREE ENERGY PREDICTED BY IDOCK:   -0.44 KCAL/MOL
REMARK 927      BINDING AFFINITY PREDICTED BY RF-SCORE:    0.00 PKD
ROOT
HETATM    1  C   UNL     1     -11.622  10.606  68.641  1.00  0.00    -0.227 C  
HETATM    2  O   UNL     1     -13.039  10.978  71.625  1.00  0.00    -0.446 OA 
HETATM    3  O   UNL     1     -12.568  11.685  68.619  1.00  0.00    -0.103 OA 
HETATM    4  H   UNL     1     -11.523   8.963  71.519  1.00  0.00     0.000 HD 
HETATM    5  C   UNL     1     -12.381  12.487  69.800  1.00  0.00    -0.020 C  
HETATM    6  H   UNL     1     -12.756  10.374  72.300  1.00  0.00     0.000 HD 
HETATM    7  C   UNL     1     -11.928  11.518  70.882  1.00  0.00    -0.115 C  
HETATM    8  O   UNL     1     -11.748   9.108  70.608  1.00  0.00    -0.271 OA 
HETATM    9  C   UNL     1     -11.256  10.369  70.125  1.00  0.00    -0.321 C  
ENDROOT
BRANCH   1  10
HETATM   10  O   UNL     1     -10.443  10.961  67.914  1.00  0.00    -0.177 OA 
BRANCH  10  11
HETATM   11  C   UNL     1     -10.083  10.157  66.757  1.00  0.00    -0.219 C  
HETATM   12  O   UNL     1     -10.663   8.073  67.859  1.00  0.00    -0.408 OA 
HETATM   13  H2  UNL     1      -7.348   9.889  62.999  1.00  0.00     0.000 HD 
HETATM   14  H   UNL     1     -10.372   7.202  68.104  1.00  0.00     0.000 HD 
HETATM   15  C   UNL     1      -9.613   8.749  67.154  1.00  0.00    -0.175 C  
HETATM   16  H1  UNL     1      -7.973  11.408  63.415  1.00  0.00     0.000 HD 
HETATM   17  C   UNL     1      -8.178   8.542  65.111  1.00  0.00    -0.153 C  
HETATM   18  N   UNL     1      -8.807   6.546  66.420  1.00  0.00    -0.138 NA 
HETATM   19  N   UNL     1      -7.641  10.505  63.756  1.00  0.00    -0.014 NA 
HETATM   20  H1  UNL     1      -8.569   5.961  65.620  1.00  0.00     0.000 HD 
HETATM   21  H2  UNL     1      -9.494   6.102  67.030  1.00  0.00     0.000 HD 
HETATM   22  C   UNL     1      -8.677   9.899  64.599  1.00  0.00    -0.194 C  
HETATM   23  C   UNL     1      -9.255   7.869  65.951  1.00  0.00    -0.042 C  
HETATM   24  C   UNL     1      -9.105  10.855  65.764  1.00  0.00    -0.196 C  
BRANCH  24  25
HETATM   25  O   UNL     1      -9.587  12.154  65.324  1.00  0.00    -0.182 OA 
BRANCH  25  26
HETATM   26  C   UNL     1     -10.793  12.631  65.935  1.00  0.00    -0.270 C  
HETATM   27  O   UNL     1     -10.567  13.861  66.629  1.00  0.00    -0.272 OA 
HETATM   28  C   UNL     1     -10.205  14.937  65.752  1.00  0.00    -0.336 C  
HETATM   29  C   UNL     1     -11.378  15.264  64.818  1.00  0.00    -0.391 C  
HETATM   30  H2  UNL     1     -12.418  10.795  64.698  1.00  0.00     0.000 HD 
HETATM   31  C   UNL     1     -11.722  14.017  64.003  1.00  0.00    -0.248 C  
HETATM   32  O   UNL     1     -11.086  16.305  63.875  1.00  0.00    -1.111 OA 
HETATM   33  H1  UNL     1     -13.010  11.711  63.429  1.00  0.00     0.000 HD 
HETATM   34  H   UNL     1     -11.813  16.507  63.297  1.00  0.00     0.000 HD 
HETATM   35  H   UNL     1     -13.111  13.501  62.708  1.00  0.00     0.000 HD 
HETATM   36  N   UNL     1     -12.247  11.600  64.096  1.00  0.00    -0.150 NA 
HETATM   37  O   UNL     1     -12.897  14.276  63.215  1.00  0.00    -0.483 OA 
HETATM   38  C   UNL     1     -11.960  12.802  64.913  1.00  0.00    -0.402 C  
BRANCH  28  39
HETATM   39  C   UNL     1      -9.760  16.119  66.630  1.00  0.00    -0.244 C  
HETATM   40  H2  UNL     1      -9.445  17.450  65.087  1.00  0.00     0.000 HD 
HETATM   41  N   UNL     1      -8.953  17.117  65.916  1.00  0.00    -0.536 NA 
HETATM   42  H1  UNL     1      -8.659  17.901  66.499  1.00  0.00     0.000 HD 
ENDBRANCH  28  39
ENDBRANCH  25  26
ENDBRANCH  24  25
ENDBRANCH  10  11
ENDBRANCH   1  10
BRANCH   5  43
HETATM   43  C   UNL     1     -11.370  13.620  69.577  1.00  0.00    -0.214 C  
HETATM   44  O   UNL     1     -11.999  14.687  68.860  1.00  0.00    -0.393 OA 
HETATM   45  H   UNL     1     -11.374  15.389  68.722  1.00  0.00     0.000 HD 
ENDBRANCH   5  43
TORSDOF 6
ENDMDL
MODEL      112
REMARK 921   NORMALIZED FREE ENERGY PREDICTED BY IDOCK:   -5.35 KCAL/MOL
REMARK 922        TOTAL FREE ENERGY PREDICTED BY IDOCK:   -8.88 KCAL/MOL
REMARK 923 INTER-LIGAND FREE ENERGY PREDICTED BY IDOCK:   -8.01 KCAL/MOL
REMARK 924 INTRA-LIGAND FREE ENERGY PREDICTED BY IDOCK:   -0.86 KCAL/MOL
REMARK 927      BINDING AFFINITY PREDICTED BY RF-SCORE:    0.00 PKD
ROOT
HETATM    1  C   UNL     1      -9.971  10.646  66.372  1.00  0.00    -0.222 C  
HETATM    2  O   UNL     1      -9.906   9.922  63.129  1.00  0.00    -0.515 OA 
HETATM    3  O   UNL     1      -9.367   9.363  66.154  1.00  0.00    -0.172 OA 
HETATM    4  H   UNL     1     -11.148  12.066  63.617  1.00  0.00     0.000 HD 
HETATM    5  C   UNL     1      -8.446   9.467  65.052  1.00  0.00    -0.154 C  
HETATM    6  H   UNL     1     -10.278  10.575  62.547  1.00  0.00     0.000 HD 
HETATM    7  C   UNL     1      -9.043  10.512  64.121  1.00  0.00    -0.231 C  
HETATM    8  O   UNL     1     -11.194  11.600  64.443  1.00  0.00    -0.326 OA 
HETATM    9  C   UNL     1      -9.895  11.405  65.027  1.00  0.00    -0.261 C  
ENDROOT
BRANCH   1  10
HETATM   10  O   UNL     1      -9.246  11.375  67.367  1.00  0.00    -0.161 OA 
BRANCH  10  11
HETATM   11  C   UNL     1      -9.941  11.738  68.592  1.00  0.00    -0.172 C  
HETATM   12  O   UNL     1     -10.140   9.430  69.319  1.00  0.00    -0.182 OA 
HETATM   13  H2  UNL     1     -12.757  14.853  70.603  1.00  0.00     0.000 HD 
HETATM   14  H   UNL     1     -10.727   8.744  69.615  1.00  0.00     0.000 HD 
HETATM   15  C   UNL     1     -10.890  10.627  69.071  1.00  0.00    -0.235 C  
HETATM   16  H1  UNL     1     -11.583  15.428  69.524  1.00  0.00     0.000 HD 
HETATM   17  C   UNL     1     -12.395  12.267  70.218  1.00  0.00    -0.267 C  
HETATM   18  N   UNL     1     -12.505   9.861  70.757  1.00  0.00    -0.437 NA 
HETATM   19  N   UNL     1     -12.215  14.662  69.760  1.00  0.00    -0.315 NA 
HETATM   20  H1  UNL     1     -12.986  10.090  71.626  1.00  0.00     0.000 HD 
HETATM   21  H2  UNL     1     -12.008   8.972  70.815  1.00  0.00     0.000 HD 
HETATM   22  C   UNL     1     -11.445  13.418  69.863  1.00  0.00    -0.111 C  
HETATM   23  C   UNL     1     -11.614  10.971  70.378  1.00  0.00    -0.293 C  
HETATM   24  C   UNL     1     -10.630  13.136  68.555  1.00  0.00    -0.259 C  
BRANCH  24  25
HETATM   25  O   UNL     1      -9.714  14.200  68.181  1.00  0.00    -0.212 OA 
BRANCH  25  26
HETATM   26  C   UNL     1      -9.153  14.131  66.864  1.00  0.00    -0.245 C  
HETATM   27  O   UNL     1      -9.865  14.972  65.954  1.00  0.00    -0.297 OA 
HETATM   28  C   UNL     1      -9.750  16.365  66.277  1.00  0.00    -0.308 C  
HETATM   29  C   UNL     1      -8.292  16.817  66.116  1.00  0.00    -0.266 C  
HETATM   30  H2  UNL     1      -6.936  12.706  67.638  1.00  0.00     0.000 HD 
HETATM   31  C   UNL     1      -7.412  15.989  67.052  1.00  0.00    -0.229 C  
HETATM   32  O   UNL     1      -8.078  18.194  66.461  1.00  0.00    -0.250 OA 
HETATM   33  H1  UNL     1      -5.808  13.936  67.769  1.00  0.00     0.000 HD 
HETATM   34  H   UNL     1      -7.176  18.474  66.361  1.00  0.00     0.000 HD 
HETATM   35  H   UNL     1      -5.484  15.805  67.401  1.00  0.00     0.000 HD 
HETATM   36  N   UNL     1      -6.801  13.705  67.787  1.00  0.00    -0.155 NA 
HETATM   37  O   UNL     1      -6.031  16.320  66.819  1.00  0.00    -0.323 OA 
HETATM   38  C   UNL     1      -7.632  14.483  66.838  1.00  0.00     0.360 C  
BRANCH  28  39
HETATM   39  C   UNL     1     -10.742  17.130  65.384  1.00  0.00    -0.088 C  
HETATM   40  H2  UNL     1     -11.788  15.477  64.731  1.00  0.00     0.000 HD 
HETATM   41  N   UNL     1     -11.347  16.305  64.330  1.00  0.00    -1.209 NA 
HETATM   42  H1  UNL     1     -12.005  16.812  63.738  1.00  0.00     0.000 HD 
ENDBRANCH  28  39
ENDBRANCH  25  26
ENDBRANCH  24  25
ENDBRANCH  10  11
ENDBRANCH   1  10
BRANCH   5  43
HETATM   43  C   UNL     1      -7.031   9.843  65.513  1.00  0.00    -0.110 C  
HETATM   44  O   UNL     1      -6.479  10.813  64.617  1.00  0.00    -0.367 OA 
HETATM   45  H   UNL     1      -5.604  11.046  64.901  1.00  0.00     0.000 HD 
ENDBRANCH   5  43
TORSDOF 6
ENDMDL
MODEL      113
REMARK 921   NORMALIZED FREE ENERGY PREDICTED BY IDOCK:   -5.34 KCAL/MOL
REMARK 922        TOTAL FREE ENERGY PREDICTED BY IDOCK:   -8.86 KCAL/MOL
REMARK 923 INTER-LIGAND FREE ENERGY PREDICTED BY IDOCK:   -7.49 KCAL/MOL
REMARK 924 INTRA-LIGAND FREE ENERGY PREDICTED BY IDOCK:   -1.37 KCAL/MOL
REMARK 927      BINDING AFFINITY PREDICTED BY RF-SCORE:    0.00 PKD
ROOT
HETATM    1  C   UNL     1     -10.445  12.695  65.928  1.00  0.00    -0.274 C  
HETATM    2  O   UNL     1     -13.311  12.143  64.337  1.00  0.00    -0.740 OA 
HETATM    3  O   UNL     1     -10.488  11.355  65.416  1.00  0.00    -0.264 OA 
HETATM    4  H   UNL     1     -13.245  14.406  65.454  1.00  0.00     0.000 HD 
HETATM    5  C   UNL     1     -10.987  11.391  64.066  1.00  0.00    -0.355 C  
HETATM    6  H   UNL     1     -13.922  12.870  64.311  1.00  0.00     0.000 HD 
HETATM    7  C   UNL     1     -11.966  12.556  64.026  1.00  0.00    -0.454 C  
HETATM    8  O   UNL     1     -12.603  13.907  65.945  1.00  0.00    -0.478 OA 
HETATM    9  C   UNL     1     -11.490  13.507  65.128  1.00  0.00    -0.301 C  
ENDROOT
BRANCH   1  10
HETATM   10  O   UNL     1      -9.149  13.264  65.725  1.00  0.00     0.194 OA 
BRANCH  10  11
HETATM   11  C   UNL     1      -8.146  13.069  66.760  1.00  0.00     0.189 C  
HETATM   12  O   UNL     1      -7.999  10.681  66.354  1.00  0.00    -0.130 OA 
HETATM   13  H2  UNL     1      -6.496  14.642  70.820  1.00  0.00     0.000 HD 
HETATM   14  H   UNL     1      -8.041   9.811  66.735  1.00  0.00     0.000 HD 
HETATM   15  C   UNL     1      -8.214  11.663  67.376  1.00  0.00    -0.153 C  
HETATM   16  H1  UNL     1      -7.026  15.784  69.686  1.00  0.00     0.000 HD 
HETATM   17  C   UNL     1      -7.270  12.460  69.555  1.00  0.00     0.339 C  
HETATM   18  N   UNL     1      -7.291  10.057  68.991  1.00  0.00    -0.078 NA 
HETATM   19  N   UNL     1      -7.154  14.847  70.068  1.00  0.00    -0.128 NA 
HETATM   20  H1  UNL     1      -6.582   9.895  69.705  1.00  0.00     0.000 HD 
HETATM   21  H2  UNL     1      -7.267   9.348  68.258  1.00  0.00     0.000 HD 
HETATM   22  C   UNL     1      -7.078  13.868  68.979  1.00  0.00    -0.098 C  
HETATM   23  C   UNL     1      -7.148  11.419  68.450  1.00  0.00    -0.079 C  
HETATM   24  C   UNL     1      -8.105  14.192  67.841  1.00  0.00    -0.154 C  
BRANCH  24  25
HETATM   25  O   UNL     1      -7.959  15.518  67.264  1.00  0.00    -0.167 OA 
BRANCH  25  26
HETATM   26  C   UNL     1      -9.101  16.052  66.584  1.00  0.00    -0.252 C  
HETATM   27  O   UNL     1     -10.296  15.846  67.341  1.00  0.00    -0.275 OA 
HETATM   28  C   UNL     1     -10.299  16.564  68.583  1.00  0.00    -0.287 C  
HETATM   29  C   UNL     1     -10.306  18.074  68.309  1.00  0.00    -0.380 C  
HETATM   30  H2  UNL     1      -7.634  17.339  64.651  1.00  0.00     0.000 HD 
HETATM   31  C   UNL     1      -9.060  18.434  67.499  1.00  0.00    -0.271 C  
HETATM   32  O   UNL     1     -10.266  18.872  69.502  1.00  0.00    -0.410 OA 
HETATM   33  H1  UNL     1      -7.604  18.893  65.269  1.00  0.00     0.000 HD 
HETATM   34  H   UNL     1     -10.270  19.807  69.332  1.00  0.00     0.000 HD 
HETATM   35  H   UNL     1      -8.345  20.048  66.630  1.00  0.00     0.000 HD 
HETATM   36  N   UNL     1      -7.707  17.904  65.495  1.00  0.00    -0.327 NA 
HETATM   37  O   UNL     1      -9.119  19.825  67.133  1.00  0.00    -0.304 OA 
HETATM   38  C   UNL     1      -8.944  17.565  66.237  1.00  0.00    -0.191 C  
BRANCH  28  39
HETATM   39  C   UNL     1     -11.508  16.074  69.398  1.00  0.00    -0.336 C  
HETATM   40  H2  UNL     1     -11.609  14.194  68.556  1.00  0.00     0.000 HD 
HETATM   41  N   UNL     1     -12.239  14.968  68.765  1.00  0.00    -0.597 NA 
HETATM   42  H1  UNL     1     -13.041  14.642  69.305  1.00  0.00     0.000 HD 
ENDBRANCH  28  39
ENDBRANCH  25  26
ENDBRANCH  24  25
ENDBRANCH  10  11
ENDBRANCH   1  10
BRANCH   5  43
HETATM   43  C   UNL     1      -9.860  11.546  63.036  1.00  0.00    -0.343 C  
HETATM   44  O   UNL     1      -8.602  11.258  63.656  1.00  0.00    -0.386 OA 
HETATM   45  H   UNL     1      -7.905  11.354  63.018  1.00  0.00     0.000 HD 
ENDBRANCH   5  43
TORSDOF 6
ENDMDL
MODEL      114
REMARK 921   NORMALIZED FREE ENERGY PREDICTED BY IDOCK:   -5.33 KCAL/MOL
REMARK 922        TOTAL FREE ENERGY PREDICTED BY IDOCK:   -8.84 KCAL/MOL
REMARK 923 INTER-LIGAND FREE ENERGY PREDICTED BY IDOCK:   -8.71 KCAL/MOL
REMARK 924 INTRA-LIGAND FREE ENERGY PREDICTED BY IDOCK:   -0.14 KCAL/MOL
REMARK 927      BINDING AFFINITY PREDICTED BY RF-SCORE:    0.00 PKD
ROOT
HETATM    1  C   UNL     1     -11.452  12.471  66.324  1.00  0.00    -0.370 C  
HETATM    2  O   UNL     1     -10.738  15.014  64.304  1.00  0.00    -0.521 OA 
HETATM    3  O   UNL     1     -12.599  12.831  65.541  1.00  0.00    -0.611 OA 
HETATM    4  H   UNL     1      -8.837  14.460  65.871  1.00  0.00     0.000 HD 
HETATM    5  C   UNL     1     -12.184  13.030  64.177  1.00  0.00    -0.401 C  
HETATM    6  H   UNL     1      -9.852  15.352  64.355  1.00  0.00     0.000 HD 
HETATM    7  C   UNL     1     -10.764  13.573  64.259  1.00  0.00    -0.308 C  
HETATM    8  O   UNL     1      -9.595  14.109  66.323  1.00  0.00    -0.285 OA 
HETATM    9  C   UNL     1     -10.217  13.043  65.587  1.00  0.00    -0.287 C  
ENDROOT
BRANCH   1  10
HETATM   10  O   UNL     1     -11.334  11.049  66.410  1.00  0.00    -0.186 OA 
BRANCH  10  11
HETATM   11  C   UNL     1     -10.185  10.498  67.113  1.00  0.00    -0.223 C  
HETATM   12  O   UNL     1      -9.382   9.318  65.150  1.00  0.00    -0.354 OA 
HETATM   13  H2  UNL     1      -8.543   9.120  71.246  1.00  0.00     0.000 HD 
HETATM   14  H   UNL     1      -9.107   8.483  64.789  1.00  0.00     0.000 HD 
HETATM   15  C   UNL     1      -9.740   9.149  66.528  1.00  0.00    -0.241 C  
HETATM   16  H1  UNL     1      -9.544  10.486  71.209  1.00  0.00     0.000 HD 
HETATM   17  C   UNL     1      -8.789   8.397  68.720  1.00  0.00    -0.140 C  
HETATM   18  N   UNL     1      -8.162   7.268  66.617  1.00  0.00    -0.115 NA 
HETATM   19  N   UNL     1      -9.329   9.581  70.789  1.00  0.00    -0.217 NA 
HETATM   20  H1  UNL     1      -7.345   6.876  67.085  1.00  0.00     0.000 HD 
HETATM   21  H2  UNL     1      -8.027   7.346  65.609  1.00  0.00     0.000 HD 
HETATM   22  C   UNL     1      -9.113   9.758  69.350  1.00  0.00    -0.201 C  
HETATM   23  C   UNL     1      -8.513   8.559  67.232  1.00  0.00    -0.123 C  
HETATM   24  C   UNL     1     -10.337  10.456  68.664  1.00  0.00    -0.184 C  
BRANCH  24  25
HETATM   25  O   UNL     1     -10.678  11.751  69.228  1.00  0.00    -0.178 OA 
BRANCH  25  26
HETATM   26  C   UNL     1     -12.017  12.213  69.010  1.00  0.00    -0.247 C  
HETATM   27  O   UNL     1     -12.973  11.317  69.582  1.00  0.00     0.048 OA 
HETATM   28  C   UNL     1     -12.887  11.250  71.013  1.00  0.00    -0.300 C  
HETATM   29  C   UNL     1     -13.263  12.608  71.620  1.00  0.00    -0.298 C  
HETATM   30  H2  UNL     1     -11.255  14.669  68.044  1.00  0.00     0.000 HD 
HETATM   31  C   UNL     1     -12.301  13.670  71.087  1.00  0.00    -0.318 C  
HETATM   32  O   UNL     1     -13.163  12.643  73.051  1.00  0.00    -0.167 OA 
HETATM   33  H1  UNL     1     -11.434  15.610  69.417  1.00  0.00     0.000 HD 
HETATM   34  H   UNL     1     -13.396  13.484  73.427  1.00  0.00     0.000 HD 
HETATM   35  H   UNL     1     -12.124  15.625  71.222  1.00  0.00     0.000 HD 
HETATM   36  N   UNL     1     -11.280  14.665  69.064  1.00  0.00    -0.255 NA 
HETATM   37  O   UNL     1     -12.721  14.965  71.553  1.00  0.00    -0.296 OA 
HETATM   38  C   UNL     1     -12.251  13.658  69.551  1.00  0.00    -0.264 C  
BRANCH  28  39
HETATM   39  C   UNL     1     -13.785  10.090  71.476  1.00  0.00    -0.100 C  
HETATM   40  H2  UNL     1     -12.258   8.788  71.952  1.00  0.00     0.000 HD 
HETATM   41  N   UNL     1     -13.130   8.776  71.424  1.00  0.00    -0.461 NA 
HETATM   42  H1  UNL     1     -13.726   8.007  71.731  1.00  0.00     0.000 HD 
ENDBRANCH  28  39
ENDBRANCH  25  26
ENDBRANCH  24  25
ENDBRANCH  10  11
ENDBRANCH   1  10
BRANCH   5  43
HETATM   43  C   UNL     1     -12.263  11.739  63.352  1.00  0.00    -0.348 C  
HETATM   44  O   UNL     1     -10.956  11.167  63.234  1.00  0.00    -0.753 OA 
HETATM   45  H   UNL     1     -11.004  10.368  62.723  1.00  0.00     0.000 HD 
ENDBRANCH   5  43
TORSDOF 6
ENDMDL
MODEL      115
REMARK 921   NORMALIZED FREE ENERGY PREDICTED BY IDOCK:   -5.32 KCAL/MOL
REMARK 922        TOTAL FREE ENERGY PREDICTED BY IDOCK:   -8.82 KCAL/MOL
REMARK 923 INTER-LIGAND FREE ENERGY PREDICTED BY IDOCK:   -8.08 KCAL/MOL
REMARK 924 INTRA-LIGAND FREE ENERGY PREDICTED BY IDOCK:   -0.74 KCAL/MOL
REMARK 927      BINDING AFFINITY PREDICTED BY RF-SCORE:    0.00 PKD
ROOT
HETATM    1  C   UNL     1     -10.675  13.145  68.540  1.00  0.00    -0.259 C  
HETATM    2  O   UNL     1     -11.570  16.347  68.545  1.00  0.00    -0.302 OA 
HETATM    3  O   UNL     1     -12.049  13.286  68.153  1.00  0.00    -0.330 OA 
HETATM    4  H   UNL     1      -9.229  15.995  69.425  1.00  0.00     0.000 HD 
HETATM    5  C   UNL     1     -12.156  14.368  67.210  1.00  0.00    -0.323 C  
HETATM    6  H   UNL     1     -10.897  16.969  68.795  1.00  0.00     0.000 HD 
HETATM    7  C   UNL     1     -11.078  15.365  67.612  1.00  0.00    -0.316 C  
HETATM    8  O   UNL     1      -9.637  15.148  69.559  1.00  0.00    -0.212 OA 
HETATM    9  C   UNL     1     -10.011  14.525  68.320  1.00  0.00    -0.229 C  
ENDROOT
BRANCH   1  10
HETATM   10  O   UNL     1     -10.023  12.171  67.722  1.00  0.00    -0.190 OA 
BRANCH  10  11
HETATM   11  C   UNL     1      -8.687  11.739  68.103  1.00  0.00    -0.168 C  
HETATM   12  O   UNL     1      -7.608  13.453  66.764  1.00  0.00    -0.295 OA 
HETATM   13  H2  UNL     1      -6.081   8.115  69.424  1.00  0.00     0.000 HD 
HETATM   14  H   UNL     1      -6.965  13.639  66.090  1.00  0.00     0.000 HD 
HETATM   15  C   UNL     1      -7.648  12.041  67.012  1.00  0.00    -0.111 C  
HETATM   16  H1  UNL     1      -7.664   8.210  70.021  1.00  0.00     0.000 HD 
HETATM   17  C   UNL     1      -6.187  10.139  67.734  1.00  0.00    -0.057 C  
HETATM   18  N   UNL     1      -5.298  11.939  66.298  1.00  0.00    -0.475 NA 
HETATM   19  N   UNL     1      -7.039   8.411  69.240  1.00  0.00    -0.061 NA 
HETATM   20  H1  UNL     1      -4.352  11.661  66.556  1.00  0.00     0.000 HD 
HETATM   21  H2  UNL     1      -5.349  12.919  66.022  1.00  0.00     0.000 HD 
HETATM   22  C   UNL     1      -7.127   9.837  68.908  1.00  0.00    -0.067 C  
HETATM   23  C   UNL     1      -6.224  11.623  67.399  1.00  0.00    -0.101 C  
HETATM   24  C   UNL     1      -8.605  10.270  68.615  1.00  0.00    -0.128 C  
BRANCH  24  25
HETATM   25  O   UNL     1      -9.531  10.004  69.702  1.00  0.00    -0.214 OA 
BRANCH  25  26
HETATM   26  C   UNL     1     -10.861   9.617  69.333  1.00  0.00    -0.217 C  
HETATM   27  O   UNL     1     -10.860   8.857  68.122  1.00  0.00    -0.136 OA 
HETATM   28  C   UNL     1     -10.185   7.598  68.255  1.00  0.00    -0.195 C  
HETATM   29  C   UNL     1     -10.949   6.701  69.238  1.00  0.00    -0.295 C  
HETATM   30  H2  UNL     1     -11.999  10.432  71.696  1.00  0.00     0.000 HD 
HETATM   31  C   UNL     1     -11.019   7.403  70.595  1.00  0.00    -0.256 C  
HETATM   32  O   UNL     1     -10.318   5.431  69.464  1.00  0.00    -0.244 OA 
HETATM   33  H1  UNL     1     -12.086   8.976  72.516  1.00  0.00     0.000 HD 
HETATM   34  H   UNL     1     -10.792   4.876  70.073  1.00  0.00     0.000 HD 
HETATM   35  H   UNL     1     -11.881   7.063  72.330  1.00  0.00     0.000 HD 
HETATM   36  N   UNL     1     -11.607   9.495  71.780  1.00  0.00    -0.375 NA 
HETATM   37  O   UNL     1     -11.838   6.626  71.487  1.00  0.00    -0.306 OA 
HETATM   38  C   UNL     1     -11.593   8.823  70.460  1.00  0.00    -0.147 C  
BRANCH  28  39
HETATM   39  C   UNL     1     -10.044   6.998  66.845  1.00  0.00    -0.226 C  
HETATM   40  H2  UNL     1     -12.031   6.500  66.605  1.00  0.00     0.000 HD 
HETATM   41  N   UNL     1     -11.118   6.060  66.491  1.00  0.00    -0.761 NA 
HETATM   42  H1  UNL     1     -11.025   5.663  65.556  1.00  0.00     0.000 HD 
ENDBRANCH  28  39
ENDBRANCH  25  26
ENDBRANCH  24  25
ENDBRANCH  10  11
ENDBRANCH   1  10
BRANCH   5  43
HETATM   43  C   UNL     1     -11.993  13.893  65.760  1.00  0.00    -0.400 C  
HETATM   44  O   UNL     1     -13.207  14.133  65.040  1.00  0.00    -0.691 OA 
HETATM   45  H   UNL     1     -13.106  13.838  64.143  1.00  0.00     0.000 HD 
ENDBRANCH   5  43
TORSDOF 6
ENDMDL
MODEL      116
REMARK 921   NORMALIZED FREE ENERGY PREDICTED BY IDOCK:   -5.31 KCAL/MOL
REMARK 922        TOTAL FREE ENERGY PREDICTED BY IDOCK:   -8.81 KCAL/MOL
REMARK 923 INTER-LIGAND FREE ENERGY PREDICTED BY IDOCK:   -7.95 KCAL/MOL
REMARK 924 INTRA-LIGAND FREE ENERGY PREDICTED BY IDOCK:   -0.86 KCAL/MOL
REMARK 927      BINDING AFFINITY PREDICTED BY RF-SCORE:    0.00 PKD
ROOT
HETATM    1  C   UNL     1     -10.292   7.960  66.819  1.00  0.00    -0.287 C  
HETATM    2  O   UNL     1      -9.235   4.900  66.064  1.00  0.00    -0.138 OA 
HETATM    3  O   UNL     1     -11.310   6.990  67.104  1.00  0.00    -0.240 OA 
HETATM    4  H   UNL     1      -7.584   6.688  65.390  1.00  0.00     0.000 HD 
HETATM    5  C   UNL     1     -10.706   5.870  67.778  1.00  0.00    -0.265 C  
HETATM    6  H   UNL     1      -8.355   4.837  65.712  1.00  0.00     0.000 HD 
HETATM    7  C   UNL     1      -9.296   5.768  67.213  1.00  0.00    -0.113 C  
HETATM    8  O   UNL     1      -8.407   7.160  65.428  1.00  0.00    -0.136 OA 
HETATM    9  C   UNL     1      -8.952   7.189  66.757  1.00  0.00    -0.137 C  
ENDROOT
BRANCH   1  10
HETATM   10  O   UNL     1     -10.228   8.936  67.862  1.00  0.00    -0.198 OA 
BRANCH  10  11
HETATM   11  C   UNL     1      -9.085   9.836  67.888  1.00  0.00    -0.121 C  
HETATM   12  O   UNL     1      -7.912   8.511  69.550  1.00  0.00    -0.101 OA 
HETATM   13  H2  UNL     1      -7.677  14.233  67.291  1.00  0.00     0.000 HD 
HETATM   14  H   UNL     1      -7.475   8.511  70.394  1.00  0.00     0.000 HD 
HETATM   15  C   UNL     1      -8.378   9.834  69.253  1.00  0.00    -0.142 C  
HETATM   16  H1  UNL     1      -8.870  13.636  66.247  1.00  0.00     0.000 HD 
HETATM   17  C   UNL     1      -7.549  12.177  68.940  1.00  0.00     0.003 C  
HETATM   18  N   UNL     1      -6.543  10.697  70.640  1.00  0.00    -0.419 NA 
HETATM   19  N   UNL     1      -8.475  13.607  67.187  1.00  0.00    -0.198 NA 
HETATM   20  H1  UNL     1      -5.727  11.308  70.671  1.00  0.00     0.000 HD 
HETATM   21  H2  UNL     1      -6.320   9.743  70.922  1.00  0.00     0.000 HD 
HETATM   22  C   UNL     1      -8.143  12.220  67.527  1.00  0.00    -0.170 C  
HETATM   23  C   UNL     1      -7.151  10.752  69.300  1.00  0.00    -0.116 C  
HETATM   24  C   UNL     1      -9.385  11.276  67.374  1.00  0.00    -0.162 C  
BRANCH  24  25
HETATM   25  O   UNL     1      -9.980  11.284  66.048  1.00  0.00    -0.215 OA 
BRANCH  25  26
HETATM   26  C   UNL     1     -11.410  11.360  65.986  1.00  0.00    -0.026 C  
HETATM   27  O   UNL     1     -11.947  11.942  67.177  1.00  0.00    -0.611 OA 
HETATM   28  C   UNL     1     -11.561  13.313  67.350  1.00  0.00    -0.353 C  
HETATM   29  C   UNL     1     -12.166  14.169  66.230  1.00  0.00    -0.449 C  
HETATM   30  H2  UNL     1     -11.561  10.659  63.335  1.00  0.00     0.000 HD 
HETATM   31  C   UNL     1     -11.661  13.649  64.884  1.00  0.00    -0.344 C  
HETATM   32  O   UNL     1     -11.794  15.553  66.302  1.00  0.00     0.186 OA 
HETATM   33  H1  UNL     1     -11.713  12.166  62.624  1.00  0.00     0.000 HD 
HETATM   34  H   UNL     1     -12.169  16.083  65.608  1.00  0.00     0.000 HD 
HETATM   35  H   UNL     1     -12.003  14.042  62.986  1.00  0.00     0.000 HD 
HETATM   36  N   UNL     1     -11.380  11.656  63.442  1.00  0.00    -0.357 NA 
HETATM   37  O   UNL     1     -12.318  14.366  63.823  1.00  0.00    -0.736 OA 
HETATM   38  C   UNL     1     -11.919  12.141  64.734  1.00  0.00    -0.307 C  
BRANCH  28  39
HETATM   39  C   UNL     1     -11.995  13.739  68.763  1.00  0.00    -0.365 C  
HETATM   40  H2  UNL     1     -10.286  13.108  69.731  1.00  0.00     0.000 HD 
HETATM   41  N   UNL     1     -11.297  13.022  69.839  1.00  0.00    -0.501 NA 
HETATM   42  H1  UNL     1     -11.584  13.305  70.776  1.00  0.00     0.000 HD 
ENDBRANCH  28  39
ENDBRANCH  25  26
ENDBRANCH  24  25
ENDBRANCH  10  11
ENDBRANCH   1  10
BRANCH   5  43
HETATM   43  C   UNL     1     -10.708   6.040  69.303  1.00  0.00    -0.332 C  
HETATM   44  O   UNL     1     -11.804   6.876  69.689  1.00  0.00    -0.603 OA 
HETATM   45  H   UNL     1     -11.806   6.981  70.632  1.00  0.00     0.000 HD 
ENDBRANCH   5  43
TORSDOF 6
ENDMDL
MODEL      117
REMARK 921   NORMALIZED FREE ENERGY PREDICTED BY IDOCK:   -5.30 KCAL/MOL
REMARK 922        TOTAL FREE ENERGY PREDICTED BY IDOCK:   -8.81 KCAL/MOL
REMARK 923 INTER-LIGAND FREE ENERGY PREDICTED BY IDOCK:   -7.56 KCAL/MOL
REMARK 924 INTRA-LIGAND FREE ENERGY PREDICTED BY IDOCK:   -1.25 KCAL/MOL
REMARK 927      BINDING AFFINITY PREDICTED BY RF-SCORE:    0.00 PKD
ROOT
HETATM    1  C   UNL     1     -10.346   8.392  70.254  1.00  0.00    -0.205 C  
HETATM    2  O   UNL     1     -12.168   6.804  72.536  1.00  0.00    -0.502 OA 
HETATM    3  O   UNL     1     -10.234   9.041  71.529  1.00  0.00    -0.298 OA 
HETATM    4  H   UNL     1     -12.481   5.856  70.217  1.00  0.00     0.000 HD 
HETATM    5  C   UNL     1     -10.042   8.037  72.543  1.00  0.00    -0.278 C  
HETATM    6  H   UNL     1     -12.647   6.042  72.232  1.00  0.00     0.000 HD 
HETATM    7  C   UNL     1     -10.809   6.816  72.056  1.00  0.00    -0.227 C  
HETATM    8  O   UNL     1     -12.177   6.739  70.047  1.00  0.00    -0.172 OA 
HETATM    9  C   UNL     1     -10.841   6.953  70.532  1.00  0.00    -0.253 C  
ENDROOT
BRANCH   1  10
HETATM   10  O   UNL     1      -9.071   8.337  69.609  1.00  0.00    -0.151 OA 
BRANCH  10  11
HETATM   11  C   UNL     1      -8.978   7.650  68.330  1.00  0.00    -0.128 C  
HETATM   12  O   UNL     1      -8.296   5.557  69.353  1.00  0.00    -0.099 OA 
HETATM   13  H2  UNL     1      -8.158   8.160  63.776  1.00  0.00     0.000 HD 
HETATM   14  H   UNL     1      -7.652   4.859  69.367  1.00  0.00     0.000 HD 
HETATM   15  C   UNL     1      -7.937   6.520  68.353  1.00  0.00    -0.110 C  
HETATM   16  H1  UNL     1      -9.027   9.382  64.565  1.00  0.00     0.000 HD 
HETATM   17  C   UNL     1      -7.514   6.722  65.893  1.00  0.00    -0.081 C  
HETATM   18  N   UNL     1      -6.817   4.705  67.133  1.00  0.00    -0.055 NA 
HETATM   19  N   UNL     1      -8.298   8.674  64.646  1.00  0.00    -0.165 NA 
HETATM   20  H1  UNL     1      -6.752   4.199  66.250  1.00  0.00     0.000 HD 
HETATM   21  H2  UNL     1      -6.988   4.082  67.922  1.00  0.00     0.000 HD 
HETATM   22  C   UNL     1      -8.611   7.788  65.772  1.00  0.00    -0.143 C  
HETATM   23  C   UNL     1      -7.840   5.759  67.026  1.00  0.00    -0.102 C  
HETATM   24  C   UNL     1      -8.808   8.594  67.101  1.00  0.00    -0.129 C  
BRANCH  24  25
HETATM   25  O   UNL     1      -9.841   9.614  67.033  1.00  0.00    -0.174 OA 
BRANCH  25  26
HETATM   26  C   UNL     1      -9.395  10.975  66.981  1.00  0.00    -0.172 C  
HETATM   27  O   UNL     1      -9.273  11.428  65.631  1.00  0.00    -0.215 OA 
HETATM   28  C   UNL     1     -10.533  11.478  64.945  1.00  0.00    -0.291 C  
HETATM   29  C   UNL     1     -11.437  12.534  65.597  1.00  0.00    -0.359 C  
HETATM   30  H2  UNL     1      -9.671  11.406  69.680  1.00  0.00     0.000 HD 
HETATM   31  C   UNL     1     -11.654  12.160  67.063  1.00  0.00    -0.337 C  
HETATM   32  O   UNL     1     -12.739  12.621  64.997  1.00  0.00    -0.658 OA 
HETATM   33  H1  UNL     1     -11.159  12.171  69.720  1.00  0.00     0.000 HD 
HETATM   34  H   UNL     1     -13.298  13.275  65.401  1.00  0.00     0.000 HD 
HETATM   35  H   UNL     1     -12.533  12.974  68.624  1.00  0.00     0.000 HD 
HETATM   36  N   UNL     1     -10.557  11.539  69.193  1.00  0.00    -0.180 NA 
HETATM   37  O   UNL     1     -12.398  13.207  67.713  1.00  0.00    -0.161 OA 
HETATM   38  C   UNL     1     -10.316  11.942  67.788  1.00  0.00    -0.198 C  
BRANCH  28  39
HETATM   39  C   UNL     1     -10.240  11.742  63.458  1.00  0.00    -0.450 C  
HETATM   40  H2  UNL     1     -10.896   9.914  62.764  1.00  0.00     0.000 HD 
HETATM   41  N   UNL     1     -10.082  10.519  62.660  1.00  0.00    -0.739 NA 
HETATM   42  H1  UNL     1      -9.887  10.694  61.674  1.00  0.00     0.000 HD 
ENDBRANCH  28  39
ENDBRANCH  25  26
ENDBRANCH  24  25
ENDBRANCH  10  11
ENDBRANCH   1  10
BRANCH   5  43
HETATM   43  C   UNL     1      -8.557   7.731  72.781  1.00  0.00    -0.153 C  
HETATM   44  O   UNL     1      -7.863   8.944  73.092  1.00  0.00    -0.378 OA 
HETATM   45  H   UNL     1      -6.945   8.755  73.239  1.00  0.00     0.000 HD 
ENDBRANCH   5  43
TORSDOF 6
ENDMDL
MODEL      118
REMARK 921   NORMALIZED FREE ENERGY PREDICTED BY IDOCK:   -5.30 KCAL/MOL
REMARK 922        TOTAL FREE ENERGY PREDICTED BY IDOCK:   -8.81 KCAL/MOL
REMARK 923 INTER-LIGAND FREE ENERGY PREDICTED BY IDOCK:   -8.61 KCAL/MOL
REMARK 924 INTRA-LIGAND FREE ENERGY PREDICTED BY IDOCK:   -0.20 KCAL/MOL
REMARK 927      BINDING AFFINITY PREDICTED BY RF-SCORE:    0.00 PKD
ROOT
HETATM    1  C   UNL     1     -11.364  11.919  66.814  1.00  0.00    -0.330 C  
HETATM    2  O   UNL     1     -13.138  14.656  66.170  1.00  0.00    -0.139 OA 
HETATM    3  O   UNL     1     -12.101  11.767  65.592  1.00  0.00    -0.336 OA 
HETATM    4  H   UNL     1     -11.983  14.757  68.412  1.00  0.00     0.000 HD 
HETATM    5  C   UNL     1     -11.964  12.973  64.817  1.00  0.00    -0.395 C  
HETATM    6  H   UNL     1     -13.067  15.359  66.804  1.00  0.00     0.000 HD 
HETATM    7  C   UNL     1     -11.851  14.099  65.834  1.00  0.00    -0.384 C  
HETATM    8  O   UNL     1     -12.038  13.825  68.243  1.00  0.00    -0.362 OA 
HETATM    9  C   UNL     1     -11.274  13.439  67.089  1.00  0.00    -0.302 C  
ENDROOT
BRANCH   1  10
HETATM   10  O   UNL     1     -10.045  11.386  66.671  1.00  0.00    -0.203 OA 
BRANCH  10  11
HETATM   11  C   UNL     1      -9.062  11.707  67.693  1.00  0.00    -0.174 C  
HETATM   12  O   UNL     1      -8.235  13.640  66.480  1.00  0.00    -0.341 OA 
HETATM   13  H2  UNL     1      -6.334   9.968  71.042  1.00  0.00     0.000 HD 
HETATM   14  H   UNL     1      -7.473  14.079  66.120  1.00  0.00     0.000 HD 
HETATM   15  C   UNL     1      -7.830  12.417  67.111  1.00  0.00    -0.138 C  
HETATM   16  H1  UNL     1      -7.878   9.296  70.851  1.00  0.00     0.000 HD 
HETATM   17  C   UNL     1      -6.343  11.552  68.931  1.00  0.00    -0.059 C  
HETATM   18  N   UNL     1      -5.644  13.458  67.528  1.00  0.00    -0.340 NA 
HETATM   19  N   UNL     1      -7.080   9.732  70.388  1.00  0.00    -0.134 NA 
HETATM   20  H1  UNL     1      -4.952  13.708  68.234  1.00  0.00     0.000 HD 
HETATM   21  H2  UNL     1      -5.930  14.261  66.968  1.00  0.00     0.000 HD 
HETATM   22  C   UNL     1      -7.543  10.897  69.627  1.00  0.00     0.023 C  
HETATM   23  C   UNL     1      -6.790  12.793  68.172  1.00  0.00    -0.094 C  
HETATM   24  C   UNL     1      -8.680  10.512  68.619  1.00  0.00    -0.143 C  
BRANCH  24  25
HETATM   25  O   UNL     1      -9.839   9.889  69.236  1.00  0.00    -0.184 OA 
BRANCH  25  26
HETATM   26  C   UNL     1      -9.617   9.211  70.479  1.00  0.00    -0.243 C  
HETATM   27  O   UNL     1     -10.600   9.579  71.450  1.00  0.00    -0.336 OA 
HETATM   28  C   UNL     1     -11.924   9.159  71.088  1.00  0.00    -0.308 C  
HETATM   29  C   UNL     1     -11.995   7.626  71.069  1.00  0.00    -0.273 C  
HETATM   30  H2  UNL     1      -7.691   7.528  69.479  1.00  0.00     0.000 HD 
HETATM   31  C   UNL     1     -10.983   7.097  70.053  1.00  0.00    -0.262 C  
HETATM   32  O   UNL     1     -13.278   7.117  70.674  1.00  0.00    -0.561 OA 
HETATM   33  H1  UNL     1      -8.601   6.152  69.193  1.00  0.00     0.000 HD 
HETATM   34  H   UNL     1     -13.322   6.168  70.663  1.00  0.00     0.000 HD 
HETATM   35  H   UNL     1     -10.326   5.331  69.485  1.00  0.00     0.000 HD 
HETATM   36  N   UNL     1      -8.627   7.167  69.297  1.00  0.00    -0.136 NA 
HETATM   37  O   UNL     1     -10.955   5.660  70.116  1.00  0.00    -0.313 OA 
HETATM   38  C   UNL     1      -9.577   7.659  70.321  1.00  0.00    -0.172 C  
BRANCH  28  39
HETATM   39  C   UNL     1     -12.903   9.816  72.076  1.00  0.00    -0.401 C  
HETATM   40  H2  UNL     1     -13.007   8.229  73.390  1.00  0.00     0.000 HD 
HETATM   41  N   UNL     1     -13.647   8.854  72.900  1.00  0.00    -0.908 NA 
HETATM   42  H1  UNL     1     -14.296   9.290  73.556  1.00  0.00     0.000 HD 
ENDBRANCH  28  39
ENDBRANCH  25  26
ENDBRANCH  24  25
ENDBRANCH  10  11
ENDBRANCH   1  10
BRANCH   5  43
HETATM   43  C   UNL     1     -10.756  12.922  63.873  1.00  0.00    -0.357 C  
HETATM   44  O   UNL     1     -10.011  14.140  63.984  1.00  0.00    -0.303 OA 
HETATM   45  H   UNL     1      -9.263  14.109  63.400  1.00  0.00     0.000 HD 
ENDBRANCH   5  43
TORSDOF 6
ENDMDL
MODEL      119
REMARK 921   NORMALIZED FREE ENERGY PREDICTED BY IDOCK:   -5.28 KCAL/MOL
REMARK 922        TOTAL FREE ENERGY PREDICTED BY IDOCK:   -8.78 KCAL/MOL
REMARK 923 INTER-LIGAND FREE ENERGY PREDICTED BY IDOCK:   -6.87 KCAL/MOL
REMARK 924 INTRA-LIGAND FREE ENERGY PREDICTED BY IDOCK:   -1.90 KCAL/MOL
REMARK 927      BINDING AFFINITY PREDICTED BY RF-SCORE:    0.00 PKD
ROOT
HETATM    1  C   UNL     1      -9.795   6.634  68.556  1.00  0.00    -0.139 C  
HETATM    2  O   UNL     1      -9.566   4.546  65.978  1.00  0.00    -0.156 OA 
HETATM    3  O   UNL     1      -8.835   5.602  68.826  1.00  0.00    -0.109 OA 
HETATM    4  H   UNL     1     -11.390   6.265  65.672  1.00  0.00     0.000 HD 
HETATM    5  C   UNL     1      -8.006   5.426  67.662  1.00  0.00    -0.100 C  
HETATM    6  H   UNL     1     -10.127   4.736  65.236  1.00  0.00     0.000 HD 
HETATM    7  C   UNL     1      -8.906   5.729  66.472  1.00  0.00    -0.126 C  
HETATM    8  O   UNL     1     -11.280   6.236  66.615  1.00  0.00    -0.243 OA 
HETATM    9  C   UNL     1      -9.974   6.679  67.020  1.00  0.00    -0.169 C  
ENDROOT
BRANCH   1  10
HETATM   10  O   UNL     1      -9.310   7.898  69.013  1.00  0.00    -0.151 OA 
BRANCH  10  11
HETATM   11  C   UNL     1      -9.792   8.396  70.292  1.00  0.00    -0.181 C  
HETATM   12  O   UNL     1      -8.105   7.185  71.549  1.00  0.00    -0.102 OA 
HETATM   13  H2  UNL     1     -13.518   9.906  72.639  1.00  0.00     0.000 HD 
HETATM   14  H   UNL     1      -7.935   6.575  72.257  1.00  0.00     0.000 HD 
HETATM   15  C   UNL     1      -9.517   7.410  71.438  1.00  0.00    -0.152 C  
HETATM   16  H1  UNL     1     -13.374  10.355  71.011  1.00  0.00     0.000 HD 
HETATM   17  C   UNL     1     -11.476   8.239  72.759  1.00  0.00    -0.338 C  
HETATM   18  N   UNL     1      -9.695   6.915  73.838  1.00  0.00    -0.243 NA 
HETATM   19  N   UNL     1     -13.187   9.638  71.713  1.00  0.00    -0.401 NA 
HETATM   20  H1  UNL     1     -10.009   7.256  74.746  1.00  0.00     0.000 HD 
HETATM   21  H2  UNL     1      -8.711   6.648  73.847  1.00  0.00     0.000 HD 
HETATM   22  C   UNL     1     -11.756   9.317  71.704  1.00  0.00    -0.392 C  
HETATM   23  C   UNL     1      -9.989   7.921  72.804  1.00  0.00    -0.283 C  
HETATM   24  C   UNL     1     -11.269   8.894  70.276  1.00  0.00    -0.197 C  
BRANCH  24  25
HETATM   25  O   UNL     1     -11.513   9.888  69.244  1.00  0.00    -0.129 OA 
BRANCH  25  26
HETATM   26  C   UNL     1     -10.506  10.894  69.071  1.00  0.00    -0.219 C  
HETATM   27  O   UNL     1      -9.730  10.652  67.895  1.00  0.00    -0.158 OA 
HETATM   28  C   UNL     1     -10.500  10.760  66.689  1.00  0.00    -0.246 C  
HETATM   29  C   UNL     1     -10.982  12.205  66.508  1.00  0.00    -0.284 C  
HETATM   30  H2  UNL     1     -11.471  12.524  71.060  1.00  0.00     0.000 HD 
HETATM   31  C   UNL     1     -11.840  12.594  67.712  1.00  0.00    -0.323 C  
HETATM   32  O   UNL     1     -11.799  12.395  65.343  1.00  0.00    -0.387 OA 
HETATM   33  H1  UNL     1     -12.352  13.625  70.158  1.00  0.00     0.000 HD 
HETATM   34  H   UNL     1     -12.098  13.290  65.231  1.00  0.00     0.000 HD 
HETATM   35  H   UNL     1     -12.728  14.226  68.360  1.00  0.00     0.000 HD 
HETATM   36  N   UNL     1     -11.966  12.681  70.183  1.00  0.00    -0.341 NA 
HETATM   37  O   UNL     1     -12.195  13.985  67.611  1.00  0.00    -0.352 OA 
HETATM   38  C   UNL     1     -11.097  12.338  69.033  1.00  0.00    -0.236 C  
BRANCH  28  39
HETATM   39  C   UNL     1      -9.623  10.247  65.534  1.00  0.00    -0.242 C  
HETATM   40  H2  UNL     1      -8.829  12.078  65.014  1.00  0.00     0.000 HD 
HETATM   41  N   UNL     1      -9.270  11.282  64.553  1.00  0.00    -0.378 NA 
HETATM   42  H1  UNL     1      -8.688  10.942  63.788  1.00  0.00     0.000 HD 
ENDBRANCH  28  39
ENDBRANCH  25  26
ENDBRANCH  24  25
ENDBRANCH  10  11
ENDBRANCH   1  10
BRANCH   5  43
HETATM   43  C   UNL     1      -6.764   6.327  67.693  1.00  0.00    -0.061 C  
HETATM   44  O   UNL     1      -6.486   6.710  69.044  1.00  0.00    -0.037 OA 
HETATM   45  H   UNL     1      -5.717   7.268  69.063  1.00  0.00     0.000 HD 
ENDBRANCH   5  43
TORSDOF 6
ENDMDL
MODEL      120
REMARK 921   NORMALIZED FREE ENERGY PREDICTED BY IDOCK:   -5.25 KCAL/MOL
REMARK 922        TOTAL FREE ENERGY PREDICTED BY IDOCK:   -8.74 KCAL/MOL
REMARK 923 INTER-LIGAND FREE ENERGY PREDICTED BY IDOCK:   -8.40 KCAL/MOL
REMARK 924 INTRA-LIGAND FREE ENERGY PREDICTED BY IDOCK:   -0.34 KCAL/MOL
REMARK 927      BINDING AFFINITY PREDICTED BY RF-SCORE:    0.00 PKD
ROOT
HETATM    1  C   UNL     1     -12.344  13.051  69.694  1.00  0.00    -0.045 C  
HETATM    2  O   UNL     1     -14.099  13.987  72.358  1.00  0.00    -0.552 OA 
HETATM    3  O   UNL     1     -12.859  14.378  69.518  1.00  0.00     0.006 OA 
HETATM    4  H   UNL     1     -13.341  11.583  72.495  1.00  0.00     0.000 HD 
HETATM    5  C   UNL     1     -12.646  15.122  70.733  1.00  0.00    -0.393 C  
HETATM    6  H   UNL     1     -14.165  13.350  73.060  1.00  0.00     0.000 HD 
HETATM    7  C   UNL     1     -12.753  14.101  71.857  1.00  0.00    -0.320 C  
HETATM    8  O   UNL     1     -13.328  11.757  71.562  1.00  0.00    -0.268 OA 
HETATM    9  C   UNL     1     -12.366  12.767  71.215  1.00  0.00    -0.059 C  
ENDROOT
BRANCH   1  10
HETATM   10  O   UNL     1     -10.999  12.970  69.218  1.00  0.00    -0.181 OA 
BRANCH  10  11
HETATM   11  C   UNL     1     -10.682  11.952  68.228  1.00  0.00    -0.223 C  
HETATM   12  O   UNL     1     -12.308  10.387  69.124  1.00  0.00    -0.702 OA 
HETATM   13  H2  UNL     1      -7.361  10.219  65.465  1.00  0.00     0.000 HD 
HETATM   14  H   UNL     1     -12.460   9.509  69.453  1.00  0.00     0.000 HD 
HETATM   15  C   UNL     1     -10.929  10.531  68.760  1.00  0.00    -0.251 C  
HETATM   16  H1  UNL     1      -7.428  11.901  65.661  1.00  0.00     0.000 HD 
HETATM   17  C   UNL     1      -9.193   9.552  67.243  1.00  0.00    -0.154 C  
HETATM   18  N   UNL     1     -10.884   8.114  68.321  1.00  0.00    -0.441 NA 
HETATM   19  N   UNL     1      -7.583  10.990  66.094  1.00  0.00    -0.123 NA 
HETATM   20  H1  UNL     1     -10.686   7.387  67.634  1.00  0.00     0.000 HD 
HETATM   21  H2  UNL     1     -11.827   8.037  68.701  1.00  0.00     0.000 HD 
HETATM   22  C   UNL     1      -8.960  10.922  66.593  1.00  0.00    -0.164 C  
HETATM   23  C   UNL     1     -10.631   9.438  67.727  1.00  0.00    -0.258 C  
HETATM   24  C   UNL     1      -9.279  12.107  67.568  1.00  0.00    -0.182 C  
BRANCH  24  25
HETATM   25  O   UNL     1      -9.074  13.425  66.992  1.00  0.00    -0.228 OA 
BRANCH  25  26
HETATM   26  C   UNL     1      -9.512  14.543  67.775  1.00  0.00    -0.210 C  
HETATM   27  O   UNL     1      -8.401  15.268  68.308  1.00  0.00    -0.142 OA 
HETATM   28  C   UNL     1      -7.600  15.885  67.289  1.00  0.00    -0.203 C  
HETATM   29  C   UNL     1      -8.419  16.965  66.568  1.00  0.00    -0.271 C  
HETATM   30  H2  UNL     1     -12.146  14.326  67.027  1.00  0.00     0.000 HD 
HETATM   31  C   UNL     1      -9.651  16.312  65.941  1.00  0.00    -0.301 C  
HETATM   32  O   UNL     1      -7.705  17.607  65.501  1.00  0.00    -0.440 OA 
HETATM   33  H1  UNL     1     -12.220  15.481  65.817  1.00  0.00     0.000 HD 
HETATM   34  H   UNL     1      -8.212  18.275  65.055  1.00  0.00     0.000 HD 
HETATM   35  H   UNL     1     -11.253  16.928  64.978  1.00  0.00     0.000 HD 
HETATM   36  N   UNL     1     -11.609  14.850  66.337  1.00  0.00    -0.292 NA 
HETATM   37  O   UNL     1     -10.487  17.334  65.368  1.00  0.00    -0.635 OA 
HETATM   38  C   UNL     1     -10.447  15.507  66.980  1.00  0.00    -0.304 C  
BRANCH  28  39
HETATM   39  C   UNL     1      -6.325  16.418  67.965  1.00  0.00    -0.126 C  
HETATM   40  H2  UNL     1      -5.543  17.336  66.292  1.00  0.00     0.000 HD 
HETATM   41  N   UNL     1      -5.231  16.700  67.025  1.00  0.00    -0.272 NA 
HETATM   42  H1  UNL     1      -4.386  17.054  67.474  1.00  0.00     0.000 HD 
ENDBRANCH  28  39
ENDBRANCH  25  26
ENDBRANCH  24  25
ENDBRANCH  10  11
ENDBRANCH   1  10
BRANCH   5  43
HETATM   43  C   UNL     1     -11.296  15.850  70.738  1.00  0.00    -0.395 C  
HETATM   44  O   UNL     1     -11.341  16.946  69.817  1.00  0.00    -0.267 OA 
HETATM   45  H   UNL     1     -10.505  17.397  69.820  1.00  0.00     0.000 HD 
ENDBRANCH   5  43
TORSDOF 6
ENDMDL
MODEL      121
REMARK 921   NORMALIZED FREE ENERGY PREDICTED BY IDOCK:   -5.24 KCAL/MOL
REMARK 922        TOTAL FREE ENERGY PREDICTED BY IDOCK:   -8.72 KCAL/MOL
REMARK 923 INTER-LIGAND FREE ENERGY PREDICTED BY IDOCK:   -8.04 KCAL/MOL
REMARK 924 INTRA-LIGAND FREE ENERGY PREDICTED BY IDOCK:   -0.68 KCAL/MOL
REMARK 927      BINDING AFFINITY PREDICTED BY RF-SCORE:    0.00 PKD
ROOT
HETATM    1  C   UNL     1      -6.752  15.566  67.575  1.00  0.00    -0.190 C  
HETATM    2  O   UNL     1      -5.140  15.142  70.451  1.00  0.00    -0.107 OA 
HETATM    3  O   UNL     1      -5.575  14.769  67.381  1.00  0.00    -0.341 OA 
HETATM    4  H   UNL     1      -7.104  16.714  70.665  1.00  0.00     0.000 HD 
HETATM    5  C   UNL     1      -5.502  13.788  68.432  1.00  0.00    -0.099 C  
HETATM    6  H   UNL     1      -5.528  15.557  71.213  1.00  0.00     0.000 HD 
HETATM    7  C   UNL     1      -6.122  14.454  69.652  1.00  0.00    -0.119 C  
HETATM    8  O   UNL     1      -6.896  16.757  69.740  1.00  0.00    -0.127 OA 
HETATM    9  C   UNL     1      -7.090  15.494  69.082  1.00  0.00    -0.164 C  
ENDROOT
BRANCH   1  10
HETATM   10  O   UNL     1      -7.843  15.035  66.819  1.00  0.00    -0.111 OA 
BRANCH  10  11
HETATM   11  C   UNL     1      -9.152  15.648  66.983  1.00  0.00    -0.219 C  
HETATM   12  O   UNL     1      -8.554  17.592  65.657  1.00  0.00    -0.431 OA 
HETATM   13  H2  UNL     1     -12.865  16.031  69.765  1.00  0.00     0.000 HD 
HETATM   14  H   UNL     1      -8.513  18.540  65.621  1.00  0.00     0.000 HD 
HETATM   15  C   UNL     1      -9.085  17.183  66.925  1.00  0.00    -0.238 C  
HETATM   16  H1  UNL     1     -12.117  14.516  69.650  1.00  0.00     0.000 HD 
HETATM   17  C   UNL     1     -11.117  17.429  68.368  1.00  0.00     0.028 C  
HETATM   18  N   UNL     1     -10.297  19.318  67.008  1.00  0.00    -0.395 NA 
HETATM   19  N   UNL     1     -11.989  15.528  69.634  1.00  0.00    -0.357 NA 
HETATM   20  H1  UNL     1     -11.209  19.765  67.101  1.00  0.00     0.000 HD 
HETATM   21  H2  UNL     1      -9.806  19.619  66.166  1.00  0.00     0.000 HD 
HETATM   22  C   UNL     1     -11.309  15.907  68.391  1.00  0.00    -0.361 C  
HETATM   23  C   UNL     1     -10.455  17.855  67.065  1.00  0.00    -0.340 C  
HETATM   24  C   UNL     1      -9.957  15.133  68.214  1.00  0.00    -0.223 C  
BRANCH  24  25
HETATM   25  O   UNL     1     -10.093  13.686  68.228  1.00  0.00    -0.229 OA 
BRANCH  25  26
HETATM   26  C   UNL     1     -11.345  13.154  67.778  1.00  0.00    -0.290 C  
HETATM   27  O   UNL     1     -11.483  13.286  66.361  1.00  0.00    -0.306 OA 
HETATM   28  C   UNL     1     -10.524  12.505  65.634  1.00  0.00    -0.273 C  
HETATM   29  C   UNL     1     -10.776  11.012  65.879  1.00  0.00    -0.160 C  
HETATM   30  H2  UNL     1     -11.987  12.012  70.192  1.00  0.00     0.000 HD 
HETATM   31  C   UNL     1     -10.652  10.731  67.377  1.00  0.00    -0.242 C  
HETATM   32  O   UNL     1      -9.832  10.155  65.220  1.00  0.00    -0.280 OA 
HETATM   33  H1  UNL     1     -11.517  10.429  69.920  1.00  0.00     0.000 HD 
HETATM   34  H   UNL     1      -9.988   9.231  65.372  1.00  0.00     0.000 HD 
HETATM   35  H   UNL     1     -10.930   9.185  68.563  1.00  0.00     0.000 HD 
HETATM   36  N   UNL     1     -11.380  11.402  69.645  1.00  0.00    -0.277 NA 
HETATM   37  O   UNL     1     -11.007   9.360  67.632  1.00  0.00    -0.223 OA 
HETATM   38  C   UNL     1     -11.554  11.666  68.198  1.00  0.00    -0.319 C  
BRANCH  28  39
HETATM   39  C   UNL     1     -10.619  12.918  64.154  1.00  0.00    -0.416 C  
HETATM   40  H2  UNL     1     -11.573  14.718  64.476  1.00  0.00     0.000 HD 
HETATM   41  N   UNL     1     -11.679  13.897  63.880  1.00  0.00    -0.656 NA 
HETATM   42  H1  UNL     1     -11.742  14.171  62.899  1.00  0.00     0.000 HD 
ENDBRANCH  28  39
ENDBRANCH  25  26
ENDBRANCH  24  25
ENDBRANCH  10  11
ENDBRANCH   1  10
BRANCH   5  43
HETATM   43  C   UNL     1      -6.217  12.483  68.058  1.00  0.00    -0.088 C  
HETATM   44  O   UNL     1      -6.249  12.347  66.633  1.00  0.00    -0.485 OA 
HETATM   45  H   UNL     1      -6.692  11.540  66.401  1.00  0.00     0.000 HD 
ENDBRANCH   5  43
TORSDOF 6
ENDMDL
MODEL      122
REMARK 921   NORMALIZED FREE ENERGY PREDICTED BY IDOCK:   -5.24 KCAL/MOL
REMARK 922        TOTAL FREE ENERGY PREDICTED BY IDOCK:   -8.72 KCAL/MOL
REMARK 923 INTER-LIGAND FREE ENERGY PREDICTED BY IDOCK:   -8.53 KCAL/MOL
REMARK 924 INTRA-LIGAND FREE ENERGY PREDICTED BY IDOCK:   -0.19 KCAL/MOL
REMARK 927      BINDING AFFINITY PREDICTED BY RF-SCORE:    0.00 PKD
ROOT
HETATM    1  C   UNL     1     -11.328  14.266  66.449  1.00  0.00    -0.343 C  
HETATM    2  O   UNL     1     -12.146  15.860  63.648  1.00  0.00    -1.223 OA 
HETATM    3  O   UNL     1     -12.711  14.051  66.131  1.00  0.00    -0.450 OA 
HETATM    4  H   UNL     1      -9.787  16.363  64.394  1.00  0.00     0.000 HD 
HETATM    5  C   UNL     1     -12.823  13.758  64.726  1.00  0.00    -0.113 C  
HETATM    6  H   UNL     1     -11.450  16.354  63.230  1.00  0.00     0.000 HD 
HETATM    7  C   UNL     1     -11.708  14.549  64.056  1.00  0.00    -0.080 C  
HETATM    8  O   UNL     1     -10.210  16.086  65.198  1.00  0.00    -0.511 OA 
HETATM    9  C   UNL     1     -10.639  14.716  65.139  1.00  0.00    -0.421 C  
ENDROOT
BRANCH   1  10
HETATM   10  O   UNL     1     -10.727  13.052  66.905  1.00  0.00    -0.259 OA 
BRANCH  10  11
HETATM   11  C   UNL     1      -9.285  12.911  66.779  1.00  0.00    -0.230 C  
HETATM   12  O   UNL     1      -9.454  10.707  65.777  1.00  0.00    -0.182 OA 
HETATM   13  H2  UNL     1      -5.162  14.124  68.569  1.00  0.00     0.000 HD 
HETATM   14  H   UNL     1      -9.178   9.798  65.817  1.00  0.00     0.000 HD 
HETATM   15  C   UNL     1      -8.838  11.442  66.843  1.00  0.00    -0.173 C  
HETATM   16  H1  UNL     1      -6.388  15.294  68.542  1.00  0.00     0.000 HD 
HETATM   17  C   UNL     1      -6.586  12.060  67.748  1.00  0.00    -0.093 C  
HETATM   18  N   UNL     1      -6.984   9.832  66.765  1.00  0.00    -0.084 NA 
HETATM   19  N   UNL     1      -6.164  14.302  68.627  1.00  0.00    -0.083 NA 
HETATM   20  H1  UNL     1      -5.977   9.712  66.658  1.00  0.00     0.000 HD 
HETATM   21  H2  UNL     1      -7.511   9.272  66.094  1.00  0.00     0.000 HD 
HETATM   22  C   UNL     1      -6.922  13.551  67.621  1.00  0.00    -0.167 C  
HETATM   23  C   UNL     1      -7.324  11.262  66.683  1.00  0.00    -0.131 C  
HETATM   24  C   UNL     1      -8.461  13.827  67.734  1.00  0.00    -0.181 C  
BRANCH  24  25
HETATM   25  O   UNL     1      -8.826  15.229  67.616  1.00  0.00    -0.169 OA 
BRANCH  25  26
HETATM   26  C   UNL     1      -9.007  15.950  68.842  1.00  0.00    -0.228 C  
HETATM   27  O   UNL     1      -7.847  16.720  69.165  1.00  0.00    -0.231 OA 
HETATM   28  C   UNL     1      -7.591  17.765  68.214  1.00  0.00    -0.256 C  
HETATM   29  C   UNL     1      -8.727  18.795  68.256  1.00  0.00    -0.333 C  
HETATM   30  H2  UNL     1     -11.685  15.377  69.048  1.00  0.00     0.000 HD 
HETATM   31  C   UNL     1     -10.043  18.093  67.919  1.00  0.00    -0.357 C  
HETATM   32  O   UNL     1      -8.572  19.857  67.303  1.00  0.00    -0.301 OA 
HETATM   33  H1  UNL     1     -12.351  16.782  68.429  1.00  0.00     0.000 HD 
HETATM   34  H   UNL     1      -9.276  20.495  67.330  1.00  0.00     0.000 HD 
HETATM   35  H   UNL     1     -11.947  18.586  67.867  1.00  0.00     0.000 HD 
HETATM   36  N   UNL     1     -11.526  16.182  68.443  1.00  0.00    -0.351 NA 
HETATM   37  O   UNL     1     -11.129  19.023  68.076  1.00  0.00    -0.110 OA 
HETATM   38  C   UNL     1     -10.269  16.868  68.820  1.00  0.00    -0.311 C  
BRANCH  28  39
HETATM   39  C   UNL     1      -6.206  18.352  68.536  1.00  0.00    -0.203 C  
HETATM   40  H2  UNL     1      -6.728  19.207  70.339  1.00  0.00     0.000 HD 
HETATM   41  N   UNL     1      -6.244  19.475  69.483  1.00  0.00    -0.285 NA 
HETATM   42  H1  UNL     1      -5.325  19.864  69.696  1.00  0.00     0.000 HD 
ENDBRANCH  28  39
ENDBRANCH  25  26
ENDBRANCH  24  25
ENDBRANCH  10  11
ENDBRANCH   1  10
BRANCH   5  43
HETATM   43  C   UNL     1     -12.719  12.254  64.438  1.00  0.00    -0.288 C  
HETATM   44  O   UNL     1     -11.419  11.956  63.918  1.00  0.00    -0.381 OA 
HETATM   45  H   UNL     1     -11.355  11.025  63.739  1.00  0.00     0.000 HD 
ENDBRANCH   5  43
TORSDOF 6
ENDMDL
MODEL      123
REMARK 921   NORMALIZED FREE ENERGY PREDICTED BY IDOCK:   -5.23 KCAL/MOL
REMARK 922        TOTAL FREE ENERGY PREDICTED BY IDOCK:   -8.71 KCAL/MOL
REMARK 923 INTER-LIGAND FREE ENERGY PREDICTED BY IDOCK:   -7.80 KCAL/MOL
REMARK 924 INTRA-LIGAND FREE ENERGY PREDICTED BY IDOCK:   -0.90 KCAL/MOL
REMARK 927      BINDING AFFINITY PREDICTED BY RF-SCORE:    0.00 PKD
ROOT
HETATM    1  C   UNL     1      -9.476   9.047  68.177  1.00  0.00    -0.142 C  
HETATM    2  O   UNL     1      -9.943   7.349  70.997  1.00  0.00    -0.184 OA 
HETATM    3  O   UNL     1      -9.408   9.923  69.311  1.00  0.00    -0.181 OA 
HETATM    4  H   UNL     1     -10.263   5.918  68.942  1.00  0.00     0.000 HD 
HETATM    5  C   UNL     1      -8.605   9.300  70.330  1.00  0.00    -0.210 C  
HETATM    6  H   UNL     1     -10.093   6.416  70.903  1.00  0.00     0.000 HD 
HETATM    7  C   UNL     1      -8.847   7.805  70.180  1.00  0.00    -0.145 C  
HETATM    8  O   UNL     1     -10.411   6.797  68.614  1.00  0.00    -0.181 OA 
HETATM    9  C   UNL     1      -9.234   7.615  68.711  1.00  0.00    -0.142 C  
ENDROOT
BRANCH   1  10
HETATM   10  O   UNL     1      -8.457   9.377  67.230  1.00  0.00    -0.123 OA 
BRANCH  10  11
HETATM   11  C   UNL     1      -8.755   9.209  65.816  1.00  0.00    -0.165 C  
HETATM   12  O   UNL     1      -8.126   6.865  65.825  1.00  0.00    -0.109 OA 
HETATM   13  H2  UNL     1      -8.965  11.341  61.682  1.00  0.00     0.000 HD 
HETATM   14  H   UNL     1      -7.592   6.189  65.423  1.00  0.00     0.000 HD 
HETATM   15  C   UNL     1      -7.891   8.117  65.167  1.00  0.00    -0.118 C  
HETATM   16  H1  UNL     1      -9.461  12.213  63.048  1.00  0.00     0.000 HD 
HETATM   17  C   UNL     1      -8.033   9.201  62.913  1.00  0.00    -0.142 C  
HETATM   18  N   UNL     1      -7.329   6.846  63.140  1.00  0.00    -0.069 NA 
HETATM   19  N   UNL     1      -8.830  11.500  62.680  1.00  0.00    -0.255 NA 
HETATM   20  H1  UNL     1      -7.539   6.701  62.153  1.00  0.00     0.000 HD 
HETATM   21  H2  UNL     1      -7.390   5.981  63.677  1.00  0.00     0.000 HD 
HETATM   22  C   UNL     1      -8.982  10.272  63.467  1.00  0.00    -0.242 C  
HETATM   23  C   UNL     1      -8.205   7.898  63.682  1.00  0.00    -0.007 C  
HETATM   24  C   UNL     1      -8.758  10.534  64.995  1.00  0.00    -0.182 C  
BRANCH  24  25
HETATM   25  O   UNL     1      -9.638  11.542  65.563  1.00  0.00    -0.222 OA 
BRANCH  25  26
HETATM   26  C   UNL     1     -11.034  11.221  65.610  1.00  0.00    -0.134 C  
HETATM   27  O   UNL     1     -11.496  11.123  66.959  1.00  0.00    -0.442 OA 
HETATM   28  C   UNL     1     -11.430  12.372  67.663  1.00  0.00    -0.337 C  
HETATM   29  C   UNL     1     -12.399  13.378  67.026  1.00  0.00    -0.177 C  
HETATM   30  H2  UNL     1     -11.439  11.575  62.916  1.00  0.00     0.000 HD 
HETATM   31  C   UNL     1     -12.007  13.581  65.562  1.00  0.00    -0.390 C  
HETATM   32  O   UNL     1     -12.367  14.673  67.644  1.00  0.00    -0.597 OA 
HETATM   33  H1  UNL     1     -12.065  13.127  62.899  1.00  0.00     0.000 HD 
HETATM   34  H   UNL     1     -12.967  15.295  67.250  1.00  0.00     0.000 HD 
HETATM   35  H   UNL     1     -12.739  14.553  64.015  1.00  0.00     0.000 HD 
HETATM   36  N   UNL     1     -11.490  12.462  63.416  1.00  0.00    -0.462 NA 
HETATM   37  O   UNL     1     -12.982  14.427  64.925  1.00  0.00    -0.641 OA 
HETATM   38  C   UNL     1     -11.913  12.239  64.818  1.00  0.00    -0.362 C  
BRANCH  28  39
HETATM   39  C   UNL     1     -11.719  12.082  69.146  1.00  0.00    -0.330 C  
HETATM   40  H2  UNL     1     -12.131  14.029  69.687  1.00  0.00     0.000 HD 
HETATM   41  N   UNL     1     -11.560  13.252  70.020  1.00  0.00    -0.513 NA 
HETATM   42  H1  UNL     1     -11.752  13.059  71.003  1.00  0.00     0.000 HD 
ENDBRANCH  28  39
ENDBRANCH  25  26
ENDBRANCH  24  25
ENDBRANCH  10  11
ENDBRANCH   1  10
BRANCH   5  43
HETATM   43  C   UNL     1      -7.120   9.662  70.200  1.00  0.00    -0.116 C  
HETATM   44  O   UNL     1      -6.952  11.070  70.405  1.00  0.00    -0.484 OA 
HETATM   45  H   UNL     1      -6.033  11.294  70.325  1.00  0.00     0.000 HD 
ENDBRANCH   5  43
TORSDOF 6
ENDMDL
MODEL      124
REMARK 921   NORMALIZED FREE ENERGY PREDICTED BY IDOCK:   -5.21 KCAL/MOL
REMARK 922        TOTAL FREE ENERGY PREDICTED BY IDOCK:   -8.68 KCAL/MOL
REMARK 923 INTER-LIGAND FREE ENERGY PREDICTED BY IDOCK:   -7.24 KCAL/MOL
REMARK 924 INTRA-LIGAND FREE ENERGY PREDICTED BY IDOCK:   -1.45 KCAL/MOL
REMARK 927      BINDING AFFINITY PREDICTED BY RF-SCORE:    0.00 PKD
ROOT
HETATM    1  C   UNL     1     -10.298  10.542  67.334  1.00  0.00    -0.224 C  
HETATM    2  O   UNL     1      -9.874  12.530  64.703  1.00  0.00    -0.473 OA 
HETATM    3  O   UNL     1      -9.034  10.285  66.706  1.00  0.00    -0.132 OA 
HETATM    4  H   UNL     1     -12.166  12.767  65.736  1.00  0.00     0.000 HD 
HETATM    5  C   UNL     1      -8.402  11.543  66.406  1.00  0.00    -0.118 C  
HETATM    6  H   UNL     1     -10.584  13.132  64.516  1.00  0.00     0.000 HD 
HETATM    7  C   UNL     1      -9.540  12.508  66.105  1.00  0.00    -0.228 C  
HETATM    8  O   UNL     1     -11.893  11.902  66.017  1.00  0.00    -0.497 OA 
HETATM    9  C   UNL     1     -10.741  11.951  66.874  1.00  0.00    -0.246 C  
ENDROOT
BRANCH   1  10
HETATM   10  O   UNL     1     -10.159  10.531  68.757  1.00  0.00    -0.173 OA 
BRANCH  10  11
HETATM   11  C   UNL     1     -11.287  10.069  69.551  1.00  0.00    -0.169 C  
HETATM   12  O   UNL     1     -12.140  12.316  69.889  1.00  0.00    -0.299 OA 
HETATM   13  H2  UNL     1     -12.812   6.757  72.446  1.00  0.00     0.000 HD 
HETATM   14  H   UNL     1     -12.423  12.967  70.521  1.00  0.00     0.000 HD 
HETATM   15  C   UNL     1     -11.744  11.121  70.574  1.00  0.00    -0.293 C  
HETATM   16  H1  UNL     1     -11.815   6.285  71.159  1.00  0.00     0.000 HD 
HETATM   17  C   UNL     1     -12.634   9.371  72.129  1.00  0.00    -0.423 C  
HETATM   18  N   UNL     1     -13.315  11.731  72.362  1.00  0.00    -0.507 NA 
HETATM   19  N   UNL     1     -12.040   7.017  71.833  1.00  0.00    -0.314 NA 
HETATM   20  H1  UNL     1     -14.118  11.432  72.916  1.00  0.00     0.000 HD 
HETATM   21  H2  UNL     1     -13.478  12.626  71.901  1.00  0.00     0.000 HD 
HETATM   22  C   UNL     1     -12.296   8.270  71.115  1.00  0.00    -0.206 C  
HETATM   23  C   UNL     1     -12.951  10.672  71.406  1.00  0.00    -0.443 C  
HETATM   24  C   UNL     1     -11.093   8.661  70.190  1.00  0.00    -0.192 C  
BRANCH  24  25
HETATM   25  O   UNL     1     -10.739   7.646  69.212  1.00  0.00    -0.221 OA 
BRANCH  25  26
HETATM   26  C   UNL     1      -9.345   7.342  69.078  1.00  0.00    -0.148 C  
HETATM   27  O   UNL     1      -8.844   6.690  70.248  1.00  0.00    -0.149 OA 
HETATM   28  C   UNL     1      -9.435   5.399  70.461  1.00  0.00    -0.165 C  
HETATM   29  C   UNL     1      -9.034   4.450  69.324  1.00  0.00    -0.099 C  
HETATM   30  H2  UNL     1      -9.225   7.993  66.412  1.00  0.00     0.000 HD 
HETATM   31  C   UNL     1      -9.521   5.036  67.998  1.00  0.00    -0.131 C  
HETATM   32  O   UNL     1      -9.617   3.144  69.436  1.00  0.00    -0.150 OA 
HETATM   33  H1  UNL     1      -9.353   6.476  65.717  1.00  0.00     0.000 HD 
HETATM   34  H   UNL     1      -9.369   2.556  68.732  1.00  0.00     0.000 HD 
HETATM   35  H   UNL     1      -9.346   4.580  66.092  1.00  0.00     0.000 HD 
HETATM   36  N   UNL     1      -9.557   7.038  66.544  1.00  0.00    -0.170 NA 
HETATM   37  O   UNL     1      -9.044   4.216  66.916  1.00  0.00    -0.123 OA 
HETATM   38  C   UNL     1      -9.034   6.482  67.813  1.00  0.00    -0.114 C  
BRANCH  28  39
HETATM   39  C   UNL     1      -9.000   4.918  71.856  1.00  0.00    -0.135 C  
HETATM   40  H2  UNL     1      -9.960   3.094  71.782  1.00  0.00     0.000 HD 
HETATM   41  N   UNL     1      -9.873   3.882  72.424  1.00  0.00    -0.149 NA 
HETATM   42  H1  UNL     1      -9.585   3.562  73.349  1.00  0.00     0.000 HD 
ENDBRANCH  28  39
ENDBRANCH  25  26
ENDBRANCH  24  25
ENDBRANCH  10  11
ENDBRANCH   1  10
BRANCH   5  43
HETATM   43  C   UNL     1      -7.515  12.035  67.558  1.00  0.00    -0.140 C  
HETATM   44  O   UNL     1      -6.747  13.162  67.121  1.00  0.00    -0.403 OA 
HETATM   45  H   UNL     1      -6.198  13.466  67.833  1.00  0.00     0.000 HD 
ENDBRANCH   5  43
TORSDOF 6
ENDMDL
MODEL      125
REMARK 921   NORMALIZED FREE ENERGY PREDICTED BY IDOCK:   -5.20 KCAL/MOL
REMARK 922        TOTAL FREE ENERGY PREDICTED BY IDOCK:   -8.67 KCAL/MOL
REMARK 923 INTER-LIGAND FREE ENERGY PREDICTED BY IDOCK:   -7.70 KCAL/MOL
REMARK 924 INTRA-LIGAND FREE ENERGY PREDICTED BY IDOCK:   -0.98 KCAL/MOL
REMARK 927      BINDING AFFINITY PREDICTED BY RF-SCORE:    0.00 PKD
ROOT
HETATM    1  C   UNL     1     -11.172  12.424  68.942  1.00  0.00    -0.280 C  
HETATM    2  O   UNL     1     -12.199  13.807  71.786  1.00  0.00    -0.193 OA 
HETATM    3  O   UNL     1     -11.044  11.496  70.030  1.00  0.00    -0.118 OA 
HETATM    4  H   UNL     1     -12.188  15.443  69.863  1.00  0.00     0.000 HD 
HETATM    5  C   UNL     1     -12.244  11.545  70.824  1.00  0.00    -0.363 C  
HETATM    6  H   UNL     1     -12.506  14.704  71.727  1.00  0.00     0.000 HD 
HETATM    7  C   UNL     1     -12.734  12.983  70.730  1.00  0.00    -0.165 C  
HETATM    8  O   UNL     1     -11.566  14.782  69.584  1.00  0.00    -0.270 OA 
HETATM    9  C   UNL     1     -12.186  13.499  69.397  1.00  0.00    -0.228 C  
ENDROOT
BRANCH   1  10
HETATM   10  O   UNL     1     -11.675  11.761  67.779  1.00  0.00    -0.464 OA 
BRANCH  10  11
HETATM   11  C   UNL     1     -11.106  12.117  66.489  1.00  0.00    -0.307 C  
HETATM   12  O   UNL     1     -12.406  14.161  66.330  1.00  0.00    -0.460 OA 
HETATM   13  H2  UNL     1      -9.249  10.466  62.552  1.00  0.00     0.000 HD 
HETATM   14  H   UNL     1     -13.006  14.676  65.803  1.00  0.00     0.000 HD 
HETATM   15  C   UNL     1     -12.077  12.950  65.637  1.00  0.00    -0.458 C  
HETATM   16  H1  UNL     1      -8.859   9.679  64.001  1.00  0.00     0.000 HD 
HETATM   17  C   UNL     1     -11.063  12.132  63.498  1.00  0.00    -0.525 C  
HETATM   18  N   UNL     1     -12.488  14.147  63.531  1.00  0.00    -1.106 NA 
HETATM   19  N   UNL     1      -9.568  10.197  63.482  1.00  0.00    -0.268 NA 
HETATM   20  H1  UNL     1     -12.098  14.422  62.630  1.00  0.00     0.000 HD 
HETATM   21  H2  UNL     1     -12.829  14.947  64.063  1.00  0.00     0.000 HD 
HETATM   22  C   UNL     1      -9.997  11.352  64.278  1.00  0.00    -0.283 C  
HETATM   23  C   UNL     1     -11.492  13.364  64.282  1.00  0.00    -0.393 C  
HETATM   24  C   UNL     1     -10.497  10.919  65.699  1.00  0.00    -0.208 C  
BRANCH  24  25
HETATM   25  O   UNL     1      -9.517  10.178  66.476  1.00  0.00    -0.159 OA 
BRANCH  25  26
HETATM   26  C   UNL     1      -9.785   8.786  66.686  1.00  0.00    -0.242 C  
HETATM   27  O   UNL     1      -9.214   7.987  65.647  1.00  0.00    -0.073 OA 
HETATM   28  C   UNL     1      -7.780   8.038  65.630  1.00  0.00    -0.094 C  
HETATM   29  C   UNL     1      -7.223   7.407  66.913  1.00  0.00    -0.088 C  
HETATM   30  H2  UNL     1     -10.799   9.131  69.216  1.00  0.00     0.000 HD 
HETATM   31  C   UNL     1      -7.759   8.181  68.118  1.00  0.00    -0.110 C  
HETATM   32  O   UNL     1      -5.790   7.453  66.999  1.00  0.00    -0.032 OA 
HETATM   33  H1  UNL     1      -9.460   8.743  70.141  1.00  0.00     0.000 HD 
HETATM   34  H   UNL     1      -5.446   7.062  67.794  1.00  0.00     0.000 HD 
HETATM   35  H   UNL     1      -7.676   8.004  70.076  1.00  0.00     0.000 HD 
HETATM   36  N   UNL     1      -9.782   9.073  69.231  1.00  0.00    -0.165 NA 
HETATM   37  O   UNL     1      -7.342   7.523  69.327  1.00  0.00    -0.084 OA 
HETATM   38  C   UNL     1      -9.293   8.282  68.079  1.00  0.00    -0.132 C  
BRANCH  28  39
HETATM   39  C   UNL     1      -7.308   7.345  64.340  1.00  0.00    -0.085 C  
HETATM   40  H2  UNL     1      -5.288   7.609  64.659  1.00  0.00     0.000 HD 
HETATM   41  N   UNL     1      -5.964   7.750  63.908  1.00  0.00    -0.056 NA 
HETATM   42  H1  UNL     1      -5.651   7.290  63.053  1.00  0.00     0.000 HD 
ENDBRANCH  28  39
ENDBRANCH  25  26
ENDBRANCH  24  25
ENDBRANCH  10  11
ENDBRANCH   1  10
BRANCH   5  43
HETATM   43  C   UNL     1     -13.299  10.542  70.342  1.00  0.00     0.228 C  
HETATM   44  O   UNL     1     -13.094   9.283  70.993  1.00  0.00    -0.516 OA 
HETATM   45  H   UNL     1     -13.747   8.661  70.695  1.00  0.00     0.000 HD 
ENDBRANCH   5  43
TORSDOF 6
ENDMDL
MODEL      126
REMARK 921   NORMALIZED FREE ENERGY PREDICTED BY IDOCK:   -5.20 KCAL/MOL
REMARK 922        TOTAL FREE ENERGY PREDICTED BY IDOCK:   -8.67 KCAL/MOL
REMARK 923 INTER-LIGAND FREE ENERGY PREDICTED BY IDOCK:   -7.46 KCAL/MOL
REMARK 924 INTRA-LIGAND FREE ENERGY PREDICTED BY IDOCK:   -1.21 KCAL/MOL
REMARK 927      BINDING AFFINITY PREDICTED BY RF-SCORE:    0.00 PKD
ROOT
HETATM    1  C   UNL     1      -9.947  10.663  66.960  1.00  0.00    -0.202 C  
HETATM    2  O   UNL     1     -11.623  13.530  67.110  1.00  0.00    -0.320 OA 
HETATM    3  O   UNL     1      -9.408  11.612  66.029  1.00  0.00    -0.223 OA 
HETATM    4  H   UNL     1     -12.646  11.734  68.561  1.00  0.00     0.000 HD 
HETATM    5  C   UNL     1      -9.289  12.888  66.686  1.00  0.00    -0.240 C  
HETATM    6  H   UNL     1     -12.340  13.563  67.732  1.00  0.00     0.000 HD 
HETATM    7  C   UNL     1     -10.439  12.940  67.682  1.00  0.00    -0.224 C  
HETATM    8  O   UNL     1     -12.157  11.236  67.917  1.00  0.00    -0.634 OA 
HETATM    9  C   UNL     1     -10.743  11.476  68.008  1.00  0.00    -0.202 C  
ENDROOT
BRANCH   1  10
HETATM   10  O   UNL     1      -8.894   9.952  67.614  1.00  0.00    -0.125 OA 
BRANCH  10  11
HETATM   11  C   UNL     1      -8.595   8.602  67.162  1.00  0.00    -0.121 C  
HETATM   12  O   UNL     1      -7.542   9.377  65.117  1.00  0.00    -0.103 OA 
HETATM   13  H2  UNL     1      -9.931   4.145  67.310  1.00  0.00     0.000 HD 
HETATM   14  H   UNL     1      -7.516   9.314  64.170  1.00  0.00     0.000 HD 
HETATM   15  C   UNL     1      -8.553   8.500  65.630  1.00  0.00    -0.177 C  
HETATM   16  H1  UNL     1     -10.090   5.065  68.724  1.00  0.00     0.000 HD 
HETATM   17  C   UNL     1      -9.210   6.083  65.671  1.00  0.00     0.023 C  
HETATM   18  N   UNL     1      -8.201   7.083  63.653  1.00  0.00    -0.335 NA 
HETATM   19  N   UNL     1     -10.112   5.068  67.704  1.00  0.00    -0.160 NA 
HETATM   20  H1  UNL     1      -7.973   6.148  63.318  1.00  0.00     0.000 HD 
HETATM   21  H2  UNL     1      -7.578   7.792  63.267  1.00  0.00     0.000 HD 
HETATM   22  C   UNL     1      -9.176   6.080  67.205  1.00  0.00    -0.117 C  
HETATM   23  C   UNL     1      -8.210   7.093  65.125  1.00  0.00    -0.113 C  
HETATM   24  C   UNL     1      -9.478   7.493  67.811  1.00  0.00    -0.141 C  
BRANCH  24  25
HETATM   25  O   UNL     1      -9.454   7.537  69.263  1.00  0.00    -0.155 OA 
BRANCH  25  26
HETATM   26  C   UNL     1     -10.023   8.699  69.879  1.00  0.00    -0.186 C  
HETATM   27  O   UNL     1     -11.402   8.494  70.193  1.00  0.00    -0.198 OA 
HETATM   28  C   UNL     1     -11.603   7.476  71.184  1.00  0.00    -0.282 C  
HETATM   29  C   UNL     1     -10.996   7.925  72.520  1.00  0.00    -0.350 C  
HETATM   30  H2  UNL     1      -7.618   9.988  70.197  1.00  0.00     0.000 HD 
HETATM   31  C   UNL     1      -9.501   8.176  72.323  1.00  0.00    -0.245 C  
HETATM   32  O   UNL     1     -11.115   6.943  73.561  1.00  0.00    -0.522 OA 
HETATM   33  H1  UNL     1      -7.283   9.627  71.796  1.00  0.00     0.000 HD 
HETATM   34  H   UNL     1     -10.739   7.222  74.388  1.00  0.00     0.000 HD 
HETATM   35  H   UNL     1      -8.018   8.870  73.415  1.00  0.00     0.000 HD 
HETATM   36  N   UNL     1      -7.790   9.335  70.961  1.00  0.00    -0.301 NA 
HETATM   37  O   UNL     1      -8.948   8.714  73.538  1.00  0.00    -0.216 OA 
HETATM   38  C   UNL     1      -9.246   9.145  71.157  1.00  0.00    -0.231 C  
BRANCH  28  39
HETATM   39  C   UNL     1     -13.113   7.188  71.251  1.00  0.00    -0.300 C  
HETATM   40  H2  UNL     1     -13.735   9.098  70.781  1.00  0.00     0.000 HD 
HETATM   41  N   UNL     1     -13.934   8.384  71.482  1.00  0.00    -0.525 NA 
HETATM   42  H1  UNL     1     -14.935   8.193  71.526  1.00  0.00     0.000 HD 
ENDBRANCH  28  39
ENDBRANCH  25  26
ENDBRANCH  24  25
ENDBRANCH  10  11
ENDBRANCH   1  10
BRANCH   5  43
HETATM   43  C   UNL     1      -7.925  13.065  67.366  1.00  0.00    -0.172 C  
HETATM   44  O   UNL     1      -6.978  12.166  66.779  1.00  0.00    -0.360 OA 
HETATM   45  H   UNL     1      -6.134  12.276  67.200  1.00  0.00     0.000 HD 
ENDBRANCH   5  43
TORSDOF 6
ENDMDL
MODEL      127
REMARK 921   NORMALIZED FREE ENERGY PREDICTED BY IDOCK:   -5.20 KCAL/MOL
REMARK 922        TOTAL FREE ENERGY PREDICTED BY IDOCK:   -8.66 KCAL/MOL
REMARK 923 INTER-LIGAND FREE ENERGY PREDICTED BY IDOCK:   -8.09 KCAL/MOL
REMARK 924 INTRA-LIGAND FREE ENERGY PREDICTED BY IDOCK:   -0.57 KCAL/MOL
REMARK 927      BINDING AFFINITY PREDICTED BY RF-SCORE:    0.00 PKD
ROOT
HETATM    1  C   UNL     1     -11.173   8.915  70.365  1.00  0.00    -0.230 C  
HETATM    2  O   UNL     1     -10.726   7.143  73.141  1.00  0.00    -0.286 OA 
HETATM    3  O   UNL     1     -11.968   7.722  70.335  1.00  0.00    -0.068 OA 
HETATM    4  H   UNL     1      -9.197   9.149  73.017  1.00  0.00     0.000 HD 
HETATM    5  C   UNL     1     -12.606   7.559  71.615  1.00  0.00    -0.348 C  
HETATM    6  H   UNL     1     -10.118   7.505  73.775  1.00  0.00     0.000 HD 
HETATM    7  C   UNL     1     -11.633   8.140  72.631  1.00  0.00    -0.375 C  
HETATM    8  O   UNL     1      -9.416   8.990  72.107  1.00  0.00    -0.340 OA 
HETATM    9  C   UNL     1     -10.817   9.172  71.848  1.00  0.00    -0.283 C  
ENDROOT
BRANCH   1  10
HETATM   10  O   UNL     1     -11.919  10.025  69.858  1.00  0.00    -0.148 OA 
BRANCH  10  11
HETATM   11  C   UNL     1     -11.290  10.874  68.858  1.00  0.00    -0.288 C  
HETATM   12  O   UNL     1     -11.848  12.915  70.048  1.00  0.00    -0.406 OA 
HETATM   13  H2  UNL     1     -10.159  11.275  64.360  1.00  0.00     0.000 HD 
HETATM   14  H   UNL     1     -12.256  13.771  69.998  1.00  0.00     0.000 HD 
HETATM   15  C   UNL     1     -11.950  12.259  68.777  1.00  0.00    -0.231 C  
HETATM   16  H1  UNL     1     -10.021   9.746  65.077  1.00  0.00     0.000 HD 
HETATM   17  C   UNL     1     -11.305  12.539  66.373  1.00  0.00    -0.379 C  
HETATM   18  N   UNL     1     -11.986  14.483  67.732  1.00  0.00    -0.545 NA 
HETATM   19  N   UNL     1     -10.530  10.629  65.057  1.00  0.00    -0.266 NA 
HETATM   20  H1  UNL     1     -11.546  15.099  67.049  1.00  0.00     0.000 HD 
HETATM   21  H2  UNL     1     -12.034  14.907  68.658  1.00  0.00     0.000 HD 
HETATM   22  C   UNL     1     -10.540  11.210  66.404  1.00  0.00    -0.261 C  
HETATM   23  C   UNL     1     -11.289  13.186  67.751  1.00  0.00    -0.290 C  
HETATM   24  C   UNL     1     -11.125  10.209  67.458  1.00  0.00    -0.181 C  
BRANCH  24  25
HETATM   25  O   UNL     1     -10.428   8.935  67.523  1.00  0.00    -0.252 OA 
BRANCH  25  26
HETATM   26  C   UNL     1      -9.095   8.906  66.998  1.00  0.00    -0.135 C  
HETATM   27  O   UNL     1      -8.240   9.804  67.709  1.00  0.00    -0.113 OA 
HETATM   28  C   UNL     1      -8.053   9.426  69.081  1.00  0.00    -0.107 C  
HETATM   29  C   UNL     1      -7.304   8.088  69.153  1.00  0.00    -0.086 C  
HETATM   30  H2  UNL     1      -9.536   6.731  65.379  1.00  0.00     0.000 HD 
HETATM   31  C   UNL     1      -8.125   7.024  68.424  1.00  0.00    -0.124 C  
HETATM   32  O   UNL     1      -7.110   7.612  70.493  1.00  0.00    -0.050 OA 
HETATM   33  H1  UNL     1      -8.907   5.506  66.329  1.00  0.00     0.000 HD 
HETATM   34  H   UNL     1      -6.646   6.784  70.537  1.00  0.00     0.000 HD 
HETATM   35  H   UNL     1      -7.884   5.135  67.926  1.00  0.00     0.000 HD 
HETATM   36  N   UNL     1      -9.310   6.443  66.330  1.00  0.00    -0.160 NA 
HETATM   37  O   UNL     1      -7.374   5.797  68.379  1.00  0.00    -0.077 OA 
HETATM   38  C   UNL     1      -8.479   7.472  66.997  1.00  0.00    -0.122 C  
BRANCH  28  39
HETATM   39  C   UNL     1      -7.326  10.585  69.784  1.00  0.00    -0.134 C  
HETATM   40  H2  UNL     1      -8.719  12.038  69.337  1.00  0.00     0.000 HD 
HETATM   41  N   UNL     1      -7.709  11.913  69.286  1.00  0.00    -0.337 NA 
HETATM   42  H1  UNL     1      -7.227  12.682  69.753  1.00  0.00     0.000 HD 
ENDBRANCH  28  39
ENDBRANCH  25  26
ENDBRANCH  24  25
ENDBRANCH  10  11
ENDBRANCH   1  10
BRANCH   5  43
HETATM   43  C   UNL     1     -13.978   8.245  71.671  1.00  0.00    -0.396 C  
HETATM   44  O   UNL     1     -14.189   8.785  72.980  1.00  0.00    -1.075 OA 
HETATM   45  H   UNL     1     -15.038   9.210  73.015  1.00  0.00     0.000 HD 
ENDBRANCH   5  43
TORSDOF 6
ENDMDL
MODEL      128
REMARK 921   NORMALIZED FREE ENERGY PREDICTED BY IDOCK:   -5.19 KCAL/MOL
REMARK 922        TOTAL FREE ENERGY PREDICTED BY IDOCK:   -8.65 KCAL/MOL
REMARK 923 INTER-LIGAND FREE ENERGY PREDICTED BY IDOCK:   -6.58 KCAL/MOL
REMARK 924 INTRA-LIGAND FREE ENERGY PREDICTED BY IDOCK:   -2.08 KCAL/MOL
REMARK 927      BINDING AFFINITY PREDICTED BY RF-SCORE:    0.00 PKD
ROOT
HETATM    1  C   UNL     1     -10.207   8.161  70.535  1.00  0.00    -0.198 C  
HETATM    2  O   UNL     1     -12.259   6.555  72.600  1.00  0.00    -0.501 OA 
HETATM    3  O   UNL     1     -10.329   8.869  71.777  1.00  0.00    -0.310 OA 
HETATM    4  H   UNL     1     -12.158   5.489  70.314  1.00  0.00     0.000 HD 
HETATM    5  C   UNL     1     -10.235   7.925  72.859  1.00  0.00    -0.330 C  
HETATM    6  H   UNL     1     -12.639   5.750  72.269  1.00  0.00     0.000 HD 
HETATM    7  C   UNL     1     -10.846   6.636  72.329  1.00  0.00    -0.229 C  
HETATM    8  O   UNL     1     -11.884   6.383  70.145  1.00  0.00    -0.409 OA 
HETATM    9  C   UNL     1     -10.653   6.706  70.811  1.00  0.00    -0.226 C  
ENDROOT
BRANCH   1  10
HETATM   10  O   UNL     1      -8.847   8.162  70.092  1.00  0.00    -0.142 OA 
BRANCH  10  11
HETATM   11  C   UNL     1      -8.481   9.060  69.008  1.00  0.00    -0.132 C  
HETATM   12  O   UNL     1      -7.265  10.557  70.482  1.00  0.00    -0.462 OA 
HETATM   13  H2  UNL     1      -9.733  10.725  64.845  1.00  0.00     0.000 HD 
HETATM   14  H   UNL     1      -7.153  11.453  70.780  1.00  0.00     0.000 HD 
HETATM   15  C   UNL     1      -8.300  10.508  69.491  1.00  0.00    -0.061 C  
HETATM   16  H1  UNL     1     -10.036   9.089  65.166  1.00  0.00     0.000 HD 
HETATM   17  C   UNL     1      -8.907  11.440  67.247  1.00  0.00    -0.153 C  
HETATM   18  N   UNL     1      -7.743  12.832  68.920  1.00  0.00    -0.321 NA 
HETATM   19  N   UNL     1      -9.967  10.031  65.553  1.00  0.00    -0.303 NA 
HETATM   20  H1  UNL     1      -7.466  13.472  68.176  1.00  0.00     0.000 HD 
HETATM   21  H2  UNL     1      -7.102  12.864  69.712  1.00  0.00     0.000 HD 
HETATM   22  C   UNL     1      -9.011  10.024  66.665  1.00  0.00    -0.139 C  
HETATM   23  C   UNL     1      -7.884  11.472  68.374  1.00  0.00    -0.136 C  
HETATM   24  C   UNL     1      -9.395   8.961  67.750  1.00  0.00    -0.141 C  
BRANCH  24  25
HETATM   25  O   UNL     1      -9.503   7.603  67.243  1.00  0.00    -0.138 OA 
BRANCH  25  26
HETATM   26  C   UNL     1      -8.283   6.857  67.142  1.00  0.00    -0.118 C  
HETATM   27  O   UNL     1      -8.264   5.771  68.071  1.00  0.00    -0.104 OA 
HETATM   28  C   UNL     1      -9.267   4.783  67.793  1.00  0.00    -0.125 C  
HETATM   29  C   UNL     1      -8.972   4.107  66.447  1.00  0.00    -0.124 C  
HETATM   30  H2  UNL     1      -7.427   8.128  64.863  1.00  0.00     0.000 HD 
HETATM   31  C   UNL     1      -8.968   5.173  65.351  1.00  0.00    -0.156 C  
HETATM   32  O   UNL     1      -9.953   3.131  66.069  1.00  0.00    -0.384 OA 
HETATM   33  H1  UNL     1      -7.892   7.021  63.698  1.00  0.00     0.000 HD 
HETATM   34  H   UNL     1      -9.770   2.712  65.236  1.00  0.00     0.000 HD 
HETATM   35  H   UNL     1      -8.569   5.232  63.425  1.00  0.00     0.000 HD 
HETATM   36  N   UNL     1      -8.067   7.366  64.642  1.00  0.00    -0.122 NA 
HETATM   37  O   UNL     1      -8.571   4.569  64.106  1.00  0.00    -0.120 OA 
HETATM   38  C   UNL     1      -8.017   6.329  65.698  1.00  0.00    -0.115 C  
BRANCH  28  39
HETATM   39  C   UNL     1      -9.300   3.810  68.984  1.00  0.00    -0.171 C  
HETATM   40  H2  UNL     1      -7.764   2.597  68.336  1.00  0.00     0.000 HD 
HETATM   41  N   UNL     1      -8.714   2.495  68.691  1.00  0.00    -0.080 NA 
HETATM   42  H1  UNL     1      -8.736   1.850  69.482  1.00  0.00     0.000 HD 
ENDBRANCH  28  39
ENDBRANCH  25  26
ENDBRANCH  24  25
ENDBRANCH  10  11
ENDBRANCH   1  10
BRANCH   5  43
HETATM   43  C   UNL     1      -8.789   7.729  73.333  1.00  0.00    -0.242 C  
HETATM   44  O   UNL     1      -7.967   8.777  72.807  1.00  0.00    -0.385 OA 
HETATM   45  H   UNL     1      -7.072   8.656  73.100  1.00  0.00     0.000 HD 
ENDBRANCH   5  43
TORSDOF 6
ENDMDL
MODEL      129
REMARK 921   NORMALIZED FREE ENERGY PREDICTED BY IDOCK:   -5.18 KCAL/MOL
REMARK 922        TOTAL FREE ENERGY PREDICTED BY IDOCK:   -8.64 KCAL/MOL
REMARK 923 INTER-LIGAND FREE ENERGY PREDICTED BY IDOCK:   -7.53 KCAL/MOL
REMARK 924 INTRA-LIGAND FREE ENERGY PREDICTED BY IDOCK:   -1.11 KCAL/MOL
REMARK 927      BINDING AFFINITY PREDICTED BY RF-SCORE:    0.00 PKD
ROOT
HETATM    1  C   UNL     1      -9.677  12.076  65.808  1.00  0.00    -0.235 C  
HETATM    2  O   UNL     1     -11.159  11.137  62.984  1.00  0.00    -0.822 OA 
HETATM    3  O   UNL     1      -9.937  13.213  64.972  1.00  0.00    -0.239 OA 
HETATM    4  H   UNL     1     -10.471   9.174  64.416  1.00  0.00     0.000 HD 
HETATM    5  C   UNL     1     -11.274  13.107  64.449  1.00  0.00    -0.371 C  
HETATM    6  H   UNL     1     -11.320  10.206  62.886  1.00  0.00     0.000 HD 
HETATM    7  C   UNL     1     -11.531  11.615  64.292  1.00  0.00    -0.250 C  
HETATM    8  O   UNL     1      -9.894   9.867  64.713  1.00  0.00    -0.307 OA 
HETATM    9  C   UNL     1     -10.617  10.948  65.324  1.00  0.00    -0.189 C  
ENDROOT
BRANCH   1  10
HETATM   10  O   UNL     1      -9.971  12.383  67.173  1.00  0.00    -0.205 OA 
BRANCH  10  11
HETATM   11  C   UNL     1      -8.873  12.785  68.037  1.00  0.00    -0.195 C  
HETATM   12  O   UNL     1      -8.412  14.787  66.743  1.00  0.00    -0.329 OA 
HETATM   13  H2  UNL     1      -5.520  11.281  70.896  1.00  0.00     0.000 HD 
HETATM   14  H   UNL     1      -7.755  15.292  66.277  1.00  0.00     0.000 HD 
HETATM   15  C   UNL     1      -7.811  13.602  67.283  1.00  0.00    -0.093 C  
HETATM   16  H1  UNL     1      -7.011  10.477  70.934  1.00  0.00     0.000 HD 
HETATM   17  C   UNL     1      -5.992  12.864  68.838  1.00  0.00    -0.079 C  
HETATM   18  N   UNL     1      -5.684  14.829  67.376  1.00  0.00    -0.313 NA 
HETATM   19  N   UNL     1      -6.335  10.982  70.361  1.00  0.00    -0.281 NA 
HETATM   20  H1  UNL     1      -4.915  15.136  67.971  1.00  0.00     0.000 HD 
HETATM   21  H2  UNL     1      -6.121  15.606  66.880  1.00  0.00     0.000 HD 
HETATM   22  C   UNL     1      -7.009  12.105  69.700  1.00  0.00     0.198 C  
HETATM   23  C   UNL     1      -6.655  14.064  68.177  1.00  0.00    -0.124 C  
HETATM   24  C   UNL     1      -8.251  11.626  68.872  1.00  0.00     0.020 C  
BRANCH  24  25
HETATM   25  O   UNL     1      -9.242  10.902  69.650  1.00  0.00     0.108 OA 
BRANCH  25  26
HETATM   26  C   UNL     1     -10.377  10.399  68.934  1.00  0.00    -0.209 C  
HETATM   27  O   UNL     1     -10.268   8.990  68.719  1.00  0.00    -0.197 OA 
HETATM   28  C   UNL     1     -10.299   8.236  69.939  1.00  0.00    -0.218 C  
HETATM   29  C   UNL     1     -11.672   8.389  70.609  1.00  0.00    -0.147 C  
HETATM   30  H2  UNL     1     -11.818  12.729  69.124  1.00  0.00     0.000 HD 
HETATM   31  C   UNL     1     -11.914   9.870  70.902  1.00  0.00    -0.345 C  
HETATM   32  O   UNL     1     -11.777   7.699  71.863  1.00  0.00    -0.270 OA 
HETATM   33  H1  UNL     1     -12.811  12.374  70.423  1.00  0.00     0.000 HD 
HETATM   34  H   UNL     1     -12.627   7.794  72.278  1.00  0.00     0.000 HD 
HETATM   35  H   UNL     1     -13.398  10.958  71.599  1.00  0.00     0.000 HD 
HETATM   36  N   UNL     1     -11.927  12.159  69.962  1.00  0.00    -0.338 NA 
HETATM   37  O   UNL     1     -13.248  10.038  71.418  1.00  0.00    -0.379 OA 
HETATM   38  C   UNL     1     -11.730  10.727  69.640  1.00  0.00    -0.323 C  
BRANCH  28  39
HETATM   39  C   UNL     1      -9.934   6.782  69.594  1.00  0.00    -0.173 C  
HETATM   40  H2  UNL     1     -11.796   6.234  68.896  1.00  0.00     0.000 HD 
HETATM   41  N   UNL     1     -11.091   5.878  69.540  1.00  0.00    -0.385 NA 
HETATM   42  H1  UNL     1     -10.849   4.913  69.310  1.00  0.00     0.000 HD 
ENDBRANCH  28  39
ENDBRANCH  25  26
ENDBRANCH  24  25
ENDBRANCH  10  11
ENDBRANCH   1  10
BRANCH   5  43
HETATM   43  C   UNL     1     -12.308  13.780  65.361  1.00  0.00    -0.475 C  
HETATM   44  O   UNL     1     -11.648  14.707  66.229  1.00  0.00    -0.366 OA 
HETATM   45  H   UNL     1     -12.288  15.123  66.794  1.00  0.00     0.000 HD 
ENDBRANCH   5  43
TORSDOF 6
ENDMDL
MODEL      130
REMARK 921   NORMALIZED FREE ENERGY PREDICTED BY IDOCK:   -5.17 KCAL/MOL
REMARK 922        TOTAL FREE ENERGY PREDICTED BY IDOCK:   -8.62 KCAL/MOL
REMARK 923 INTER-LIGAND FREE ENERGY PREDICTED BY IDOCK:   -7.93 KCAL/MOL
REMARK 924 INTRA-LIGAND FREE ENERGY PREDICTED BY IDOCK:   -0.69 KCAL/MOL
REMARK 927      BINDING AFFINITY PREDICTED BY RF-SCORE:    0.00 PKD
ROOT
HETATM    1  C   UNL     1      -8.449   8.191  67.142  1.00  0.00    -0.124 C  
HETATM    2  O   UNL     1      -7.141   5.955  65.058  1.00  0.00    -0.060 OA 
HETATM    3  O   UNL     1      -7.397   8.780  66.365  1.00  0.00    -0.082 OA 
HETATM    4  H   UNL     1      -8.852   4.942  66.614  1.00  0.00     0.000 HD 
HETATM    5  C   UNL     1      -7.554   8.377  64.992  1.00  0.00    -0.094 C  
HETATM    6  H   UNL     1      -7.516   5.083  65.091  1.00  0.00     0.000 HD 
HETATM    7  C   UNL     1      -8.155   6.979  65.045  1.00  0.00    -0.119 C  
HETATM    8  O   UNL     1      -8.571   5.719  67.083  1.00  0.00    -0.111 OA 
HETATM    9  C   UNL     1      -8.906   6.926  66.378  1.00  0.00    -0.145 C  
ENDROOT
BRANCH   1  10
HETATM   10  O   UNL     1      -9.550   9.096  67.259  1.00  0.00    -0.143 OA 
BRANCH  10  11
HETATM   11  C   UNL     1      -9.867   9.623  68.577  1.00  0.00    -0.157 C  
HETATM   12  O   UNL     1      -7.958   8.540  69.614  1.00  0.00    -0.097 OA 
HETATM   13  H2  UNL     1     -13.285  11.063  71.390  1.00  0.00     0.000 HD 
HETATM   14  H   UNL     1      -7.657   7.968  70.311  1.00  0.00     0.000 HD 
HETATM   15  C   UNL     1      -9.380   8.697  69.703  1.00  0.00    -0.161 C  
HETATM   16  H1  UNL     1     -13.399  11.451  69.745  1.00  0.00     0.000 HD 
HETATM   17  C   UNL     1     -11.168   9.493  71.267  1.00  0.00    -0.452 C  
HETATM   18  N   UNL     1      -9.186   8.294  72.119  1.00  0.00    -0.198 NA 
HETATM   19  N   UNL     1     -13.078  10.772  70.435  1.00  0.00    -0.150 NA 
HETATM   20  H1  UNL     1      -9.382   8.657  73.052  1.00  0.00     0.000 HD 
HETATM   21  H2  UNL     1      -8.198   8.071  71.993  1.00  0.00     0.000 HD 
HETATM   22  C   UNL     1     -11.649  10.514  70.228  1.00  0.00    -0.332 C  
HETATM   23  C   UNL     1      -9.675   9.243  71.105  1.00  0.00    -0.257 C  
HETATM   24  C   UNL     1     -11.353  10.055  68.760  1.00  0.00    -0.060 C  
BRANCH  24  25
HETATM   25  O   UNL     1     -11.792  10.995  67.741  1.00  0.00    -0.605 OA 
BRANCH  25  26
HETATM   26  C   UNL     1     -10.772  11.778  67.109  1.00  0.00    -0.241 C  
HETATM   27  O   UNL     1     -10.896  11.735  65.686  1.00  0.00    -0.278 OA 
HETATM   28  C   UNL     1     -12.106  12.345  65.214  1.00  0.00    -0.391 C  
HETATM   29  C   UNL     1     -12.086  13.848  65.526  1.00  0.00    -0.407 C  
HETATM   30  H2  UNL     1      -9.883  12.920  69.444  1.00  0.00     0.000 HD 
HETATM   31  C   UNL     1     -11.961  14.036  67.038  1.00  0.00    -0.438 C  
HETATM   32  O   UNL     1     -13.283  14.532  65.124  1.00  0.00    -0.499 OA 
HETATM   33  H1  UNL     1     -10.678  14.392  69.390  1.00  0.00     0.000 HD 
HETATM   34  H   UNL     1     -13.270  15.462  65.317  1.00  0.00     0.000 HD 
HETATM   35  H   UNL     1     -11.740  15.554  68.270  1.00  0.00     0.000 HD 
HETATM   36  N   UNL     1     -10.687  13.423  69.070  1.00  0.00    -0.179 NA 
HETATM   37  O   UNL     1     -11.818  15.438  67.330  1.00  0.00    -0.109 OA 
HETATM   38  C   UNL     1     -10.759  13.260  67.599  1.00  0.00    -0.239 C  
BRANCH  28  39
HETATM   39  C   UNL     1     -12.232  12.022  63.715  1.00  0.00    -0.498 C  
HETATM   40  H2  UNL     1     -10.892  10.455  63.701  1.00  0.00     0.000 HD 
HETATM   41  N   UNL     1     -11.075  11.303  63.165  1.00  0.00    -0.846 NA 
HETATM   42  H1  UNL     1     -11.159  11.088  62.171  1.00  0.00     0.000 HD 
ENDBRANCH  28  39
ENDBRANCH  25  26
ENDBRANCH  24  25
ENDBRANCH  10  11
ENDBRANCH   1  10
BRANCH   5  43
HETATM   43  C   UNL     1      -8.430   9.354  64.197  1.00  0.00    -0.190 C  
HETATM   44  O   UNL     1      -8.396  10.642  64.821  1.00  0.00    -0.270 OA 
HETATM   45  H   UNL     1      -8.938  11.247  64.329  1.00  0.00     0.000 HD 
ENDBRANCH   5  43
TORSDOF 6
ENDMDL
MODEL      131
REMARK 921   NORMALIZED FREE ENERGY PREDICTED BY IDOCK:   -5.16 KCAL/MOL
REMARK 922        TOTAL FREE ENERGY PREDICTED BY IDOCK:   -8.62 KCAL/MOL
REMARK 923 INTER-LIGAND FREE ENERGY PREDICTED BY IDOCK:   -7.62 KCAL/MOL
REMARK 924 INTRA-LIGAND FREE ENERGY PREDICTED BY IDOCK:   -1.00 KCAL/MOL
REMARK 927      BINDING AFFINITY PREDICTED BY RF-SCORE:    0.00 PKD
ROOT
HETATM    1  C   UNL     1     -10.394   9.529  68.469  1.00  0.00    -0.207 C  
HETATM    2  O   UNL     1      -9.826   6.786  70.260  1.00  0.00    -0.174 OA 
HETATM    3  O   UNL     1     -10.062   9.870  69.823  1.00  0.00    -0.214 OA 
HETATM    4  H   UNL     1     -10.629   6.267  67.924  1.00  0.00     0.000 HD 
HETATM    5  C   UNL     1      -8.934   9.076  70.236  1.00  0.00    -0.198 C  
HETATM    6  H   UNL     1      -9.914   5.960  69.800  1.00  0.00     0.000 HD 
HETATM    7  C   UNL     1      -9.076   7.753  69.498  1.00  0.00    -0.146 C  
HETATM    8  O   UNL     1     -10.947   7.150  68.067  1.00  0.00    -0.154 OA 
HETATM    9  C   UNL     1      -9.874   8.091  68.236  1.00  0.00    -0.170 C  
ENDROOT
BRANCH   1  10
HETATM   10  O   UNL     1      -9.746  10.419  67.557  1.00  0.00    -0.165 OA 
BRANCH  10  11
HETATM   11  C   UNL     1     -10.516  10.930  66.435  1.00  0.00    -0.250 C  
HETATM   12  O   UNL     1      -9.833   9.118  64.970  1.00  0.00    -0.374 OA 
HETATM   13  H2  UNL     1     -12.252  14.753  64.423  1.00  0.00     0.000 HD 
HETATM   14  H   UNL     1      -9.448   8.882  64.134  1.00  0.00     0.000 HD 
HETATM   15  C   UNL     1      -9.894  10.547  65.083  1.00  0.00    -0.297 C  
HETATM   16  H1  UNL     1     -12.270  14.672  66.115  1.00  0.00     0.000 HD 
HETATM   17  C   UNL     1     -10.863  12.559  63.950  1.00  0.00    -0.472 C  
HETATM   18  N   UNL     1     -10.033  10.646  62.631  1.00  0.00    -0.741 NA 
HETATM   19  N   UNL     1     -11.781  14.409  65.259  1.00  0.00    -0.353 NA 
HETATM   20  H1  UNL     1     -10.570  10.979  61.832  1.00  0.00     0.000 HD 
HETATM   21  H2  UNL     1      -9.866   9.640  62.590  1.00  0.00     0.000 HD 
HETATM   22  C   UNL     1     -11.598  12.954  65.238  1.00  0.00    -0.340 C  
HETATM   23  C   UNL     1     -10.702  11.047  63.880  1.00  0.00    -0.240 C  
HETATM   24  C   UNL     1     -10.860  12.448  66.524  1.00  0.00    -0.250 C  
BRANCH  24  25
HETATM   25  O   UNL     1     -11.523  12.798  67.769  1.00  0.00    -0.283 OA 
BRANCH  25  26
HETATM   26  C   UNL     1     -10.693  13.326  68.811  1.00  0.00    -0.227 C  
HETATM   27  O   UNL     1      -9.307  13.191  68.486  1.00  0.00    -0.180 OA 
HETATM   28  C   UNL     1      -8.924  13.973  67.345  1.00  0.00    -0.206 C  
HETATM   29  C   UNL     1      -9.072  15.466  67.666  1.00  0.00    -0.182 C  
HETATM   30  H2  UNL     1     -12.769  14.472  70.197  1.00  0.00     0.000 HD 
HETATM   31  C   UNL     1     -10.530  15.751  68.030  1.00  0.00    -0.270 C  
HETATM   32  O   UNL     1      -8.749  16.324  66.561  1.00  0.00    -0.232 OA 
HETATM   33  H1  UNL     1     -12.658  16.055  69.667  1.00  0.00     0.000 HD 
HETATM   34  H   UNL     1      -8.840  17.248  66.760  1.00  0.00     0.000 HD 
HETATM   35  H   UNL     1     -11.559  17.298  68.677  1.00  0.00     0.000 HD 
HETATM   36  N   UNL     1     -12.445  15.082  69.448  1.00  0.00    -0.113 NA 
HETATM   37  O   UNL     1     -10.653  17.122  68.451  1.00  0.00    -0.348 OA 
HETATM   38  C   UNL     1     -11.019  14.815  69.147  1.00  0.00    -0.267 C  
BRANCH  28  39
HETATM   39  C   UNL     1      -7.494  13.557  66.960  1.00  0.00     0.282 C  
HETATM   40  H2  UNL     1      -7.964  11.643  66.354  1.00  0.00     0.000 HD 
HETATM   41  N   UNL     1      -7.281  12.104  66.955  1.00  0.00    -0.359 NA 
HETATM   42  H1  UNL     1      -6.332  11.829  66.699  1.00  0.00     0.000 HD 
ENDBRANCH  28  39
ENDBRANCH  25  26
ENDBRANCH  24  25
ENDBRANCH  10  11
ENDBRANCH   1  10
BRANCH   5  43
HETATM   43  C   UNL     1      -7.598   9.767  69.935  1.00  0.00    -0.152 C  
HETATM   44  O   UNL     1      -7.820  11.165  69.720  1.00  0.00    -0.338 OA 
HETATM   45  H   UNL     1      -6.993  11.593  69.533  1.00  0.00     0.000 HD 
ENDBRANCH   5  43
TORSDOF 6
ENDMDL
MODEL      132
REMARK 921   NORMALIZED FREE ENERGY PREDICTED BY IDOCK:   -5.16 KCAL/MOL
REMARK 922        TOTAL FREE ENERGY PREDICTED BY IDOCK:   -8.61 KCAL/MOL
REMARK 923 INTER-LIGAND FREE ENERGY PREDICTED BY IDOCK:   -7.31 KCAL/MOL
REMARK 924 INTRA-LIGAND FREE ENERGY PREDICTED BY IDOCK:   -1.30 KCAL/MOL
REMARK 927      BINDING AFFINITY PREDICTED BY RF-SCORE:    0.00 PKD
ROOT
HETATM    1  C   UNL     1      -7.804  14.064  68.090  1.00  0.00    -0.144 C  
HETATM    2  O   UNL     1      -6.278  17.000  68.409  1.00  0.00    -0.140 OA 
HETATM    3  O   UNL     1      -8.765  15.120  68.230  1.00  0.00    -0.162 OA 
HETATM    4  H   UNL     1      -4.656  15.066  68.377  1.00  0.00     0.000 HD 
HETATM    5  C   UNL     1      -8.371  16.218  67.387  1.00  0.00    -0.169 C  
HETATM    6  H   UNL     1      -5.328  16.982  68.395  1.00  0.00     0.000 HD 
HETATM    7  C   UNL     1      -6.850  16.189  67.365  1.00  0.00    -0.182 C  
HETATM    8  O   UNL     1      -5.468  14.659  68.654  1.00  0.00    -0.086 OA 
HETATM    9  C   UNL     1      -6.482  14.728  67.638  1.00  0.00    -0.139 C  
ENDROOT
BRANCH   1  10
HETATM   10  O   UNL     1      -8.229  13.131  67.094  1.00  0.00    -0.176 OA 
BRANCH  10  11
HETATM   11  C   UNL     1      -8.009  11.715  67.343  1.00  0.00    -0.147 C  
HETATM   12  O   UNL     1      -5.829  11.730  66.275  1.00  0.00    -0.476 OA 
HETATM   13  H2  UNL     1     -10.065   7.579  67.925  1.00  0.00     0.000 HD 
HETATM   14  H   UNL     1      -5.269  11.333  65.618  1.00  0.00     0.000 HD 
HETATM   15  C   UNL     1      -7.104  11.073  66.280  1.00  0.00    -0.092 C  
HETATM   16  H1  UNL     1     -10.824   8.940  68.591  1.00  0.00     0.000 HD 
HETATM   17  C   UNL     1      -8.143   8.818  66.610  1.00  0.00    -0.103 C  
HETATM   18  N   UNL     1      -5.967   9.052  65.468  1.00  0.00    -0.054 NA 
HETATM   19  N   UNL     1     -10.247   8.578  67.832  1.00  0.00    -0.208 NA 
HETATM   20  H1  UNL     1      -5.786   8.063  65.638  1.00  0.00     0.000 HD 
HETATM   21  H2  UNL     1      -5.106   9.588  65.365  1.00  0.00     0.000 HD 
HETATM   22  C   UNL     1      -9.011   9.363  67.751  1.00  0.00    -0.122 C  
HETATM   23  C   UNL     1      -6.831   9.586  66.535  1.00  0.00    -0.083 C  
HETATM   24  C   UNL     1      -9.310  10.894  67.594  1.00  0.00    -0.156 C  
BRANCH  24  25
HETATM   25  O   UNL     1     -10.129  11.454  68.656  1.00  0.00    -0.203 OA 
BRANCH  25  26
HETATM   26  C   UNL     1     -11.538  11.531  68.406  1.00  0.00    -0.308 C  
HETATM   27  O   UNL     1     -12.213  12.217  69.463  1.00  0.00    -0.222 OA 
HETATM   28  C   UNL     1     -11.830  13.596  69.566  1.00  0.00    -0.337 C  
HETATM   29  C   UNL     1     -12.275  14.354  68.308  1.00  0.00    -0.125 C  
HETATM   30  H2  UNL     1     -11.363  10.602  65.827  1.00  0.00     0.000 HD 
HETATM   31  C   UNL     1     -11.610  13.716  67.088  1.00  0.00    -0.361 C  
HETATM   32  O   UNL     1     -11.893  15.737  68.308  1.00  0.00    -0.389 OA 
HETATM   33  H1  UNL     1     -11.399  12.042  64.976  1.00  0.00     0.000 HD 
HETATM   34  H   UNL     1     -12.168  16.206  67.529  1.00  0.00     0.000 HD 
HETATM   35  H   UNL     1     -11.704  13.944  65.135  1.00  0.00     0.000 HD 
HETATM   36  N   UNL     1     -11.181  11.604  65.871  1.00  0.00    -0.280 NA 
HETATM   37  O   UNL     1     -12.116  14.340  65.894  1.00  0.00    -0.398 OA 
HETATM   38  C   UNL     1     -11.872  12.202  67.037  1.00  0.00    -0.216 C  
BRANCH  28  39
HETATM   39  C   UNL     1     -12.432  14.146  70.871  1.00  0.00    -0.365 C  
HETATM   40  H2  UNL     1     -14.130  14.951  70.020  1.00  0.00     0.000 HD 
HETATM   41  N   UNL     1     -13.393  15.238  70.664  1.00  0.00    -0.712 NA 
HETATM   42  H1  UNL     1     -13.793  15.603  71.529  1.00  0.00     0.000 HD 
ENDBRANCH  28  39
ENDBRANCH  25  26
ENDBRANCH  24  25
ENDBRANCH  10  11
ENDBRANCH   1  10
BRANCH   5  43
HETATM   43  C   UNL     1      -8.973  16.114  65.979  1.00  0.00    -0.298 C  
HETATM   44  O   UNL     1     -10.117  16.969  65.884  1.00  0.00    -0.456 OA 
HETATM   45  H   UNL     1     -10.490  16.904  65.013  1.00  0.00     0.000 HD 
ENDBRANCH   5  43
TORSDOF 6
ENDMDL
MODEL      133
REMARK 921   NORMALIZED FREE ENERGY PREDICTED BY IDOCK:   -5.14 KCAL/MOL
REMARK 922        TOTAL FREE ENERGY PREDICTED BY IDOCK:   -8.59 KCAL/MOL
REMARK 923 INTER-LIGAND FREE ENERGY PREDICTED BY IDOCK:   -6.62 KCAL/MOL
REMARK 924 INTRA-LIGAND FREE ENERGY PREDICTED BY IDOCK:   -1.97 KCAL/MOL
REMARK 927      BINDING AFFINITY PREDICTED BY RF-SCORE:    0.00 PKD
ROOT
HETATM    1  C   UNL     1      -9.928   4.929  68.230  1.00  0.00    -0.111 C  
HETATM    2  O   UNL     1      -9.841   2.602  65.857  1.00  0.00    -0.331 OA 
HETATM    3  O   UNL     1      -9.656   3.640  68.797  1.00  0.00    -0.163 OA 
HETATM    4  H   UNL     1     -10.530   4.864  64.970  1.00  0.00     0.000 HD 
HETATM    5  C   UNL     1      -8.669   2.976  67.985  1.00  0.00    -0.109 C  
HETATM    6  H   UNL     1      -9.998   2.904  64.970  1.00  0.00     0.000 HD 
HETATM    7  C   UNL     1      -8.922   3.459  66.563  1.00  0.00    -0.150 C  
HETATM    8  O   UNL     1     -10.745   4.922  65.893  1.00  0.00    -0.302 OA 
HETATM    9  C   UNL     1      -9.578   4.833  66.726  1.00  0.00    -0.173 C  
ENDROOT
BRANCH   1  10
HETATM   10  O   UNL     1      -9.109   5.927  68.843  1.00  0.00    -0.120 OA 
BRANCH  10  11
HETATM   11  C   UNL     1      -9.650   6.651  69.983  1.00  0.00    -0.156 C  
HETATM   12  O   UNL     1      -9.514   4.718  71.445  1.00  0.00    -0.141 OA 
HETATM   13  H2  UNL     1     -12.433  10.137  71.317  1.00  0.00     0.000 HD 
HETATM   14  H   UNL     1      -9.981   4.147  72.044  1.00  0.00     0.000 HD 
HETATM   15  C   UNL     1     -10.405   5.728  70.951  1.00  0.00    -0.237 C  
HETATM   16  H1  UNL     1     -11.491  10.365  69.927  1.00  0.00     0.000 HD 
HETATM   17  C   UNL     1     -11.880   7.592  71.741  1.00  0.00    -0.327 C  
HETATM   18  N   UNL     1     -11.674   5.506  73.044  1.00  0.00    -0.542 NA 
HETATM   19  N   UNL     1     -12.004   9.697  70.504  1.00  0.00    -0.218 NA 
HETATM   20  H1  UNL     1     -12.043   5.994  73.860  1.00  0.00     0.000 HD 
HETATM   21  H2  UNL     1     -11.090   4.711  73.303  1.00  0.00     0.000 HD 
HETATM   22  C   UNL     1     -11.109   8.595  70.873  1.00  0.00    -0.264 C  
HETATM   23  C   UNL     1     -10.961   6.460  72.178  1.00  0.00    -0.251 C  
HETATM   24  C   UNL     1     -10.470   7.923  69.610  1.00  0.00    -0.226 C  
BRANCH  24  25
HETATM   25  O   UNL     1      -9.727   8.838  68.759  1.00  0.00    -0.160 OA 
BRANCH  25  26
HETATM   26  C   UNL     1     -10.143   8.921  67.390  1.00  0.00    -0.227 C  
HETATM   27  O   UNL     1     -11.047  10.010  67.190  1.00  0.00    -0.189 OA 
HETATM   28  C   UNL     1     -10.437  11.289  67.418  1.00  0.00    -0.212 C  
HETATM   29  C   UNL     1      -9.342  11.537  66.371  1.00  0.00    -0.209 C  
HETATM   30  H2  UNL     1      -8.333   7.061  66.491  1.00  0.00     0.000 HD 
HETATM   31  C   UNL     1      -8.294  10.429  66.483  1.00  0.00    -0.130 C  
HETATM   32  O   UNL     1      -8.648  12.780  66.551  1.00  0.00    -0.416 OA 
HETATM   33  H1  UNL     1      -7.123   8.062  65.911  1.00  0.00     0.000 HD 
HETATM   34  H   UNL     1      -7.971  12.933  65.902  1.00  0.00     0.000 HD 
HETATM   35  H   UNL     1      -6.678   9.895  65.495  1.00  0.00     0.000 HD 
HETATM   36  N   UNL     1      -7.909   7.986  66.557  1.00  0.00    -0.096 NA 
HETATM   37  O   UNL     1      -7.329  10.584  65.426  1.00  0.00    -0.142 OA 
HETATM   38  C   UNL     1      -8.940   9.037  66.402  1.00  0.00    -0.155 C  
BRANCH  28  39
HETATM   39  C   UNL     1     -11.557  12.344  67.408  1.00  0.00    -0.365 C  
HETATM   40  H2  UNL     1     -12.087  12.101  65.430  1.00  0.00     0.000 HD 
HETATM   41  N   UNL     1     -11.869  12.864  66.070  1.00  0.00    -0.409 NA 
HETATM   42  H1  UNL     1     -12.612  13.563  66.064  1.00  0.00     0.000 HD 
ENDBRANCH  28  39
ENDBRANCH  25  26
ENDBRANCH  24  25
ENDBRANCH  10  11
ENDBRANCH   1  10
BRANCH   5  43
HETATM   43  C   UNL     1      -7.238   3.274  68.451  1.00  0.00    -0.050 C  
HETATM   44  O   UNL     1      -7.260   3.696  69.820  1.00  0.00    -0.041 OA 
HETATM   45  H   UNL     1      -6.375   3.880  70.109  1.00  0.00     0.000 HD 
ENDBRANCH   5  43
TORSDOF 6
ENDMDL
MODEL      134
REMARK 921   NORMALIZED FREE ENERGY PREDICTED BY IDOCK:   -5.12 KCAL/MOL
REMARK 922        TOTAL FREE ENERGY PREDICTED BY IDOCK:   -8.56 KCAL/MOL
REMARK 923 INTER-LIGAND FREE ENERGY PREDICTED BY IDOCK:   -7.42 KCAL/MOL
REMARK 924 INTRA-LIGAND FREE ENERGY PREDICTED BY IDOCK:   -1.14 KCAL/MOL
REMARK 927      BINDING AFFINITY PREDICTED BY RF-SCORE:    0.00 PKD
ROOT
HETATM    1  C   UNL     1     -10.909  10.092  67.432  1.00  0.00    -0.249 C  
HETATM    2  O   UNL     1     -10.849  12.366  65.009  1.00  0.00    -0.278 OA 
HETATM    3  O   UNL     1     -10.304   9.552  66.249  1.00  0.00    -0.244 OA 
HETATM    4  H   UNL     1     -12.093  13.166  67.055  1.00  0.00     0.000 HD 
HETATM    5  C   UNL     1      -9.385  10.523  65.715  1.00  0.00    -0.188 C  
HETATM    6  H   UNL     1     -11.223  13.213  65.221  1.00  0.00     0.000 HD 
HETATM    7  C   UNL     1      -9.985  11.880  66.055  1.00  0.00    -0.232 C  
HETATM    8  O   UNL     1     -12.137  12.220  67.134  1.00  0.00    -0.560 OA 
HETATM    9  C   UNL     1     -10.837  11.632  67.302  1.00  0.00    -0.256 C  
ENDROOT
BRANCH   1  10
HETATM   10  O   UNL     1     -10.184   9.682  68.595  1.00  0.00    -0.176 OA 
BRANCH  10  11
HETATM   11  C   UNL     1     -10.910   8.983  69.644  1.00  0.00    -0.186 C  
HETATM   12  O   UNL     1     -12.693  10.631  69.690  1.00  0.00    -0.564 OA 
HETATM   13  H2  UNL     1     -10.519   6.167  73.330  1.00  0.00     0.000 HD 
HETATM   14  H   UNL     1     -13.205  11.224  70.227  1.00  0.00     0.000 HD 
HETATM   15  C   UNL     1     -11.740   9.942  70.512  1.00  0.00    -0.295 C  
HETATM   16  H1  UNL     1      -9.502   5.881  72.005  1.00  0.00     0.000 HD 
HETATM   17  C   UNL     1     -11.604   8.424  72.499  1.00  0.00    -0.426 C  
HETATM   18  N   UNL     1     -13.294  10.219  72.394  1.00  0.00    -0.573 NA 
HETATM   19  N   UNL     1      -9.999   6.581  72.557  1.00  0.00    -0.170 NA 
HETATM   20  H1  UNL     1     -13.826   9.745  73.123  1.00  0.00     0.000 HD 
HETATM   21  H2  UNL     1     -13.887  10.807  71.807  1.00  0.00     0.000 HD 
HETATM   22  C   UNL     1     -10.857   7.372  71.669  1.00  0.00    -0.220 C  
HETATM   23  C   UNL     1     -12.540   9.229  71.608  1.00  0.00    -0.365 C  
HETATM   24  C   UNL     1     -10.039   8.011  70.495  1.00  0.00    -0.192 C  
BRANCH  24  25
HETATM   25  O   UNL     1      -9.316   7.049  69.680  1.00  0.00    -0.149 OA 
BRANCH  25  26
HETATM   26  C   UNL     1     -10.108   6.160  68.882  1.00  0.00    -0.173 C  
HETATM   27  O   UNL     1      -9.942   6.429  67.488  1.00  0.00    -0.123 OA 
HETATM   28  C   UNL     1      -8.608   6.171  67.027  1.00  0.00    -0.108 C  
HETATM   29  C   UNL     1      -8.301   4.671  67.140  1.00  0.00    -0.105 C  
HETATM   30  H2  UNL     1     -10.807   4.533  70.982  1.00  0.00     0.000 HD 
HETATM   31  C   UNL     1      -8.440   4.248  68.602  1.00  0.00    -0.084 C  
HETATM   32  O   UNL     1      -6.966   4.328  66.737  1.00  0.00    -0.057 OA 
HETATM   33  H1  UNL     1      -9.699   3.292  70.794  1.00  0.00     0.000 HD 
HETATM   34  H   UNL     1      -6.777   3.400  66.807  1.00  0.00     0.000 HD 
HETATM   35  H   UNL     1      -8.361   2.559  69.609  1.00  0.00     0.000 HD 
HETATM   36  N   UNL     1      -9.896   4.275  70.603  1.00  0.00    -0.205 NA 
HETATM   37  O   UNL     1      -8.274   2.822  68.700  1.00  0.00    -0.062 OA 
HETATM   38  C   UNL     1      -9.806   4.657  69.175  1.00  0.00    -0.172 C  
BRANCH  28  39
HETATM   39  C   UNL     1      -8.500   6.722  65.594  1.00  0.00    -0.138 C  
HETATM   40  H2  UNL     1      -9.703   5.302  64.707  1.00  0.00     0.000 HD 
HETATM   41  N   UNL     1      -8.789   5.727  64.553  1.00  0.00    -0.359 NA 
HETATM   42  H1  UNL     1      -8.717   6.093  63.604  1.00  0.00     0.000 HD 
ENDBRANCH  28  39
ENDBRANCH  25  26
ENDBRANCH  24  25
ENDBRANCH  10  11
ENDBRANCH   1  10
BRANCH   5  43
HETATM   43  C   UNL     1      -7.970  10.357  66.285  1.00  0.00    -0.138 C  
HETATM   44  O   UNL     1      -7.300  11.622  66.277  1.00  0.00    -0.370 OA 
HETATM   45  H   UNL     1      -6.424  11.520  66.630  1.00  0.00     0.000 HD 
ENDBRANCH   5  43
TORSDOF 6
ENDMDL
MODEL      135
REMARK 921   NORMALIZED FREE ENERGY PREDICTED BY IDOCK:   -5.10 KCAL/MOL
REMARK 922        TOTAL FREE ENERGY PREDICTED BY IDOCK:   -8.53 KCAL/MOL
REMARK 923 INTER-LIGAND FREE ENERGY PREDICTED BY IDOCK:   -7.15 KCAL/MOL
REMARK 924 INTRA-LIGAND FREE ENERGY PREDICTED BY IDOCK:   -1.38 KCAL/MOL
REMARK 927      BINDING AFFINITY PREDICTED BY RF-SCORE:    0.00 PKD
ROOT
HETATM    1  C   UNL     1      -9.581  13.731  67.733  1.00  0.00    -0.219 C  
HETATM    2  O   UNL     1      -9.244  16.903  66.795  1.00  0.00    -0.228 OA 
HETATM    3  O   UNL     1     -10.813  14.231  67.194  1.00  0.00    -0.288 OA 
HETATM    4  H   UNL     1      -7.186  16.013  67.955  1.00  0.00     0.000 HD 
HETATM    5  C   UNL     1     -10.526  14.966  65.990  1.00  0.00    -0.316 C  
HETATM    6  H   UNL     1      -8.388  17.291  66.932  1.00  0.00     0.000 HD 
HETATM    7  C   UNL     1      -9.154  15.588  66.210  1.00  0.00    -0.334 C  
HETATM    8  O   UNL     1      -7.873  15.441  68.272  1.00  0.00    -0.119 OA 
HETATM    9  C   UNL     1      -8.461  14.664  67.215  1.00  0.00    -0.215 C  
ENDROOT
BRANCH   1  10
HETATM   10  O   UNL     1      -9.338  12.400  67.272  1.00  0.00    -0.175 OA 
BRANCH  10  11
HETATM   11  C   UNL     1      -8.373  11.589  67.997  1.00  0.00    -0.146 C  
HETATM   12  O   UNL     1      -6.541  12.225  66.537  1.00  0.00    -0.421 OA 
HETATM   13  H2  UNL     1      -7.788   7.779  70.608  1.00  0.00     0.000 HD 
HETATM   14  H   UNL     1      -5.836  11.921  65.977  1.00  0.00     0.000 HD 
HETATM   15  C   UNL     1      -7.232  11.098  67.092  1.00  0.00    -0.120 C  
HETATM   16  H1  UNL     1      -9.197   8.690  70.844  1.00  0.00     0.000 HD 
HETATM   17  C   UNL     1      -6.845   9.068  68.507  1.00  0.00    -0.064 C  
HETATM   18  N   UNL     1      -5.137   9.829  66.897  1.00  0.00    -0.040 NA 
HETATM   19  N   UNL     1      -8.493   8.375  70.176  1.00  0.00    -0.122 NA 
HETATM   20  H1  UNL     1      -4.440   9.275  67.393  1.00  0.00     0.000 HD 
HETATM   21  H2  UNL     1      -4.719  10.614  66.397  1.00  0.00     0.000 HD 
HETATM   22  C   UNL     1      -7.904   9.543  69.511  1.00  0.00    -0.103 C  
HETATM   23  C   UNL     1      -6.184  10.264  67.837  1.00  0.00    -0.059 C  
HETATM   24  C   UNL     1      -9.001  10.439  68.842  1.00  0.00    -0.169 C  
BRANCH  24  25
HETATM   25  O   UNL     1     -10.025  10.913  69.758  1.00  0.00     0.010 OA 
BRANCH  25  26
HETATM   26  C   UNL     1     -11.386  10.724  69.352  1.00  0.00    -0.285 C  
HETATM   27  O   UNL     1     -11.781   9.357  69.491  1.00  0.00     0.157 OA 
HETATM   28  C   UNL     1     -11.789   8.915  70.856  1.00  0.00    -0.240 C  
HETATM   29  C   UNL     1     -12.864   9.679  71.642  1.00  0.00    -0.405 C  
HETATM   30  H2  UNL     1     -11.933  13.407  69.132  1.00  0.00     0.000 HD 
HETATM   31  C   UNL     1     -12.553  11.175  71.578  1.00  0.00    -0.325 C  
HETATM   32  O   UNL     1     -12.913   9.328  73.033  1.00  0.00    -0.494 OA 
HETATM   33  H1  UNL     1     -12.685  13.691  70.600  1.00  0.00     0.000 HD 
HETATM   34  H   UNL     1     -13.579   9.801  73.519  1.00  0.00     0.000 HD 
HETATM   35  H   UNL     1     -13.427  12.836  72.166  1.00  0.00     0.000 HD 
HETATM   36  N   UNL     1     -12.036  13.088  70.095  1.00  0.00    -0.335 NA 
HETATM   37  O   UNL     1     -13.620  11.907  72.207  1.00  0.00    -0.364 OA 
HETATM   38  C   UNL     1     -12.379  11.647  70.125  1.00  0.00    -0.219 C  
BRANCH  28  39
HETATM   39  C   UNL     1     -11.990   7.390  70.847  1.00  0.00    -0.277 C  
HETATM   40  H2  UNL     1     -13.098   7.291  72.584  1.00  0.00     0.000 HD 
HETATM   41  N   UNL     1     -12.292   6.825  72.169  1.00  0.00    -0.513 NA 
HETATM   42  H1  UNL     1     -12.425   5.813  72.163  1.00  0.00     0.000 HD 
ENDBRANCH  28  39
ENDBRANCH  25  26
ENDBRANCH  24  25
ENDBRANCH  10  11
ENDBRANCH   1  10
BRANCH   5  43
HETATM   43  C   UNL     1     -10.562  14.073  64.743  1.00  0.00    -0.421 C  
HETATM   44  O   UNL     1     -11.493  13.004  64.947  1.00  0.00    -0.301 OA 
HETATM   45  H   UNL     1     -11.515  12.451  64.176  1.00  0.00     0.000 HD 
ENDBRANCH   5  43
TORSDOF 6
ENDMDL
MODEL      136
REMARK 921   NORMALIZED FREE ENERGY PREDICTED BY IDOCK:   -5.09 KCAL/MOL
REMARK 922        TOTAL FREE ENERGY PREDICTED BY IDOCK:   -8.52 KCAL/MOL
REMARK 923 INTER-LIGAND FREE ENERGY PREDICTED BY IDOCK:   -7.51 KCAL/MOL
REMARK 924 INTRA-LIGAND FREE ENERGY PREDICTED BY IDOCK:   -1.01 KCAL/MOL
REMARK 927      BINDING AFFINITY PREDICTED BY RF-SCORE:    0.00 PKD
ROOT
HETATM    1  C   UNL     1      -9.229   7.757  67.703  1.00  0.00    -0.136 C  
HETATM    2  O   UNL     1      -6.539   6.074  66.712  1.00  0.00    -0.052 OA 
HETATM    3  O   UNL     1      -9.422   7.230  66.383  1.00  0.00    -0.175 OA 
HETATM    4  H   UNL     1      -6.200   7.217  68.937  1.00  0.00     0.000 HD 
HETATM    5  C   UNL     1      -8.962   5.866  66.358  1.00  0.00    -0.140 C  
HETATM    6  H   UNL     1      -5.818   6.038  67.329  1.00  0.00     0.000 HD 
HETATM    7  C   UNL     1      -7.806   5.809  67.346  1.00  0.00    -0.102 C  
HETATM    8  O   UNL     1      -6.901   7.722  68.543  1.00  0.00    -0.062 OA 
HETATM    9  C   UNL     1      -8.087   6.935  68.344  1.00  0.00    -0.120 C  
ENDROOT
BRANCH   1  10
HETATM   10  O   UNL     1     -10.419   7.601  68.481  1.00  0.00    -0.200 OA 
BRANCH  10  11
HETATM   11  C   UNL     1     -10.564   8.410  69.681  1.00  0.00    -0.219 C  
HETATM   12  O   UNL     1      -9.776   6.634  71.135  1.00  0.00    -0.174 OA 
HETATM   13  H2  UNL     1     -12.922  11.898  71.667  1.00  0.00     0.000 HD 
HETATM   14  H   UNL     1      -9.955   6.105  71.904  1.00  0.00     0.000 HD 
HETATM   15  C   UNL     1     -10.854   7.556  70.925  1.00  0.00    -0.240 C  
HETATM   16  H1  UNL     1     -12.561  12.027  70.017  1.00  0.00     0.000 HD 
HETATM   17  C   UNL     1     -12.075   9.429  72.052  1.00  0.00    -0.379 C  
HETATM   18  N   UNL     1     -11.268   7.488  73.346  1.00  0.00    -0.610 NA 
HETATM   19  N   UNL     1     -12.783  11.399  70.789  1.00  0.00    -0.290 NA 
HETATM   20  H1  UNL     1     -11.353   8.038  74.200  1.00  0.00     0.000 HD 
HETATM   21  H2  UNL     1     -10.575   6.745  73.434  1.00  0.00     0.000 HD 
HETATM   22  C   UNL     1     -11.740  10.373  70.891  1.00  0.00    -0.360 C  
HETATM   23  C   UNL     1     -10.982   8.381  72.210  1.00  0.00    -0.361 C  
HETATM   24  C   UNL     1     -11.551   9.608  69.536  1.00  0.00     0.141 C  
BRANCH  24  25
HETATM   25  O   UNL     1     -11.230  10.464  68.407  1.00  0.00    -0.271 OA 
BRANCH  25  26
HETATM   26  C   UNL     1     -10.255  11.489  68.636  1.00  0.00    -0.208 C  
HETATM   27  O   UNL     1      -9.025  11.190  67.973  1.00  0.00    -0.139 OA 
HETATM   28  C   UNL     1      -9.151  11.182  66.543  1.00  0.00    -0.182 C  
HETATM   29  C   UNL     1      -9.491  12.592  66.044  1.00  0.00    -0.135 C  
HETATM   30  H2  UNL     1     -12.026  13.226  69.818  1.00  0.00     0.000 HD 
HETATM   31  C   UNL     1     -10.808  13.037  66.682  1.00  0.00    -0.275 C  
HETATM   32  O   UNL     1      -9.678  12.667  64.623  1.00  0.00    -0.507 OA 
HETATM   33  H1  UNL     1     -12.388  14.225  68.525  1.00  0.00     0.000 HD 
HETATM   34  H   UNL     1      -9.888  13.540  64.314  1.00  0.00     0.000 HD 
HETATM   35  H   UNL     1     -11.890  14.680  66.714  1.00  0.00     0.000 HD 
HETATM   36  N   UNL     1     -12.059  13.300  68.801  1.00  0.00    -0.290 NA 
HETATM   37  O   UNL     1     -11.072  14.403  66.317  1.00  0.00    -0.319 OA 
HETATM   38  C   UNL     1     -10.759  12.905  68.213  1.00  0.00    -0.244 C  
BRANCH  28  39
HETATM   39  C   UNL     1      -7.841  10.617  65.968  1.00  0.00    -0.156 C  
HETATM   40  H2  UNL     1      -6.595  11.400  67.413  1.00  0.00     0.000 HD 
HETATM   41  N   UNL     1      -6.641  11.350  66.396  1.00  0.00    -0.334 NA 
HETATM   42  H1  UNL     1      -5.773  10.975  66.014  1.00  0.00     0.000 HD 
ENDBRANCH  28  39
ENDBRANCH  25  26
ENDBRANCH  24  25
ENDBRANCH  10  11
ENDBRANCH   1  10
BRANCH   5  43
HETATM   43  C   UNL     1     -10.076   4.872  66.712  1.00  0.00    -0.238 C  
HETATM   44  O   UNL     1     -11.325   5.352  66.201  1.00  0.00    -0.735 OA 
HETATM   45  H   UNL     1     -12.015   4.737  66.420  1.00  0.00     0.000 HD 
ENDBRANCH   5  43
TORSDOF 6
ENDMDL
MODEL      137
REMARK 921   NORMALIZED FREE ENERGY PREDICTED BY IDOCK:   -5.08 KCAL/MOL
REMARK 922        TOTAL FREE ENERGY PREDICTED BY IDOCK:   -8.50 KCAL/MOL
REMARK 923 INTER-LIGAND FREE ENERGY PREDICTED BY IDOCK:   -8.10 KCAL/MOL
REMARK 924 INTRA-LIGAND FREE ENERGY PREDICTED BY IDOCK:   -0.40 KCAL/MOL
REMARK 927      BINDING AFFINITY PREDICTED BY RF-SCORE:    0.00 PKD
ROOT
HETATM    1  C   UNL     1     -12.246  13.709  70.344  1.00  0.00    -0.363 C  
HETATM    2  O   UNL     1     -13.790  15.034  72.973  1.00  0.00    -0.478 OA 
HETATM    3  O   UNL     1     -11.924  12.981  71.538  1.00  0.00     0.341 OA 
HETATM    4  H   UNL     1     -14.131  16.386  70.868  1.00  0.00     0.000 HD 
HETATM    5  C   UNL     1     -13.134  12.767  72.289  1.00  0.00    -0.295 C  
HETATM    6  H   UNL     1     -14.335  15.792  72.799  1.00  0.00     0.000 HD 
HETATM    7  C   UNL     1     -14.006  13.983  72.011  1.00  0.00    -0.506 C  
HETATM    8  O   UNL     1     -13.331  15.907  70.687  1.00  0.00    -0.406 OA 
HETATM    9  C   UNL     1     -13.550  14.488  70.639  1.00  0.00     0.117 C  
ENDROOT
BRANCH   1  10
HETATM   10  O   UNL     1     -12.471  12.808  69.256  1.00  0.00     0.019 OA 
BRANCH  10  11
HETATM   11  C   UNL     1     -11.319  12.136  68.675  1.00  0.00    -0.280 C  
HETATM   12  O   UNL     1     -11.993   9.964  69.521  1.00  0.00    -0.463 OA 
HETATM   13  H2  UNL     1      -6.881  12.624  67.356  1.00  0.00     0.000 HD 
HETATM   14  H   UNL     1     -11.736   9.196  70.020  1.00  0.00     0.000 HD 
HETATM   15  C   UNL     1     -10.904  10.896  69.481  1.00  0.00    -0.238 C  
HETATM   16  H1  UNL     1      -7.933  13.924  67.085  1.00  0.00     0.000 HD 
HETATM   17  C   UNL     1      -8.518  11.088  68.743  1.00  0.00    -0.144 C  
HETATM   18  N   UNL     1      -9.375   8.986  69.711  1.00  0.00    -0.164 NA 
HETATM   19  N   UNL     1      -7.697  13.136  67.689  1.00  0.00    -0.153 NA 
HETATM   20  H1  UNL     1      -8.581   8.490  69.306  1.00  0.00     0.000 HD 
HETATM   21  H2  UNL     1     -10.178   8.373  69.856  1.00  0.00     0.000 HD 
HETATM   22  C   UNL     1      -8.874  12.273  67.836  1.00  0.00    -0.178 C  
HETATM   23  C   UNL     1      -9.710  10.150  68.874  1.00  0.00    -0.187 C  
HETATM   24  C   UNL     1     -10.114  13.074  68.360  1.00  0.00    -0.225 C  
BRANCH  24  25
HETATM   25  O   UNL     1     -10.489  14.206  67.529  1.00  0.00    -0.247 OA 
BRANCH  25  26
HETATM   26  C   UNL     1      -9.654  14.472  66.395  1.00  0.00    -0.303 C  
HETATM   27  O   UNL     1     -10.058  13.697  65.264  1.00  0.00    -0.316 OA 
HETATM   28  C   UNL     1     -11.366  14.046  64.788  1.00  0.00    -0.366 C  
HETATM   29  C   UNL     1     -11.357  15.483  64.250  1.00  0.00    -0.155 C  
HETATM   30  H2  UNL     1      -8.373  16.609  67.551  1.00  0.00     0.000 HD 
HETATM   31  C   UNL     1     -10.941  16.428  65.378  1.00  0.00    -0.160 C  
HETATM   32  O   UNL     1     -12.642  15.931  63.791  1.00  0.00    -0.823 OA 
HETATM   33  H1  UNL     1      -9.234  17.882  66.886  1.00  0.00     0.000 HD 
HETATM   34  H   UNL     1     -12.636  16.821  63.458  1.00  0.00     0.000 HD 
HETATM   35  H   UNL     1     -10.552  18.349  65.554  1.00  0.00     0.000 HD 
HETATM   36  N   UNL     1      -9.259  16.893  67.133  1.00  0.00    -0.225 NA 
HETATM   37  O   UNL     1     -10.811  17.762  64.853  1.00  0.00    -0.815 OA 
HETATM   38  C   UNL     1      -9.615  15.986  66.017  1.00  0.00    -0.350 C  
BRANCH  28  39
HETATM   39  C   UNL     1     -11.774  12.993  63.743  1.00  0.00    -0.485 C  
HETATM   40  H2  UNL     1     -13.095  11.967  64.948  1.00  0.00     0.000 HD 
HETATM   41  N   UNL     1     -12.315  11.758  64.326  1.00  0.00    -0.171 NA 
HETATM   42  H1  UNL     1     -12.586  11.060  63.632  1.00  0.00     0.000 HD 
ENDBRANCH  28  39
ENDBRANCH  25  26
ENDBRANCH  24  25
ENDBRANCH  10  11
ENDBRANCH   1  10
BRANCH   5  43
HETATM   43  C   UNL     1     -13.830  11.455  71.904  1.00  0.00     0.443 C  
HETATM   44  O   UNL     1     -13.068  10.347  72.396  1.00  0.00    -0.523 OA 
HETATM   45  H   UNL     1     -13.499   9.535  72.158  1.00  0.00     0.000 HD 
ENDBRANCH   5  43
TORSDOF 6
ENDMDL
MODEL      138
REMARK 921   NORMALIZED FREE ENERGY PREDICTED BY IDOCK:   -5.07 KCAL/MOL
REMARK 922        TOTAL FREE ENERGY PREDICTED BY IDOCK:   -8.49 KCAL/MOL
REMARK 923 INTER-LIGAND FREE ENERGY PREDICTED BY IDOCK:   -8.11 KCAL/MOL
REMARK 924 INTRA-LIGAND FREE ENERGY PREDICTED BY IDOCK:   -0.38 KCAL/MOL
REMARK 927      BINDING AFFINITY PREDICTED BY RF-SCORE:    0.00 PKD
ROOT
HETATM    1  C   UNL     1     -10.553  12.970  65.280  1.00  0.00    -0.304 C  
HETATM    2  O   UNL     1     -12.785  14.493  63.343  1.00  0.00    -0.905 OA 
HETATM    3  O   UNL     1      -9.964  14.102  64.624  1.00  0.00    -0.239 OA 
HETATM    4  H   UNL     1     -13.682  12.365  64.364  1.00  0.00     0.000 HD 
HETATM    5  C   UNL     1     -10.875  15.213  64.711  1.00  0.00    -0.357 C  
HETATM    6  H   UNL     1     -13.654  14.110  63.326  1.00  0.00     0.000 HD 
HETATM    7  C   UNL     1     -12.268  14.600  64.684  1.00  0.00    -0.434 C  
HETATM    8  O   UNL     1     -12.742  12.233  64.388  1.00  0.00    -0.557 OA 
HETATM    9  C   UNL     1     -12.085  13.185  65.240  1.00  0.00    -0.429 C  
ENDROOT
BRANCH   1  10
HETATM   10  O   UNL     1     -10.121  12.902  66.641  1.00  0.00    -0.236 OA 
BRANCH  10  11
HETATM   11  C   UNL     1     -10.862  12.044  67.553  1.00  0.00    -0.241 C  
HETATM   12  O   UNL     1     -12.057  13.910  68.546  1.00  0.00    -0.397 OA 
HETATM   13  H2  UNL     1     -10.790   8.049  69.942  1.00  0.00     0.000 HD 
HETATM   14  H   UNL     1     -12.290  14.359  69.350  1.00  0.00     0.000 HD 
HETATM   15  C   UNL     1     -11.240  12.772  68.853  1.00  0.00    -0.283 C  
HETATM   16  H1  UNL     1     -10.103   8.057  68.393  1.00  0.00     0.000 HD 
HETATM   17  C   UNL     1     -11.273  10.635  70.159  1.00  0.00    -0.378 C  
HETATM   18  N   UNL     1     -12.359  12.669  71.038  1.00  0.00    -0.379 NA 
HETATM   19  N   UNL     1     -10.288   8.593  69.241  1.00  0.00    -0.219 NA 
HETATM   20  H1  UNL     1     -12.897  12.089  71.682  1.00  0.00     0.000 HD 
HETATM   21  H2  UNL     1     -12.831  13.549  70.828  1.00  0.00     0.000 HD 
HETATM   22  C   UNL     1     -10.994   9.828  68.884  1.00  0.00    -0.150 C  
HETATM   23  C   UNL     1     -12.049  11.900  69.821  1.00  0.00    -0.252 C  
HETATM   24  C   UNL     1     -10.202  10.657  67.816  1.00  0.00    -0.180 C  
BRANCH  24  25
HETATM   25  O   UNL     1      -9.917   9.932  66.589  1.00  0.00    -0.194 OA 
BRANCH  25  26
HETATM   26  C   UNL     1      -8.577  10.018  66.089  1.00  0.00    -0.133 C  
HETATM   27  O   UNL     1      -7.760  10.829  66.937  1.00  0.00    -0.118 OA 
HETATM   28  C   UNL     1      -7.579  10.261  68.243  1.00  0.00    -0.091 C  
HETATM   29  C   UNL     1      -6.789   8.950  68.133  1.00  0.00    -0.069 C  
HETATM   30  H2  UNL     1      -8.928   8.090  64.165  1.00  0.00     0.000 HD 
HETATM   31  C   UNL     1      -7.566   7.979  67.244  1.00  0.00    -0.097 C  
HETATM   32  O   UNL     1      -6.598   8.290  69.394  1.00  0.00    -0.040 OA 
HETATM   33  H1  UNL     1      -8.273   6.758  64.938  1.00  0.00     0.000 HD 
HETATM   34  H   UNL     1      -6.108   7.478  69.326  1.00  0.00     0.000 HD 
HETATM   35  H   UNL     1      -7.260   6.190  66.483  1.00  0.00     0.000 HD 
HETATM   36  N   UNL     1      -8.705   7.673  65.068  1.00  0.00     0.073 NA 
HETATM   37  O   UNL     1      -6.777   6.793  67.036  1.00  0.00    -0.055 OA 
HETATM   38  C   UNL     1      -7.916   8.618  65.891  1.00  0.00    -0.105 C  
BRANCH  28  39
HETATM   39  C   UNL     1      -6.898  11.326  69.119  1.00  0.00    -0.109 C  
HETATM   40  H2  UNL     1      -8.544  12.554  69.313  1.00  0.00     0.000 HD 
HETATM   41  N   UNL     1      -7.556  12.639  69.074  1.00  0.00    -0.323 NA 
HETATM   42  H1  UNL     1      -7.105  13.345  69.655  1.00  0.00     0.000 HD 
ENDBRANCH  28  39
ENDBRANCH  25  26
ENDBRANCH  24  25
ENDBRANCH  10  11
ENDBRANCH   1  10
BRANCH   5  43
HETATM   43  C   UNL     1     -10.639  16.059  65.969  1.00  0.00    -0.316 C  
HETATM   44  O   UNL     1     -10.292  17.395  65.588  1.00  0.00    -0.589 OA 
HETATM   45  H   UNL     1     -10.146  17.919  66.366  1.00  0.00     0.000 HD 
ENDBRANCH   5  43
TORSDOF 6
ENDMDL
MODEL      139
REMARK 921   NORMALIZED FREE ENERGY PREDICTED BY IDOCK:   -5.06 KCAL/MOL
REMARK 922        TOTAL FREE ENERGY PREDICTED BY IDOCK:   -8.47 KCAL/MOL
REMARK 923 INTER-LIGAND FREE ENERGY PREDICTED BY IDOCK:   -7.51 KCAL/MOL
REMARK 924 INTRA-LIGAND FREE ENERGY PREDICTED BY IDOCK:   -0.97 KCAL/MOL
REMARK 927      BINDING AFFINITY PREDICTED BY RF-SCORE:    0.00 PKD
ROOT
HETATM    1  C   UNL     1      -8.802  16.686  66.947  1.00  0.00    -0.211 C  
HETATM    2  O   UNL     1     -10.399  19.544  67.525  1.00  0.00    -0.387 OA 
HETATM    3  O   UNL     1      -8.738  17.542  65.797  1.00  0.00    -0.514 OA 
HETATM    4  H   UNL     1     -10.650  17.895  69.421  1.00  0.00     0.000 HD 
HETATM    5  C   UNL     1      -8.419  18.877  66.231  1.00  0.00    -0.256 C  
HETATM    6  H   UNL     1     -10.797  19.635  68.383  1.00  0.00     0.000 HD 
HETATM    7  C   UNL     1      -9.058  19.021  67.605  1.00  0.00    -0.291 C  
HETATM    8  O   UNL     1     -10.446  17.338  68.679  1.00  0.00    -0.335 OA 
HETATM    9  C   UNL     1      -9.133  17.594  68.155  1.00  0.00    -0.276 C  
ENDROOT
BRANCH   1  10
HETATM   10  O   UNL     1      -7.541  16.049  67.166  1.00  0.00    -0.169 OA 
BRANCH  10  11
HETATM   11  C   UNL     1      -7.480  14.965  68.133  1.00  0.00    -0.115 C  
HETATM   12  O   UNL     1      -6.523  16.379  69.858  1.00  0.00    -0.192 OA 
HETATM   13  H2  UNL     1      -7.059  10.361  68.681  1.00  0.00     0.000 HD 
HETATM   14  H   UNL     1      -5.815  16.495  70.482  1.00  0.00     0.000 HD 
HETATM   15  C   UNL     1      -6.335  15.152  69.142  1.00  0.00    -0.109 C  
HETATM   16  H1  UNL     1      -7.980  10.920  67.374  1.00  0.00     0.000 HD 
HETATM   17  C   UNL     1      -6.121  12.684  69.511  1.00  0.00    -0.119 C  
HETATM   18  N   UNL     1      -5.140  14.289  71.108  1.00  0.00    -0.118 NA 
HETATM   19  N   UNL     1      -7.181  11.095  67.984  1.00  0.00    -0.077 NA 
HETATM   20  H1  UNL     1      -5.094  13.548  71.806  1.00  0.00     0.000 HD 
HETATM   21  H2  UNL     1      -5.190  15.215  71.533  1.00  0.00     0.000 HD 
HETATM   22  C   UNL     1      -7.321  12.422  68.592  1.00  0.00    -0.102 C  
HETATM   23  C   UNL     1      -6.266  14.037  70.192  1.00  0.00    -0.138 C  
HETATM   24  C   UNL     1      -7.495  13.538  67.506  1.00  0.00    -0.167 C  
BRANCH  24  25
HETATM   25  O   UNL     1      -8.623  13.332  66.613  1.00  0.00    -0.088 OA 
BRANCH  25  26
HETATM   26  C   UNL     1      -9.508  12.251  66.937  1.00  0.00    -0.217 C  
HETATM   27  O   UNL     1     -10.407  12.617  67.986  1.00  0.00    -0.215 OA 
HETATM   28  C   UNL     1     -11.309  13.666  67.606  1.00  0.00    -0.300 C  
HETATM   29  C   UNL     1     -12.242  13.171  66.493  1.00  0.00    -0.291 C  
HETATM   30  H2  UNL     1      -8.767  10.701  64.794  1.00  0.00     0.000 HD 
HETATM   31  C   UNL     1     -11.395  12.748  65.292  1.00  0.00    -0.303 C  
HETATM   32  O   UNL     1     -13.153  14.175  66.021  1.00  0.00    -0.461 OA 
HETATM   33  H1  UNL     1     -10.004  11.046  63.721  1.00  0.00     0.000 HD 
HETATM   34  H   UNL     1     -13.731  13.868  65.332  1.00  0.00     0.000 HD 
HETATM   35  H   UNL     1     -11.725  11.906  63.545  1.00  0.00     0.000 HD 
HETATM   36  N   UNL     1      -9.479  11.381  64.528  1.00  0.00    -0.184 NA 
HETATM   37  O   UNL     1     -12.251  12.169  64.291  1.00  0.00    -0.397 OA 
HETATM   38  C   UNL     1     -10.311  11.739  65.701  1.00  0.00    -0.252 C  
BRANCH  28  39
HETATM   39  C   UNL     1     -12.045  14.125  68.877  1.00  0.00    -0.304 C  
HETATM   40  H2  UNL     1     -13.056  15.697  68.005  1.00  0.00     0.000 HD 
HETATM   41  N   UNL     1     -12.486  15.526  68.832  1.00  0.00    -0.500 NA 
HETATM   42  H1  UNL     1     -12.974  15.830  69.675  1.00  0.00     0.000 HD 
ENDBRANCH  28  39
ENDBRANCH  25  26
ENDBRANCH  24  25
ENDBRANCH  10  11
ENDBRANCH   1  10
BRANCH   5  43
HETATM   43  C   UNL     1      -6.906  19.129  66.267  1.00  0.00    -0.217 C  
HETATM   44  O   UNL     1      -6.577  19.898  67.429  1.00  0.00    -0.201 OA 
HETATM   45  H   UNL     1      -5.641  20.054  67.451  1.00  0.00     0.000 HD 
ENDBRANCH   5  43
TORSDOF 6
ENDMDL
MODEL      140
REMARK 921   NORMALIZED FREE ENERGY PREDICTED BY IDOCK:   -5.04 KCAL/MOL
REMARK 922        TOTAL FREE ENERGY PREDICTED BY IDOCK:   -8.46 KCAL/MOL
REMARK 923 INTER-LIGAND FREE ENERGY PREDICTED BY IDOCK:   -8.59 KCAL/MOL
REMARK 924 INTRA-LIGAND FREE ENERGY PREDICTED BY IDOCK:    0.13 KCAL/MOL
REMARK 927      BINDING AFFINITY PREDICTED BY RF-SCORE:    0.00 PKD
ROOT
HETATM    1  C   UNL     1     -11.499  14.913  66.750  1.00  0.00    -0.301 C  
HETATM    2  O   UNL     1     -12.363  16.215  63.816  1.00  0.00    -1.147 OA 
HETATM    3  O   UNL     1     -12.829  14.511  66.391  1.00  0.00    -0.014 OA 
HETATM    4  H   UNL     1     -10.120  17.050  64.622  1.00  0.00     0.000 HD 
HETATM    5  C   UNL     1     -12.835  14.118  65.006  1.00  0.00    -0.221 C  
HETATM    6  H   UNL     1     -11.711  16.763  63.393  1.00  0.00     0.000 HD 
HETATM    7  C   UNL     1     -11.792  14.996  64.330  1.00  0.00    -0.275 C  
HETATM    8  O   UNL     1     -10.546  16.774  65.424  1.00  0.00    -0.563 OA 
HETATM    9  C   UNL     1     -10.805  15.361  65.442  1.00  0.00    -0.391 C  
ENDROOT
BRANCH   1  10
HETATM   10  O   UNL     1     -10.780  13.813  67.313  1.00  0.00    -0.279 OA 
BRANCH  10  11
HETATM   11  C   UNL     1      -9.499  14.084  67.946  1.00  0.00    -0.210 C  
HETATM   12  O   UNL     1     -10.225  16.239  68.797  1.00  0.00    -0.225 OA 
HETATM   13  H2  UNL     1      -4.913  13.302  67.767  1.00  0.00     0.000 HD 
HETATM   14  H   UNL     1     -10.040  17.170  68.849  1.00  0.00     0.000 HD 
HETATM   15  C   UNL     1      -9.201  15.589  68.031  1.00  0.00    -0.187 C  
HETATM   16  H1  UNL     1      -5.949  12.023  67.366  1.00  0.00     0.000 HD 
HETATM   17  C   UNL     1      -6.726  15.205  68.000  1.00  0.00    -0.153 C  
HETATM   18  N   UNL     1      -7.660  17.363  68.750  1.00  0.00    -0.258 NA 
HETATM   19  N   UNL     1      -5.806  13.033  67.356  1.00  0.00    -0.325 NA 
HETATM   20  H1  UNL     1      -6.774  17.573  69.209  1.00  0.00     0.000 HD 
HETATM   21  H2  UNL     1      -8.442  17.855  69.181  1.00  0.00     0.000 HD 
HETATM   22  C   UNL     1      -6.942  13.687  68.015  1.00  0.00    -0.135 C  
HETATM   23  C   UNL     1      -7.869  15.905  68.721  1.00  0.00    -0.185 C  
HETATM   24  C   UNL     1      -8.305  13.271  67.361  1.00  0.00    -0.192 C  
BRANCH  24  25
HETATM   25  O   UNL     1      -8.552  11.839  67.356  1.00  0.00    -0.148 OA 
BRANCH  25  26
HETATM   26  C   UNL     1      -9.586  11.370  66.481  1.00  0.00    -0.198 C  
HETATM   27  O   UNL     1      -9.036  10.766  65.308  1.00  0.00    -0.185 OA 
HETATM   28  C   UNL     1      -8.292   9.573  65.593  1.00  0.00    -0.126 C  
HETATM   29  C   UNL     1      -9.233   8.493  66.143  1.00  0.00    -0.211 C  
HETATM   30  H2  UNL     1     -11.613  11.778  68.289  1.00  0.00     0.000 HD 
HETATM   31  C   UNL     1      -9.892   9.016  67.420  1.00  0.00    -0.190 C  
HETATM   32  O   UNL     1      -8.562   7.274  66.496  1.00  0.00    -0.121 OA 
HETATM   33  H1  UNL     1     -11.795  10.232  68.904  1.00  0.00     0.000 HD 
HETATM   34  H   UNL     1      -9.145   6.605  66.836  1.00  0.00     0.000 HD 
HETATM   35  H   UNL     1     -11.276   8.386  68.668  1.00  0.00     0.000 HD 
HETATM   36  N   UNL     1     -11.155  10.881  68.446  1.00  0.00    -0.240 NA 
HETATM   37  O   UNL     1     -10.867   8.060  67.874  1.00  0.00    -0.118 OA 
HETATM   38  C   UNL     1     -10.564  10.378  67.184  1.00  0.00    -0.261 C  
BRANCH  28  39
HETATM   39  C   UNL     1      -7.562   9.164  64.301  1.00  0.00    -0.115 C  
HETATM   40  H2  UNL     1      -9.247   8.607  63.250  1.00  0.00     0.000 HD 
HETATM   41  N   UNL     1      -8.323   8.229  63.462  1.00  0.00    -0.368 NA 
HETATM   42  H1  UNL     1      -7.840   7.959  62.605  1.00  0.00     0.000 HD 
ENDBRANCH  28  39
ENDBRANCH  25  26
ENDBRANCH  24  25
ENDBRANCH  10  11
ENDBRANCH   1  10
BRANCH   5  43
HETATM   43  C   UNL     1     -12.539  12.623  64.827  1.00  0.00    -0.454 C  
HETATM   44  O   UNL     1     -12.952  12.208  63.520  1.00  0.00    -0.794 OA 
HETATM   45  H   UNL     1     -12.769  11.283  63.409  1.00  0.00     0.000 HD 
ENDBRANCH   5  43
TORSDOF 6
ENDMDL
MODEL      141
REMARK 921   NORMALIZED FREE ENERGY PREDICTED BY IDOCK:   -5.04 KCAL/MOL
REMARK 922        TOTAL FREE ENERGY PREDICTED BY IDOCK:   -8.45 KCAL/MOL
REMARK 923 INTER-LIGAND FREE ENERGY PREDICTED BY IDOCK:   -6.96 KCAL/MOL
REMARK 924 INTRA-LIGAND FREE ENERGY PREDICTED BY IDOCK:   -1.49 KCAL/MOL
REMARK 927      BINDING AFFINITY PREDICTED BY RF-SCORE:    0.00 PKD
ROOT
HETATM    1  C   UNL     1      -9.950  12.676  65.712  1.00  0.00    -0.256 C  
HETATM    2  O   UNL     1     -11.705  11.906  62.995  1.00  0.00    -0.685 OA 
HETATM    3  O   UNL     1     -10.457  13.863  65.085  1.00  0.00    -0.346 OA 
HETATM    4  H   UNL     1     -10.597   9.890  64.035  1.00  0.00     0.000 HD 
HETATM    5  C   UNL     1     -11.834  13.645  64.727  1.00  0.00    -0.387 C  
HETATM    6  H   UNL     1     -11.770  10.981  62.788  1.00  0.00     0.000 HD 
HETATM    7  C   UNL     1     -11.938  12.164  64.394  1.00  0.00    -0.361 C  
HETATM    8  O   UNL     1     -10.067  10.611  64.352  1.00  0.00    -0.325 OA 
HETATM    9  C   UNL     1     -10.814  11.501  65.196  1.00  0.00    -0.265 C  
ENDROOT
BRANCH   1  10
HETATM   10  O   UNL     1     -10.078  12.769  67.133  1.00  0.00    -0.230 OA 
BRANCH  10  11
HETATM   11  C   UNL     1      -8.921  13.207  67.898  1.00  0.00    -0.200 C  
HETATM   12  O   UNL     1      -9.054  15.478  67.051  1.00  0.00    -0.208 OA 
HETATM   13  H2  UNL     1      -4.889  11.882  69.812  1.00  0.00     0.000 HD 
HETATM   14  H   UNL     1      -8.591  16.190  66.625  1.00  0.00     0.000 HD 
HETATM   15  C   UNL     1      -8.172  14.358  67.208  1.00  0.00    -0.203 C  
HETATM   16  H1  UNL     1      -6.190  10.798  69.879  1.00  0.00     0.000 HD 
HETATM   17  C   UNL     1      -5.997  13.714  68.269  1.00  0.00    -0.106 C  
HETATM   18  N   UNL     1      -6.303  15.952  67.274  1.00  0.00    -0.284 NA 
HETATM   19  N   UNL     1      -5.728  11.536  69.346  1.00  0.00    -0.055 NA 
HETATM   20  H1  UNL     1      -5.500  16.285  67.806  1.00  0.00     0.000 HD 
HETATM   21  H2  UNL     1      -6.950  16.706  67.041  1.00  0.00     0.000 HD 
HETATM   22  C   UNL     1      -6.692  12.605  69.069  1.00  0.00    -0.097 C  
HETATM   23  C   UNL     1      -6.964  14.860  68.008  1.00  0.00    -0.140 C  
HETATM   24  C   UNL     1      -7.968  12.057  68.342  1.00  0.00    -0.152 C  
BRANCH  24  25
HETATM   25  O   UNL     1      -8.661  11.004  69.066  1.00  0.00    -0.146 OA 
BRANCH  25  26
HETATM   26  C   UNL     1      -9.550  10.178  68.303  1.00  0.00    -0.141 C  
HETATM   27  O   UNL     1      -8.837   9.140  67.627  1.00  0.00    -0.120 OA 
HETATM   28  C   UNL     1      -8.227   8.205  68.528  1.00  0.00    -0.125 C  
HETATM   29  C   UNL     1      -9.313   7.447  69.304  1.00  0.00    -0.154 C  
HETATM   30  H2  UNL     1     -11.837  11.279  69.351  1.00  0.00     0.000 HD 
HETATM   31  C   UNL     1     -10.155   8.455  70.086  1.00  0.00    -0.191 C  
HETATM   32  O   UNL     1      -8.788   6.517  70.263  1.00  0.00    -0.148 OA 
HETATM   33  H1  UNL     1     -12.216  10.148  70.525  1.00  0.00     0.000 HD 
HETATM   34  H   UNL     1      -9.460   6.048  70.743  1.00  0.00     0.000 HD 
HETATM   35  H   UNL     1     -11.773   8.394  71.204  1.00  0.00     0.000 HD 
HETATM   36  N   UNL     1     -11.468  10.549  69.959  1.00  0.00    -0.292 NA 
HETATM   37  O   UNL     1     -11.250   7.767  70.718  1.00  0.00    -0.265 OA 
HETATM   38  C   UNL     1     -10.694   9.564  69.169  1.00  0.00    -0.210 C  
BRANCH  28  39
HETATM   39  C   UNL     1      -7.306   7.296  67.697  1.00  0.00    -0.093 C  
HETATM   40  H2  UNL     1      -8.804   6.157  66.853  1.00  0.00     0.000 HD 
HETATM   41  N   UNL     1      -7.915   6.010  67.332  1.00  0.00    -0.102 NA 
HETATM   42  H1  UNL     1      -7.304   5.407  66.780  1.00  0.00     0.000 HD 
ENDBRANCH  28  39
ENDBRANCH  25  26
ENDBRANCH  24  25
ENDBRANCH  10  11
ENDBRANCH   1  10
BRANCH   5  43
HETATM   43  C   UNL     1     -12.797  14.056  65.849  1.00  0.00    -0.311 C  
HETATM   44  O   UNL     1     -12.084  14.804  66.840  1.00  0.00    -0.367 OA 
HETATM   45  H   UNL     1     -12.680  15.058  67.534  1.00  0.00     0.000 HD 
ENDBRANCH   5  43
TORSDOF 6
ENDMDL
MODEL      142
REMARK 921   NORMALIZED FREE ENERGY PREDICTED BY IDOCK:   -5.03 KCAL/MOL
REMARK 922        TOTAL FREE ENERGY PREDICTED BY IDOCK:   -8.44 KCAL/MOL
REMARK 923 INTER-LIGAND FREE ENERGY PREDICTED BY IDOCK:   -6.88 KCAL/MOL
REMARK 924 INTRA-LIGAND FREE ENERGY PREDICTED BY IDOCK:   -1.56 KCAL/MOL
REMARK 927      BINDING AFFINITY PREDICTED BY RF-SCORE:    0.00 PKD
ROOT
HETATM    1  C   UNL     1     -10.442  10.990  67.514  1.00  0.00    -0.209 C  
HETATM    2  O   UNL     1      -9.838  13.048  64.974  1.00  0.00    -0.499 OA 
HETATM    3  O   UNL     1      -9.193  10.665  66.887  1.00  0.00    -0.154 OA 
HETATM    4  H   UNL     1     -12.118  13.414  65.995  1.00  0.00     0.000 HD 
HETATM    5  C   UNL     1      -8.465  11.883  66.647  1.00  0.00    -0.143 C  
HETATM    6  H   UNL     1     -10.498  13.710  64.806  1.00  0.00     0.000 HD 
HETATM    7  C   UNL     1      -9.524  12.943  66.376  1.00  0.00    -0.226 C  
HETATM    8  O   UNL     1     -11.914  12.520  66.242  1.00  0.00    -0.508 OA 
HETATM    9  C   UNL     1     -10.772  12.446  67.111  1.00  0.00    -0.235 C  
ENDROOT
BRANCH   1  10
HETATM   10  O   UNL     1     -10.322  10.909  68.936  1.00  0.00    -0.188 OA 
BRANCH  10  11
HETATM   11  C   UNL     1     -11.470  10.439  69.695  1.00  0.00    -0.262 C  
HETATM   12  O   UNL     1     -12.373  12.676  69.968  1.00  0.00    -0.208 OA 
HETATM   13  H2  UNL     1     -13.047   7.142  72.579  1.00  0.00     0.000 HD 
HETATM   14  H   UNL     1     -12.690  13.330  70.580  1.00  0.00     0.000 HD 
HETATM   15  C   UNL     1     -11.983  11.497  70.685  1.00  0.00    -0.292 C  
HETATM   16  H1  UNL     1     -11.995   6.669  71.337  1.00  0.00     0.000 HD 
HETATM   17  C   UNL     1     -12.900   9.754  72.231  1.00  0.00    -0.379 C  
HETATM   18  N   UNL     1     -13.630  12.105  72.405  1.00  0.00    -0.518 NA 
HETATM   19  N   UNL     1     -12.257   7.407  71.992  1.00  0.00    -0.295 NA 
HETATM   20  H1  UNL     1     -14.447  11.800  72.932  1.00  0.00     0.000 HD 
HETATM   21  H2  UNL     1     -13.790  12.991  71.925  1.00  0.00     0.000 HD 
HETATM   22  C   UNL     1     -12.507   8.645  71.247  1.00  0.00    -0.252 C  
HETATM   23  C   UNL     1     -13.212  11.039  71.478  1.00  0.00    -0.299 C  
HETATM   24  C   UNL     1     -11.276   9.043  70.361  1.00  0.00    -0.241 C  
BRANCH  24  25
HETATM   25  O   UNL     1     -10.870   8.022  69.411  1.00  0.00    -0.199 OA 
BRANCH  25  26
HETATM   26  C   UNL     1      -9.817   7.142  69.827  1.00  0.00    -0.173 C  
HETATM   27  O   UNL     1      -9.963   5.848  69.236  1.00  0.00    -0.154 OA 
HETATM   28  C   UNL     1      -9.818   5.868  67.808  1.00  0.00    -0.124 C  
HETATM   29  C   UNL     1      -8.384   6.271  67.437  1.00  0.00    -0.109 C  
HETATM   30  H2  UNL     1      -8.340   9.113  71.041  1.00  0.00     0.000 HD 
HETATM   31  C   UNL     1      -8.098   7.659  68.012  1.00  0.00    -0.123 C  
HETATM   32  O   UNL     1      -8.162   6.359  66.022  1.00  0.00    -0.114 OA 
HETATM   33  H1  UNL     1      -7.226   9.450  69.839  1.00  0.00     0.000 HD 
HETATM   34  H   UNL     1      -7.275   6.608  65.792  1.00  0.00     0.000 HD 
HETATM   35  H   UNL     1      -6.540   8.855  68.133  1.00  0.00     0.000 HD 
HETATM   36  N   UNL     1      -8.154   9.077  70.040  1.00  0.00    -0.111 NA 
HETATM   37  O   UNL     1      -6.718   7.993  67.775  1.00  0.00    -0.065 OA 
HETATM   38  C   UNL     1      -8.398   7.712  69.519  1.00  0.00    -0.130 C  
BRANCH  28  39
HETATM   39  C   UNL     1     -10.231   4.483  67.282  1.00  0.00    -0.017 C  
HETATM   40  H2  UNL     1      -9.677   4.804  65.322  1.00  0.00     0.000 HD 
HETATM   41  N   UNL     1     -10.484   4.450  65.836  1.00  0.00    -0.465 NA 
HETATM   42  H1  UNL     1     -10.758   3.531  65.487  1.00  0.00     0.000 HD 
ENDBRANCH  28  39
ENDBRANCH  25  26
ENDBRANCH  24  25
ENDBRANCH  10  11
ENDBRANCH   1  10
BRANCH   5  43
HETATM   43  C   UNL     1      -7.558  12.258  67.826  1.00  0.00    -0.131 C  
HETATM   44  O   UNL     1      -6.681  11.165  68.121  1.00  0.00    -0.058 OA 
HETATM   45  H   UNL     1      -6.120  11.398  68.851  1.00  0.00     0.000 HD 
ENDBRANCH   5  43
TORSDOF 6
ENDMDL
MODEL      143
REMARK 921   NORMALIZED FREE ENERGY PREDICTED BY IDOCK:   -5.00 KCAL/MOL
REMARK 922        TOTAL FREE ENERGY PREDICTED BY IDOCK:   -8.40 KCAL/MOL
REMARK 923 INTER-LIGAND FREE ENERGY PREDICTED BY IDOCK:   -7.33 KCAL/MOL
REMARK 924 INTRA-LIGAND FREE ENERGY PREDICTED BY IDOCK:   -1.07 KCAL/MOL
REMARK 927      BINDING AFFINITY PREDICTED BY RF-SCORE:    0.00 PKD
ROOT
HETATM    1  C   UNL     1      -7.708   8.008  67.640  1.00  0.00    -0.110 C  
HETATM    2  O   UNL     1      -8.129   4.714  67.500  1.00  0.00    -0.100 OA 
HETATM    3  O   UNL     1      -8.297   7.628  66.389  1.00  0.00    -0.117 OA 
HETATM    4  H   UNL     1      -6.897   5.444  69.579  1.00  0.00     0.000 HD 
HETATM    5  C   UNL     1      -9.343   6.671  66.642  1.00  0.00    -0.163 C  
HETATM    6  H   UNL     1      -7.845   4.223  68.262  1.00  0.00     0.000 HD 
HETATM    7  C   UNL     1      -8.887   5.885  67.863  1.00  0.00    -0.105 C  
HETATM    8  O   UNL     1      -6.743   6.162  68.977  1.00  0.00    -0.055 OA 
HETATM    9  C   UNL     1      -7.959   6.839  68.621  1.00  0.00    -0.119 C  
ENDROOT
BRANCH   1  10
HETATM   10  O   UNL     1      -8.330   9.192  68.145  1.00  0.00    -0.119 OA 
BRANCH  10  11
HETATM   11  C   UNL     1      -7.540  10.411  68.204  1.00  0.00    -0.091 C  
HETATM   12  O   UNL     1      -6.217   9.621  70.080  1.00  0.00    -0.046 OA 
HETATM   13  H2  UNL     1      -7.521  14.990  67.364  1.00  0.00     0.000 HD 
HETATM   14  H   UNL     1      -5.905   9.805  70.958  1.00  0.00     0.000 HD 
HETATM   15  C   UNL     1      -7.035  10.707  69.625  1.00  0.00    -0.134 C  
HETATM   16  H1  UNL     1      -8.334  13.988  66.266  1.00  0.00     0.000 HD 
HETATM   17  C   UNL     1      -6.952  13.173  69.191  1.00  0.00    -0.028 C  
HETATM   18  N   UNL     1      -5.742  12.185  71.102  1.00  0.00    -0.459 NA 
HETATM   19  N   UNL     1      -8.064  14.137  67.238  1.00  0.00    -0.188 NA 
HETATM   20  H1  UNL     1      -5.169  13.027  71.158  1.00  0.00     0.000 HD 
HETATM   21  H2  UNL     1      -5.266  11.369  71.486  1.00  0.00     0.000 HD 
HETATM   22  C   UNL     1      -7.357  12.949  67.728  1.00  0.00    -0.134 C  
HETATM   23  C   UNL     1      -6.173  11.972  69.710  1.00  0.00    -0.136 C  
HETATM   24  C   UNL     1      -8.213  11.650  67.539  1.00  0.00    -0.148 C  
BRANCH  24  25
HETATM   25  O   UNL     1      -8.618  11.397  66.166  1.00  0.00    -0.177 OA 
BRANCH  25  26
HETATM   26  C   UNL     1      -9.920  10.831  65.975  1.00  0.00    -0.242 C  
HETATM   27  O   UNL     1     -10.823  11.256  66.999  1.00  0.00    -0.253 OA 
HETATM   28  C   UNL     1     -11.080  12.668  66.963  1.00  0.00    -0.281 C  
HETATM   29  C   UNL     1     -11.815  13.030  65.666  1.00  0.00    -0.399 C  
HETATM   30  H2  UNL     1      -9.366   9.820  63.482  1.00  0.00     0.000 HD 
HETATM   31  C   UNL     1     -10.942  12.626  64.476  1.00  0.00    -0.332 C  
HETATM   32  O   UNL     1     -12.074  14.435  65.527  1.00  0.00    -0.375 OA 
HETATM   33  H1  UNL     1     -10.029  11.011  62.511  1.00  0.00     0.000 HD 
HETATM   34  H   UNL     1     -12.529  14.658  64.724  1.00  0.00     0.000 HD 
HETATM   35  H   UNL     1     -11.132  12.597  62.518  1.00  0.00     0.000 HD 
HETATM   36  N   UNL     1      -9.639  10.801  63.430  1.00  0.00    -0.306 NA 
HETATM   37  O   UNL     1     -11.674  12.849  63.257  1.00  0.00    -0.521 OA 
HETATM   38  C   UNL     1     -10.517  11.152  64.570  1.00  0.00    -0.350 C  
BRANCH  28  39
HETATM   39  C   UNL     1     -11.858  13.028  68.241  1.00  0.00    -0.343 C  
HETATM   40  H2  UNL     1     -12.511  14.876  67.601  1.00  0.00     0.000 HD 
HETATM   41  N   UNL     1     -12.062  14.471  68.422  1.00  0.00    -0.578 NA 
HETATM   42  H1  UNL     1     -12.579  14.710  69.269  1.00  0.00     0.000 HD 
ENDBRANCH  28  39
ENDBRANCH  25  26
ENDBRANCH  24  25
ENDBRANCH  10  11
ENDBRANCH   1  10
BRANCH   5  43
HETATM   43  C   UNL     1     -10.704   7.344  66.863  1.00  0.00    -0.254 C  
HETATM   44  O   UNL     1     -11.544   6.481  67.636  1.00  0.00    -0.670 OA 
HETATM   45  H   UNL     1     -12.387   6.897  67.773  1.00  0.00     0.000 HD 
ENDBRANCH   5  43
TORSDOF 6
ENDMDL
MODEL      144
REMARK 921   NORMALIZED FREE ENERGY PREDICTED BY IDOCK:   -5.00 KCAL/MOL
REMARK 922        TOTAL FREE ENERGY PREDICTED BY IDOCK:   -8.40 KCAL/MOL
REMARK 923 INTER-LIGAND FREE ENERGY PREDICTED BY IDOCK:   -8.01 KCAL/MOL
REMARK 924 INTRA-LIGAND FREE ENERGY PREDICTED BY IDOCK:   -0.39 KCAL/MOL
REMARK 927      BINDING AFFINITY PREDICTED BY RF-SCORE:    0.00 PKD
ROOT
HETATM    1  C   UNL     1     -10.564  11.139  66.814  1.00  0.00    -0.263 C  
HETATM    2  O   UNL     1      -7.574   9.701  66.605  1.00  0.00    -0.097 OA 
HETATM    3  O   UNL     1     -10.561  10.127  65.798  1.00  0.00    -0.115 OA 
HETATM    4  H   UNL     1      -7.603  11.641  68.220  1.00  0.00     0.000 HD 
HETATM    5  C   UNL     1      -9.898   8.957  66.312  1.00  0.00    -0.285 C  
HETATM    6  H   UNL     1      -6.911  10.027  67.201  1.00  0.00     0.000 HD 
HETATM    7  C   UNL     1      -8.835   9.479  67.267  1.00  0.00    -0.128 C  
HETATM    8  O   UNL     1      -8.338  11.829  67.647  1.00  0.00    -0.133 OA 
HETATM    9  C   UNL     1      -9.368  10.832  67.746  1.00  0.00    -0.152 C  
ENDROOT
BRANCH   1  10
HETATM   10  O   UNL     1     -11.777  11.084  67.569  1.00  0.00    -0.565 OA 
BRANCH  10  11
HETATM   11  C   UNL     1     -11.730  11.472  68.970  1.00  0.00    -0.335 C  
HETATM   12  O   UNL     1     -11.174   9.227  69.709  1.00  0.00    -0.375 OA 
HETATM   13  H2  UNL     1     -13.388  14.417  72.172  1.00  0.00     0.000 HD 
HETATM   14  H   UNL     1     -11.400   8.508  70.288  1.00  0.00     0.000 HD 
HETATM   15  C   UNL     1     -12.096  10.308  69.905  1.00  0.00    -0.108 C  
HETATM   16  H1  UNL     1     -13.091  15.024  70.618  1.00  0.00     0.000 HD 
HETATM   17  C   UNL     1     -12.939  11.864  71.678  1.00  0.00    -0.447 C  
HETATM   18  N   UNL     1     -12.398   9.516  72.212  1.00  0.00    -0.250 NA 
HETATM   19  N   UNL     1     -13.376  14.216  71.172  1.00  0.00    -0.304 NA 
HETATM   20  H1  UNL     1     -12.352   9.764  73.199  1.00  0.00     0.000 HD 
HETATM   21  H2  UNL     1     -11.833   8.695  71.994  1.00  0.00     0.000 HD 
HETATM   22  C   UNL     1     -12.511  13.078  70.844  1.00  0.00    -0.310 C  
HETATM   23  C   UNL     1     -12.026  10.681  71.391  1.00  0.00    -0.164 C  
HETATM   24  C   UNL     1     -12.515  12.776  69.306  1.00  0.00     0.322 C  
BRANCH  24  25
HETATM   25  O   UNL     1     -12.113  13.900  68.477  1.00  0.00    -0.362 OA 
BRANCH  25  26
HETATM   26  C   UNL     1     -10.704  14.093  68.297  1.00  0.00    -0.249 C  
HETATM   27  O   UNL     1     -10.368  14.185  66.911  1.00  0.00    -0.265 OA 
HETATM   28  C   UNL     1     -10.933  15.341  66.276  1.00  0.00    -0.300 C  
HETATM   29  C   UNL     1     -10.321  16.614  66.876  1.00  0.00    -0.299 C  
HETATM   30  H2  UNL     1     -10.193  14.525  70.961  1.00  0.00     0.000 HD 
HETATM   31  C   UNL     1     -10.618  16.643  68.376  1.00  0.00    -0.343 C  
HETATM   32  O   UNL     1     -10.863  17.824  66.326  1.00  0.00    -0.164 OA 
HETATM   33  H1  UNL     1     -10.151  16.198  71.001  1.00  0.00     0.000 HD 
HETATM   34  H   UNL     1     -10.485  18.612  66.698  1.00  0.00     0.000 HD 
HETATM   35  H   UNL     1     -10.128  17.787  69.901  1.00  0.00     0.000 HD 
HETATM   36  N   UNL     1     -10.504  15.381  70.502  1.00  0.00    -0.220 NA 
HETATM   37  O   UNL     1      -9.944  17.769  68.969  1.00  0.00    -0.327 OA 
HETATM   38  C   UNL     1     -10.165  15.343  69.060  1.00  0.00    -0.233 C  
BRANCH  28  39
HETATM   39  C   UNL     1     -10.704  15.194  64.762  1.00  0.00    -0.319 C  
HETATM   40  H2  UNL     1     -12.032  16.662  64.183  1.00  0.00     0.000 HD 
HETATM   41  N   UNL     1     -11.817  15.695  63.943  1.00  0.00    -1.007 NA 
HETATM   42  H1  UNL     1     -11.664  15.598  62.939  1.00  0.00     0.000 HD 
ENDBRANCH  28  39
ENDBRANCH  25  26
ENDBRANCH  24  25
ENDBRANCH  10  11
ENDBRANCH   1  10
BRANCH   5  43
HETATM   43  C   UNL     1     -10.873   7.993  67.001  1.00  0.00    -0.042 C  
HETATM   44  O   UNL     1     -10.169   7.218  67.977  1.00  0.00    -0.169 OA 
HETATM   45  H   UNL     1     -10.772   6.622  68.404  1.00  0.00     0.000 HD 
ENDBRANCH   5  43
TORSDOF 6
ENDMDL
MODEL      145
REMARK 921   NORMALIZED FREE ENERGY PREDICTED BY IDOCK:   -4.99 KCAL/MOL
REMARK 922        TOTAL FREE ENERGY PREDICTED BY IDOCK:   -8.39 KCAL/MOL
REMARK 923 INTER-LIGAND FREE ENERGY PREDICTED BY IDOCK:   -7.12 KCAL/MOL
REMARK 924 INTRA-LIGAND FREE ENERGY PREDICTED BY IDOCK:   -1.26 KCAL/MOL
REMARK 927      BINDING AFFINITY PREDICTED BY RF-SCORE:    0.00 PKD
ROOT
HETATM    1  C   UNL     1      -9.374   9.636  70.152  1.00  0.00    -0.251 C  
HETATM    2  O   UNL     1     -12.119   8.928  71.888  1.00  0.00    -0.325 OA 
HETATM    3  O   UNL     1      -9.054   9.416  71.533  1.00  0.00    -0.275 OA 
HETATM    4  H   UNL     1     -12.622   9.543  69.492  1.00  0.00     0.000 HD 
HETATM    5  C   UNL     1      -9.759   8.247  71.990  1.00  0.00    -0.252 C  
HETATM    6  H   UNL     1     -12.932   8.914  71.398  1.00  0.00     0.000 HD 
HETATM    7  C   UNL     1     -11.063   8.225  71.204  1.00  0.00    -0.250 C  
HETATM    8  O   UNL     1     -11.776   9.948  69.643  1.00  0.00    -0.115 OA 
HETATM    9  C   UNL     1     -10.751   8.976  69.906  1.00  0.00    -0.229 C  
ENDROOT
BRANCH   1  10
HETATM   10  O   UNL     1      -8.397   9.019  69.309  1.00  0.00    -0.117 OA 
BRANCH  10  11
HETATM   11  C   UNL     1      -8.842   8.453  68.045  1.00  0.00    -0.142 C  
HETATM   12  O   UNL     1      -8.356   6.179  68.741  1.00  0.00    -0.110 OA 
HETATM   13  H2  UNL     1      -9.329   9.224  63.480  1.00  0.00     0.000 HD 
HETATM   14  H   UNL     1      -7.905   5.369  68.532  1.00  0.00     0.000 HD 
HETATM   15  C   UNL     1      -8.112   7.143  67.708  1.00  0.00    -0.115 C  
HETATM   16  H1  UNL     1      -9.636  10.512  64.536  1.00  0.00     0.000 HD 
HETATM   17  C   UNL     1      -8.410   7.492  65.246  1.00  0.00    -0.112 C  
HETATM   18  N   UNL     1      -7.829   5.268  66.146  1.00  0.00    -0.102 NA 
HETATM   19  N   UNL     1      -9.088   9.670  64.364  1.00  0.00    -0.243 NA 
HETATM   20  H1  UNL     1      -8.142   4.846  65.272  1.00  0.00     0.000 HD 
HETATM   21  H2  UNL     1      -7.887   4.618  66.929  1.00  0.00     0.000 HD 
HETATM   22  C   UNL     1      -9.234   8.759  65.505  1.00  0.00    -0.137 C  
HETATM   23  C   UNL     1      -8.583   6.508  66.395  1.00  0.00    -0.136 C  
HETATM   24  C   UNL     1      -8.846   9.457  66.853  1.00  0.00    -0.127 C  
BRANCH  24  25
HETATM   25  O   UNL     1      -9.605  10.663  67.141  1.00  0.00    -0.161 OA 
BRANCH  25  26
HETATM   26  C   UNL     1      -9.193  11.857  66.464  1.00  0.00    -0.214 C  
HETATM   27  O   UNL     1     -10.204  12.317  65.564  1.00  0.00    -0.259 OA 
HETATM   28  C   UNL     1     -11.403  12.728  66.238  1.00  0.00    -0.320 C  
HETATM   29  C   UNL     1     -11.113  13.959  67.108  1.00  0.00    -0.300 C  
HETATM   30  H2  UNL     1      -6.957  12.236  68.014  1.00  0.00     0.000 HD 
HETATM   31  C   UNL     1     -10.036  13.596  68.131  1.00  0.00    -0.245 C  
HETATM   32  O   UNL     1     -12.252  14.414  67.853  1.00  0.00    -0.595 OA 
HETATM   33  H1  UNL     1      -7.527  13.367  69.108  1.00  0.00     0.000 HD 
HETATM   34  H   UNL     1     -12.073  15.176  68.392  1.00  0.00     0.000 HD 
HETATM   35  H   UNL     1      -9.001  14.551  69.506  1.00  0.00     0.000 HD 
HETATM   36  N   UNL     1      -7.787  12.619  68.465  1.00  0.00    -0.130 NA 
HETATM   37  O   UNL     1      -9.671  14.776  68.870  1.00  0.00    -0.217 OA 
HETATM   38  C   UNL     1      -8.795  13.001  67.449  1.00  0.00    -0.203 C  
BRANCH  28  39
HETATM   39  C   UNL     1     -12.478  12.965  65.163  1.00  0.00    -0.501 C  
HETATM   40  H2  UNL     1     -11.560  14.581  64.268  1.00  0.00     0.000 HD 
HETATM   41  N   UNL     1     -12.483  14.331  64.622  1.00  0.00    -0.631 NA 
HETATM   42  H1  UNL     1     -13.196  14.487  63.909  1.00  0.00     0.000 HD 
ENDBRANCH  28  39
ENDBRANCH  25  26
ENDBRANCH  24  25
ENDBRANCH  10  11
ENDBRANCH   1  10
BRANCH   5  43
HETATM   43  C   UNL     1      -8.943   6.963  71.792  1.00  0.00    -0.138 C  
HETATM   44  O   UNL     1      -9.766   5.963  71.181  1.00  0.00    -0.170 OA 
HETATM   45  H   UNL     1      -9.261   5.168  71.059  1.00  0.00     0.000 HD 
ENDBRANCH   5  43
TORSDOF 6
ENDMDL
MODEL      146
REMARK 921   NORMALIZED FREE ENERGY PREDICTED BY IDOCK:   -4.99 KCAL/MOL
REMARK 922        TOTAL FREE ENERGY PREDICTED BY IDOCK:   -8.39 KCAL/MOL
REMARK 923 INTER-LIGAND FREE ENERGY PREDICTED BY IDOCK:   -7.13 KCAL/MOL
REMARK 924 INTRA-LIGAND FREE ENERGY PREDICTED BY IDOCK:   -1.25 KCAL/MOL
REMARK 927      BINDING AFFINITY PREDICTED BY RF-SCORE:    0.00 PKD
ROOT
HETATM    1  C   UNL     1      -8.495   9.498  67.140  1.00  0.00    -0.131 C  
HETATM    2  O   UNL     1      -8.602   7.149  64.789  1.00  0.00    -0.348 OA 
HETATM    3  O   UNL     1      -7.177   9.005  66.858  1.00  0.00    -0.084 OA 
HETATM    4  H   UNL     1     -10.901   7.914  65.499  1.00  0.00     0.000 HD 
HETATM    5  C   UNL     1      -7.014   8.912  65.431  1.00  0.00    -0.080 C  
HETATM    6  H   UNL     1      -9.463   6.938  64.449  1.00  0.00     0.000 HD 
HETATM    7  C   UNL     1      -8.394   8.572  64.885  1.00  0.00    -0.160 C  
HETATM    8  O   UNL     1     -10.361   8.139  66.247  1.00  0.00    -0.110 OA 
HETATM    9  C   UNL     1      -9.373   9.131  65.921  1.00  0.00    -0.243 C  
ENDROOT
BRANCH   1  10
HETATM   10  O   UNL     1      -8.473  10.919  67.296  1.00  0.00    -0.124 OA 
BRANCH  10  11
HETATM   11  C   UNL     1      -9.719  11.647  67.115  1.00  0.00    -0.181 C  
HETATM   12  O   UNL     1      -9.285  12.069  64.764  1.00  0.00    -0.410 OA 
HETATM   13  H2  UNL     1     -12.921  14.308  69.198  1.00  0.00     0.000 HD 
HETATM   14  H   UNL     1      -9.221  12.723  64.078  1.00  0.00     0.000 HD 
HETATM   15  C   UNL     1      -9.615  12.705  66.006  1.00  0.00    -0.188 C  
HETATM   16  H1  UNL     1     -12.247  13.036  70.092  1.00  0.00     0.000 HD 
HETATM   17  C   UNL     1     -11.380  14.134  67.064  1.00  0.00    -0.346 C  
HETATM   18  N   UNL     1     -10.734  14.464  64.705  1.00  0.00    -0.585 NA 
HETATM   19  N   UNL     1     -12.093  13.738  69.369  1.00  0.00    -0.337 NA 
HETATM   20  H1  UNL     1     -11.605  14.972  64.550  1.00  0.00     0.000 HD 
HETATM   21  H2  UNL     1     -10.376  14.045  63.847  1.00  0.00     0.000 HD 
HETATM   22  C   UNL     1     -11.611  13.077  68.151  1.00  0.00    -0.341 C  
HETATM   23  C   UNL     1     -10.925  13.468  65.773  1.00  0.00    -0.278 C  
HETATM   24  C   UNL     1     -10.330  12.218  68.430  1.00  0.00    -0.224 C  
BRANCH  24  25
HETATM   25  O   UNL     1     -10.505  11.202  69.454  1.00  0.00    -0.191 OA 
BRANCH  25  26
HETATM   26  C   UNL     1     -11.580  10.274  69.259  1.00  0.00    -0.119 C  
HETATM   27  O   UNL     1     -11.086   8.961  68.986  1.00  0.00    -0.017 OA 
HETATM   28  C   UNL     1     -10.370   8.394  70.093  1.00  0.00    -0.211 C  
HETATM   29  C   UNL     1     -11.326   8.177  71.274  1.00  0.00    -0.265 C  
HETATM   30  H2  UNL     1     -13.537  12.018  70.081  1.00  0.00     0.000 HD 
HETATM   31  C   UNL     1     -11.928   9.525  71.675  1.00  0.00    -0.401 C  
HETATM   32  O   UNL     1     -10.682   7.650  72.443  1.00  0.00    -0.238 OA 
HETATM   33  H1  UNL     1     -13.746  11.525  71.666  1.00  0.00     0.000 HD 
HETATM   34  H   UNL     1     -11.274   7.516  73.174  1.00  0.00     0.000 HD 
HETATM   35  H   UNL     1     -13.291  10.152  72.948  1.00  0.00     0.000 HD 
HETATM   36  N   UNL     1     -13.101  11.552  70.876  1.00  0.00    -0.063 NA 
HETATM   37  O   UNL     1     -12.917   9.314  72.699  1.00  0.00    -0.368 OA 
HETATM   38  C   UNL     1     -12.566  10.232  70.469  1.00  0.00    -0.258 C  
BRANCH  28  39
HETATM   39  C   UNL     1      -9.694   7.105  69.595  1.00  0.00    -0.158 C  
HETATM   40  H2  UNL     1     -11.352   5.890  69.771  1.00  0.00     0.000 HD 
HETATM   41  N   UNL     1     -10.367   5.875  70.035  1.00  0.00    -0.221 NA 
HETATM   42  H1  UNL     1      -9.918   5.021  69.704  1.00  0.00     0.000 HD 
ENDBRANCH  28  39
ENDBRANCH  25  26
ENDBRANCH  24  25
ENDBRANCH  10  11
ENDBRANCH   1  10
BRANCH   5  43
HETATM   43  C   UNL     1      -6.454  10.206  64.825  1.00  0.00    -0.128 C  
HETATM   44  O   UNL     1      -7.223  10.564  63.671  1.00  0.00    -0.323 OA 
HETATM   45  H   UNL     1      -6.876  11.365  63.296  1.00  0.00     0.000 HD 
ENDBRANCH   5  43
TORSDOF 6
ENDMDL
MODEL      147
REMARK 921   NORMALIZED FREE ENERGY PREDICTED BY IDOCK:   -4.98 KCAL/MOL
REMARK 922        TOTAL FREE ENERGY PREDICTED BY IDOCK:   -8.38 KCAL/MOL
REMARK 923 INTER-LIGAND FREE ENERGY PREDICTED BY IDOCK:   -7.03 KCAL/MOL
REMARK 924 INTRA-LIGAND FREE ENERGY PREDICTED BY IDOCK:   -1.34 KCAL/MOL
REMARK 927      BINDING AFFINITY PREDICTED BY RF-SCORE:    0.00 PKD
ROOT
HETATM    1  C   UNL     1      -7.859  15.239  68.948  1.00  0.00    -0.165 C  
HETATM    2  O   UNL     1      -6.289  18.074  69.693  1.00  0.00    -0.246 OA 
HETATM    3  O   UNL     1      -8.802  16.302  69.146  1.00  0.00    -0.249 OA 
HETATM    4  H   UNL     1      -4.714  16.106  69.545  1.00  0.00     0.000 HD 
HETATM    5  C   UNL     1      -8.328  17.475  68.459  1.00  0.00    -0.274 C  
HETATM    6  H   UNL     1      -5.341  18.028  69.737  1.00  0.00     0.000 HD 
HETATM    7  C   UNL     1      -6.810  17.401  68.530  1.00  0.00    -0.203 C  
HETATM    8  O   UNL     1      -5.552  15.695  69.722  1.00  0.00    -0.112 OA 
HETATM    9  C   UNL     1      -6.494  15.908  68.659  1.00  0.00    -0.113 C  
ENDROOT
BRANCH   1  10
HETATM   10  O   UNL     1      -8.239  14.436  67.828  1.00  0.00    -0.144 OA 
BRANCH  10  11
HETATM   11  C   UNL     1      -8.152  12.990  67.961  1.00  0.00    -0.157 C  
HETATM   12  O   UNL     1      -5.911  12.906  67.032  1.00  0.00    -0.469 OA 
HETATM   13  H2  UNL     1     -10.574   9.015  68.041  1.00  0.00     0.000 HD 
HETATM   14  H   UNL     1      -5.343  12.519  66.376  1.00  0.00     0.000 HD 
HETATM   15  C   UNL     1      -7.233  12.365  66.900  1.00  0.00     0.095 C  
HETATM   16  H1  UNL     1     -11.262  10.375  68.780  1.00  0.00     0.000 HD 
HETATM   17  C   UNL     1      -8.472  10.189  66.961  1.00  0.00    -0.129 C  
HETATM   18  N   UNL     1      -6.212  10.329  65.978  1.00  0.00    -0.088 NA 
HETATM   19  N   UNL     1     -10.666  10.030  68.028  1.00  0.00    -0.240 NA 
HETATM   20  H1  UNL     1      -6.124   9.317  66.068  1.00  0.00     0.000 HD 
HETATM   21  H2  UNL     1      -5.305  10.795  65.977  1.00  0.00     0.000 HD 
HETATM   22  C   UNL     1      -9.368  10.709  68.093  1.00  0.00    -0.151 C  
HETATM   23  C   UNL     1      -7.100  10.844  67.035  1.00  0.00    -0.109 C  
HETATM   24  C   UNL     1      -9.530  12.267  68.057  1.00  0.00    -0.206 C  
BRANCH  24  25
HETATM   25  O   UNL     1     -10.370  12.804  69.115  1.00  0.00    -0.006 OA 
BRANCH  25  26
HETATM   26  C   UNL     1     -11.772  12.901  68.833  1.00  0.00    -0.327 C  
HETATM   27  O   UNL     1     -12.487  11.792  69.382  1.00  0.00    -0.095 OA 
HETATM   28  C   UNL     1     -12.451  11.761  70.816  1.00  0.00    -0.312 C  
HETATM   29  C   UNL     1     -13.193  12.980  71.381  1.00  0.00    -0.192 C  
HETATM   30  H2  UNL     1     -11.629  15.463  67.852  1.00  0.00     0.000 HD 
HETATM   31  C   UNL     1     -12.516  14.251  70.867  1.00  0.00    -0.354 C  
HETATM   32  O   UNL     1     -13.169  13.051  72.814  1.00  0.00    -0.396 OA 
HETATM   33  H1  UNL     1     -12.107  16.336  69.197  1.00  0.00     0.000 HD 
HETATM   34  H   UNL     1     -13.629  13.806  73.164  1.00  0.00     0.000 HD 
HETATM   35  H   UNL     1     -12.857  16.186  70.972  1.00  0.00     0.000 HD 
HETATM   36  N   UNL     1     -11.699  15.461  68.869  1.00  0.00    -0.356 NA 
HETATM   37  O   UNL     1     -13.278  15.396  71.291  1.00  0.00    -0.449 OA 
HETATM   38  C   UNL     1     -12.396  14.240  69.335  1.00  0.00    -0.199 C  
BRANCH  28  39
HETATM   39  C   UNL     1     -13.038  10.412  71.264  1.00  0.00    -0.399 C  
HETATM   40  H2  UNL     1     -11.363   9.281  70.854  1.00  0.00     0.000 HD 
HETATM   41  N   UNL     1     -12.366   9.247  70.673  1.00  0.00    -0.491 NA 
HETATM   42  H1  UNL     1     -12.755   8.352  70.970  1.00  0.00     0.000 HD 
ENDBRANCH  28  39
ENDBRANCH  25  26
ENDBRANCH  24  25
ENDBRANCH  10  11
ENDBRANCH   1  10
BRANCH   5  43
HETATM   43  C   UNL     1      -8.837  17.546  67.013  1.00  0.00    -0.240 C  
HETATM   44  O   UNL     1     -10.028  16.760  66.887  1.00  0.00    -0.256 OA 
HETATM   45  H   UNL     1     -10.343  16.804  65.992  1.00  0.00     0.000 HD 
ENDBRANCH   5  43
TORSDOF 6
ENDMDL
MODEL      148
REMARK 921   NORMALIZED FREE ENERGY PREDICTED BY IDOCK:   -4.98 KCAL/MOL
REMARK 922        TOTAL FREE ENERGY PREDICTED BY IDOCK:   -8.37 KCAL/MOL
REMARK 923 INTER-LIGAND FREE ENERGY PREDICTED BY IDOCK:   -7.41 KCAL/MOL
REMARK 924 INTRA-LIGAND FREE ENERGY PREDICTED BY IDOCK:   -0.97 KCAL/MOL
REMARK 927      BINDING AFFINITY PREDICTED BY RF-SCORE:    0.00 PKD
ROOT
HETATM    1  C   UNL     1     -10.007  11.031  67.473  1.00  0.00    -0.174 C  
HETATM    2  O   UNL     1      -7.556   9.452  65.877  1.00  0.00    -0.097 OA 
HETATM    3  O   UNL     1      -8.931  10.730  68.373  1.00  0.00    -0.140 OA 
HETATM    4  H   UNL     1      -9.580   9.825  64.414  1.00  0.00     0.000 HD 
HETATM    5  C   UNL     1      -7.685  11.059  67.731  1.00  0.00    -0.108 C  
HETATM    6  H   UNL     1      -7.697   9.289  64.951  1.00  0.00     0.000 HD 
HETATM    7  C   UNL     1      -7.911  10.798  66.248  1.00  0.00    -0.156 C  
HETATM    8  O   UNL     1      -9.941   9.863  65.292  1.00  0.00    -0.318 OA 
HETATM    9  C   UNL     1      -9.418  10.970  66.044  1.00  0.00    -0.207 C  
ENDROOT
BRANCH   1  10
HETATM   10  O   UNL     1     -10.510  12.346  67.721  1.00  0.00    -0.211 OA 
BRANCH  10  11
HETATM   11  C   UNL     1     -10.954  12.668  69.068  1.00  0.00    -0.191 C  
HETATM   12  O   UNL     1     -11.370  10.343  69.628  1.00  0.00    -0.242 OA 
HETATM   13  H2  UNL     1     -12.960  15.896  71.757  1.00  0.00     0.000 HD 
HETATM   14  H   UNL     1     -11.998   9.711  69.959  1.00  0.00     0.000 HD 
HETATM   15  C   UNL     1     -11.969  11.645  69.603  1.00  0.00    -0.324 C  
HETATM   16  H1  UNL     1     -11.892  16.423  70.552  1.00  0.00     0.000 HD 
HETATM   17  C   UNL     1     -13.035  13.339  71.110  1.00  0.00    -0.297 C  
HETATM   18  N   UNL     1     -13.405  10.925  71.462  1.00  0.00    -0.276 NA 
HETATM   19  N   UNL     1     -12.584  15.725  70.825  1.00  0.00    -0.418 NA 
HETATM   20  H1  UNL     1     -13.713  11.123  72.414  1.00  0.00     0.000 HD 
HETATM   21  H2  UNL     1     -13.039   9.977  71.366  1.00  0.00     0.000 HD 
HETATM   22  C   UNL     1     -11.994  14.388  70.699  1.00  0.00    -0.323 C  
HETATM   23  C   UNL     1     -12.432  11.943  71.034  1.00  0.00    -0.290 C  
HETATM   24  C   UNL     1     -11.433  14.139  69.257  1.00  0.00    -0.292 C  
BRANCH  24  25
HETATM   25  O   UNL     1     -10.441  15.110  68.826  1.00  0.00    -0.221 OA 
BRANCH  25  26
HETATM   26  C   UNL     1     -10.822  15.985  67.757  1.00  0.00    -0.324 C  
HETATM   27  O   UNL     1     -10.965  17.331  68.218  1.00  0.00    -0.336 OA 
HETATM   28  C   UNL     1      -9.728  17.899  68.672  1.00  0.00    -0.353 C  
HETATM   29  C   UNL     1      -8.752  18.026  67.494  1.00  0.00    -0.248 C  
HETATM   30  H2  UNL     1     -10.436  14.114  65.784  1.00  0.00     0.000 HD 
HETATM   31  C   UNL     1      -8.506  16.637  66.905  1.00  0.00    -0.215 C  
HETATM   32  O   UNL     1      -7.469  18.549  67.867  1.00  0.00    -0.230 OA 
HETATM   33  H1  UNL     1      -8.912  14.545  65.243  1.00  0.00     0.000 HD 
HETATM   34  H   UNL     1      -6.865  18.628  67.138  1.00  0.00     0.000 HD 
HETATM   35  H   UNL     1      -7.537  15.898  65.360  1.00  0.00     0.000 HD 
HETATM   36  N   UNL     1      -9.561  14.577  66.029  1.00  0.00    -0.298 NA 
HETATM   37  O   UNL     1      -7.690  16.761  65.726  1.00  0.00    -0.164 OA 
HETATM   38  C   UNL     1      -9.828  15.936  66.555  1.00  0.00    -0.261 C  
BRANCH  28  39
HETATM   39  C   UNL     1     -10.057  19.237  69.355  1.00  0.00    -0.006 C  
HETATM   40  H2  UNL     1     -11.548  19.805  68.048  1.00  0.00     0.000 HD 
HETATM   41  N   UNL     1     -10.712  20.209  68.469  1.00  0.00    -0.250 NA 
HETATM   42  H1  UNL     1     -10.930  21.096  68.923  1.00  0.00     0.000 HD 
ENDBRANCH  28  39
ENDBRANCH  25  26
ENDBRANCH  24  25
ENDBRANCH  10  11
ENDBRANCH   1  10
BRANCH   5  43
HETATM   43  C   UNL     1      -7.257  12.507  68.005  1.00  0.00    -0.105 C  
HETATM   44  O   UNL     1      -6.962  13.161  66.765  1.00  0.00    -0.333 OA 
HETATM   45  H   UNL     1      -6.697  14.057  66.935  1.00  0.00     0.000 HD 
ENDBRANCH   5  43
TORSDOF 6
ENDMDL
MODEL      149
REMARK 921   NORMALIZED FREE ENERGY PREDICTED BY IDOCK:   -4.97 KCAL/MOL
REMARK 922        TOTAL FREE ENERGY PREDICTED BY IDOCK:   -8.36 KCAL/MOL
REMARK 923 INTER-LIGAND FREE ENERGY PREDICTED BY IDOCK:   -6.99 KCAL/MOL
REMARK 924 INTRA-LIGAND FREE ENERGY PREDICTED BY IDOCK:   -1.37 KCAL/MOL
REMARK 927      BINDING AFFINITY PREDICTED BY RF-SCORE:    0.00 PKD
ROOT
HETATM    1  C   UNL     1     -10.927   8.480  70.325  1.00  0.00    -0.235 C  
HETATM    2  O   UNL     1     -10.005   7.312  73.298  1.00  0.00    -0.214 OA 
HETATM    3  O   UNL     1     -11.670   7.297  70.655  1.00  0.00    -0.303 OA 
HETATM    4  H   UNL     1      -8.594   9.266  72.545  1.00  0.00     0.000 HD 
HETATM    5  C   UNL     1     -12.106   7.393  72.024  1.00  0.00    -0.289 C  
HETATM    6  H   UNL     1      -9.326   7.802  73.747  1.00  0.00     0.000 HD 
HETATM    7  C   UNL     1     -11.017   8.176  72.743  1.00  0.00    -0.330 C  
HETATM    8  O   UNL     1      -8.937   8.924  71.729  1.00  0.00    -0.297 OA 
HETATM    9  C   UNL     1     -10.368   9.036  71.655  1.00  0.00    -0.350 C  
ENDROOT
BRANCH   1  10
HETATM   10  O   UNL     1     -11.783   9.456  69.727  1.00  0.00     0.025 OA 
BRANCH  10  11
HETATM   11  C   UNL     1     -11.279  10.812  69.581  1.00  0.00    -0.291 C  
HETATM   12  O   UNL     1     -12.513  11.620  71.509  1.00  0.00    -0.253 OA 
HETATM   13  H2  UNL     1      -9.715  13.999  66.569  1.00  0.00     0.000 HD 
HETATM   14  H   UNL     1     -13.125  12.267  71.840  1.00  0.00     0.000 HD 
HETATM   15  C   UNL     1     -12.269  11.859  70.117  1.00  0.00    -0.241 C  
HETATM   16  H1  UNL     1      -9.269  12.384  66.315  1.00  0.00     0.000 HD 
HETATM   17  C   UNL     1     -11.411  13.619  68.555  1.00  0.00    -0.347 C  
HETATM   18  N   UNL     1     -12.760  14.231  70.528  1.00  0.00    -0.347 NA 
HETATM   19  N   UNL     1      -9.988  13.021  66.658  1.00  0.00    -0.244 NA 
HETATM   20  H1  UNL     1     -12.415  15.187  70.453  1.00  0.00     0.000 HD 
HETATM   21  H2  UNL     1     -13.041  13.998  71.481  1.00  0.00     0.000 HD 
HETATM   22  C   UNL     1     -10.329  12.661  68.039  1.00  0.00    -0.228 C  
HETATM   23  C   UNL     1     -11.750  13.297  70.003  1.00  0.00    -0.225 C  
HETATM   24  C   UNL     1     -10.759  11.159  68.153  1.00  0.00    -0.204 C  
BRANCH  24  25
HETATM   25  O   UNL     1      -9.762  10.215  67.677  1.00  0.00    -0.157 OA 
BRANCH  25  26
HETATM   26  C   UNL     1      -9.920   9.738  66.335  1.00  0.00    -0.247 C  
HETATM   27  O   UNL     1      -8.893  10.248  65.481  1.00  0.00    -0.157 OA 
HETATM   28  C   UNL     1      -7.586   9.774  65.838  1.00  0.00    -0.103 C  
HETATM   29  C   UNL     1      -7.508   8.256  65.623  1.00  0.00    -0.081 C  
HETATM   30  H2  UNL     1     -11.884   7.924  66.968  1.00  0.00     0.000 HD 
HETATM   31  C   UNL     1      -8.566   7.580  66.495  1.00  0.00    -0.132 C  
HETATM   32  O   UNL     1      -6.243   7.689  65.997  1.00  0.00    -0.040 OA 
HETATM   33  H1  UNL     1     -10.982   6.519  67.081  1.00  0.00     0.000 HD 
HETATM   34  H   UNL     1      -6.195   6.750  65.864  1.00  0.00     0.000 HD 
HETATM   35  H   UNL     1      -9.241   5.749  66.751  1.00  0.00     0.000 HD 
HETATM   36  N   UNL     1     -10.956   7.537  67.138  1.00  0.00    -0.226 NA 
HETATM   37  O   UNL     1      -8.583   6.169  66.209  1.00  0.00    -0.125 OA 
HETATM   38  C   UNL     1      -9.960   8.180  66.249  1.00  0.00    -0.077 C  
BRANCH  28  39
HETATM   39  C   UNL     1      -6.564  10.573  65.012  1.00  0.00    -0.014 C  
HETATM   40  H2  UNL     1      -5.086  10.617  66.450  1.00  0.00     0.000 HD 
HETATM   41  N   UNL     1      -5.560  11.270  65.827  1.00  0.00    -0.456 NA 
HETATM   42  H1  UNL     1      -4.881  11.800  65.279  1.00  0.00     0.000 HD 
ENDBRANCH  28  39
ENDBRANCH  25  26
ENDBRANCH  24  25
ENDBRANCH  10  11
ENDBRANCH   1  10
BRANCH   5  43
HETATM   43  C   UNL     1     -13.480   8.063  72.150  1.00  0.00    -0.165 C  
HETATM   44  O   UNL     1     -14.170   7.978  70.898  1.00  0.00    -0.638 OA 
HETATM   45  H   UNL     1     -15.020   8.393  70.976  1.00  0.00     0.000 HD 
ENDBRANCH   5  43
TORSDOF 6
ENDMDL
MODEL      150
REMARK 921   NORMALIZED FREE ENERGY PREDICTED BY IDOCK:   -4.97 KCAL/MOL
REMARK 922        TOTAL FREE ENERGY PREDICTED BY IDOCK:   -8.35 KCAL/MOL
REMARK 923 INTER-LIGAND FREE ENERGY PREDICTED BY IDOCK:   -6.56 KCAL/MOL
REMARK 924 INTRA-LIGAND FREE ENERGY PREDICTED BY IDOCK:   -1.80 KCAL/MOL
REMARK 927      BINDING AFFINITY PREDICTED BY RF-SCORE:    0.00 PKD
ROOT
HETATM    1  C   UNL     1      -9.925   7.213  70.221  1.00  0.00    -0.187 C  
HETATM    2  O   UNL     1      -9.263   7.290  73.478  1.00  0.00    -0.159 OA 
HETATM    3  O   UNL     1     -10.499   6.075  70.880  1.00  0.00    -0.215 OA 
HETATM    4  H   UNL     1      -8.105   9.141  72.211  1.00  0.00     0.000 HD 
HETATM    5  C   UNL     1     -11.139   6.516  72.092  1.00  0.00    -0.260 C  
HETATM    6  H   UNL     1      -8.749   8.028  73.783  1.00  0.00     0.000 HD 
HETATM    7  C   UNL     1     -10.314   7.698  72.580  1.00  0.00    -0.255 C  
HETATM    8  O   UNL     1      -8.264   8.490  71.539  1.00  0.00    -0.130 OA 
HETATM    9  C   UNL     1      -9.667   8.273  71.317  1.00  0.00    -0.176 C  
ENDROOT
BRANCH   1  10
HETATM   10  O   UNL     1     -10.837   7.743  69.256  1.00  0.00    -0.188 OA 
BRANCH  10  11
HETATM   11  C   UNL     1     -10.396   7.832  67.873  1.00  0.00    -0.217 C  
HETATM   12  O   UNL     1     -10.370   5.421  67.587  1.00  0.00    -0.193 OA 
HETATM   13  H2  UNL     1      -8.001  10.366  64.787  1.00  0.00     0.000 HD 
HETATM   14  H   UNL     1      -9.862   4.663  67.324  1.00  0.00     0.000 HD 
HETATM   15  C   UNL     1      -9.574   6.605  67.447  1.00  0.00    -0.126 C  
HETATM   16  H1  UNL     1      -8.931  11.192  65.938  1.00  0.00     0.000 HD 
HETATM   17  C   UNL     1      -8.308   7.921  65.733  1.00  0.00    -0.139 C  
HETATM   18  N   UNL     1      -8.334   5.454  65.664  1.00  0.00    -0.124 NA 
HETATM   19  N   UNL     1      -8.367  10.366  65.739  1.00  0.00    -0.152 NA 
HETATM   20  H1  UNL     1      -8.033   5.490  64.691  1.00  0.00     0.000 HD 
HETATM   21  H2  UNL     1      -8.842   4.596  65.878  1.00  0.00     0.000 HD 
HETATM   22  C   UNL     1      -9.156   9.164  66.032  1.00  0.00    -0.197 C  
HETATM   23  C   UNL     1      -9.120   6.658  65.984  1.00  0.00    -0.077 C  
HETATM   24  C   UNL     1      -9.698   9.175  67.503  1.00  0.00    -0.160 C  
BRANCH  24  25
HETATM   25  O   UNL     1     -10.509  10.336  67.830  1.00  0.00    -0.182 OA 
BRANCH  25  26
HETATM   26  C   UNL     1     -10.000  11.208  68.847  1.00  0.00    -0.175 C  
HETATM   27  O   UNL     1      -9.293  12.311  68.275  1.00  0.00    -0.203 OA 
HETATM   28  C   UNL     1     -10.141  13.177  67.506  1.00  0.00    -0.222 C  
HETATM   29  C   UNL     1     -11.168  13.850  68.426  1.00  0.00    -0.264 C  
HETATM   30  H2  UNL     1     -11.361   9.986  70.897  1.00  0.00     0.000 HD 
HETATM   31  C   UNL     1     -12.006  12.766  69.106  1.00  0.00    -0.246 C  
HETATM   32  O   UNL     1     -12.088  14.704  67.730  1.00  0.00    -0.554 OA 
HETATM   33  H1  UNL     1     -12.677  11.009  71.047  1.00  0.00     0.000 HD 
HETATM   34  H   UNL     1     -12.724  15.120  68.300  1.00  0.00     0.000 HD 
HETATM   35  H   UNL     1     -13.409  12.707  70.485  1.00  0.00     0.000 HD 
HETATM   36  N   UNL     1     -11.949  10.669  70.419  1.00  0.00    -0.315 NA 
HETATM   37  O   UNL     1     -12.888  13.381  70.062  1.00  0.00     0.009 OA 
HETATM   38  C   UNL     1     -11.114  11.729  69.808  1.00  0.00     0.006 C  
BRANCH  28  39
HETATM   39  C   UNL     1      -9.232  14.168  66.758  1.00  0.00    -0.266 C  
HETATM   40  H2  UNL     1     -10.741  15.397  66.075  1.00  0.00     0.000 HD 
HETATM   41  N   UNL     1      -9.921  14.920  65.701  1.00  0.00    -0.341 NA 
HETATM   42  H1  UNL     1      -9.318  15.578  65.205  1.00  0.00     0.000 HD 
ENDBRANCH  28  39
ENDBRANCH  25  26
ENDBRANCH  24  25
ENDBRANCH  10  11
ENDBRANCH   1  10
BRANCH   5  43
HETATM   43  C   UNL     1     -12.610   6.890  71.868  1.00  0.00    -0.297 C  
HETATM   44  O   UNL     1     -12.874   8.167  72.460  1.00  0.00    -0.553 OA 
HETATM   45  H   UNL     1     -13.784   8.398  72.322  1.00  0.00     0.000 HD 
ENDBRANCH   5  43
TORSDOF 6
ENDMDL
MODEL      151
REMARK 921   NORMALIZED FREE ENERGY PREDICTED BY IDOCK:   -4.96 KCAL/MOL
REMARK 922        TOTAL FREE ENERGY PREDICTED BY IDOCK:   -8.35 KCAL/MOL
REMARK 923 INTER-LIGAND FREE ENERGY PREDICTED BY IDOCK:   -7.15 KCAL/MOL
REMARK 924 INTRA-LIGAND FREE ENERGY PREDICTED BY IDOCK:   -1.20 KCAL/MOL
REMARK 927      BINDING AFFINITY PREDICTED BY RF-SCORE:    0.00 PKD
ROOT
HETATM    1  C   UNL     1     -11.048  12.534  68.674  1.00  0.00    -0.265 C  
HETATM    2  O   UNL     1     -12.250  13.912  71.451  1.00  0.00    -0.323 OA 
HETATM    3  O   UNL     1     -10.732  11.725  69.817  1.00  0.00     0.078 OA 
HETATM    4  H   UNL     1     -12.573  15.381  69.424  1.00  0.00     0.000 HD 
HETATM    5  C   UNL     1     -11.905  11.616  70.644  1.00  0.00    -0.138 C  
HETATM    6  H   UNL     1     -12.714  14.733  71.343  1.00  0.00     0.000 HD 
HETATM    7  C   UNL     1     -12.649  12.933  70.471  1.00  0.00    -0.129 C  
HETATM    8  O   UNL     1     -11.847  14.824  69.170  1.00  0.00    -0.292 OA 
HETATM    9  C   UNL     1     -12.230  13.442  69.089  1.00  0.00    -0.165 C  
ENDROOT
BRANCH   1  10
HETATM   10  O   UNL     1     -11.446  11.712  67.575  1.00  0.00    -0.342 OA 
BRANCH  10  11
HETATM   11  C   UNL     1     -10.905  12.017  66.260  1.00  0.00    -0.279 C  
HETATM   12  O   UNL     1     -12.054  14.152  66.137  1.00  0.00    -0.405 OA 
HETATM   13  H2  UNL     1      -9.338  10.210  62.266  1.00  0.00     0.000 HD 
HETATM   14  H   UNL     1     -12.636  14.707  65.630  1.00  0.00     0.000 HD 
HETATM   15  C   UNL     1     -11.846  12.915  65.441  1.00  0.00    -0.403 C  
HETATM   16  H1  UNL     1      -8.949   9.404  63.704  1.00  0.00     0.000 HD 
HETATM   17  C   UNL     1     -10.983  12.013  63.270  1.00  0.00    -0.399 C  
HETATM   18  N   UNL     1     -12.251  14.129  63.343  1.00  0.00    -1.099 NA 
HETATM   19  N   UNL     1      -9.638   9.972  63.210  1.00  0.00    -0.191 NA 
HETATM   20  H1  UNL     1     -11.879  14.369  62.425  1.00  0.00     0.000 HD 
HETATM   21  H2  UNL     1     -12.510  14.955  63.882  1.00  0.00     0.000 HD 
HETATM   22  C   UNL     1      -9.948  11.159  64.013  1.00  0.00    -0.323 C  
HETATM   23  C   UNL     1     -11.287  13.277  64.060  1.00  0.00    -0.363 C  
HETATM   24  C   UNL     1     -10.420  10.773  65.457  1.00  0.00    -0.194 C  
BRANCH  24  25
HETATM   25  O   UNL     1      -9.467   9.965  66.199  1.00  0.00    -0.174 OA 
BRANCH  25  26
HETATM   26  C   UNL     1      -8.382  10.663  66.823  1.00  0.00    -0.132 C  
HETATM   27  O   UNL     1      -8.470  10.585  68.248  1.00  0.00    -0.116 OA 
HETATM   28  C   UNL     1      -8.315   9.246  68.743  1.00  0.00    -0.117 C  
HETATM   29  C   UNL     1      -6.896   8.743  68.443  1.00  0.00    -0.065 C  
HETATM   30  H2  UNL     1      -6.997  11.066  64.486  1.00  0.00     0.000 HD 
HETATM   31  C   UNL     1      -6.672   8.771  66.931  1.00  0.00    -0.069 C  
HETATM   32  O   UNL     1      -6.667   7.391  68.868  1.00  0.00    -0.046 OA 
HETATM   33  H1  UNL     1      -5.889   9.814  64.564  1.00  0.00     0.000 HD 
HETATM   34  H   UNL     1      -5.789   7.080  68.683  1.00  0.00     0.000 HD 
HETATM   35  H   UNL     1      -5.166   8.436  65.710  1.00  0.00     0.000 HD 
HETATM   36  N   UNL     1      -6.802  10.144  64.876  1.00  0.00    -0.133 NA 
HETATM   37  O   UNL     1      -5.305   8.418  66.650  1.00  0.00    -0.031 OA 
HETATM   38  C   UNL     1      -6.985  10.158  66.346  1.00  0.00    -0.105 C  
BRANCH  28  39
HETATM   39  C   UNL     1      -8.666   9.264  70.240  1.00  0.00    -0.219 C  
HETATM   40  H2  UNL     1      -9.112   7.256  70.398  1.00  0.00     0.000 HD 
HETATM   41  N   UNL     1      -9.528   8.150  70.659  1.00  0.00    -0.161 NA 
HETATM   42  H1  UNL     1      -9.760   8.162  71.653  1.00  0.00     0.000 HD 
ENDBRANCH  28  39
ENDBRANCH  25  26
ENDBRANCH  24  25
ENDBRANCH  10  11
ENDBRANCH   1  10
BRANCH   5  43
HETATM   43  C   UNL     1     -12.772  10.408  70.265  1.00  0.00    -0.155 C  
HETATM   44  O   UNL     1     -11.933   9.344  69.802  1.00  0.00    -0.392 OA 
HETATM   45  H   UNL     1     -12.469   8.596  69.567  1.00  0.00     0.000 HD 
ENDBRANCH   5  43
TORSDOF 6
ENDMDL
MODEL      152
REMARK 921   NORMALIZED FREE ENERGY PREDICTED BY IDOCK:   -4.96 KCAL/MOL
REMARK 922        TOTAL FREE ENERGY PREDICTED BY IDOCK:   -8.34 KCAL/MOL
REMARK 923 INTER-LIGAND FREE ENERGY PREDICTED BY IDOCK:   -7.44 KCAL/MOL
REMARK 924 INTRA-LIGAND FREE ENERGY PREDICTED BY IDOCK:   -0.90 KCAL/MOL
REMARK 927      BINDING AFFINITY PREDICTED BY RF-SCORE:    0.00 PKD
ROOT
HETATM    1  C   UNL     1      -7.745  11.254  67.813  1.00  0.00    -0.113 C  
HETATM    2  O   UNL     1      -5.207   9.780  69.375  1.00  0.00    -0.035 OA 
HETATM    3  O   UNL     1      -7.084  10.328  66.939  1.00  0.00    -0.087 OA 
HETATM    4  H   UNL     1      -6.287  11.584  70.773  1.00  0.00     0.000 HD 
HETATM    5  C   UNL     1      -6.836   9.107  67.662  1.00  0.00    -0.077 C  
HETATM    6  H   UNL     1      -5.060  10.044  70.275  1.00  0.00     0.000 HD 
HETATM    7  C   UNL     1      -6.600   9.530  69.105  1.00  0.00    -0.049 C  
HETATM    8  O   UNL     1      -6.522  11.831  69.887  1.00  0.00    -0.131 OA 
HETATM    9  C   UNL     1      -7.361  10.850  69.256  1.00  0.00    -0.125 C  
ENDROOT
BRANCH   1  10
HETATM   10  O   UNL     1      -9.163  11.162  67.658  1.00  0.00    -0.148 OA 
BRANCH  10  11
HETATM   11  C   UNL     1     -10.002  11.524  68.790  1.00  0.00    -0.157 C  
HETATM   12  O   UNL     1     -10.322   9.214  69.462  1.00  0.00    -0.202 OA 
HETATM   13  H2  UNL     1     -13.005  14.663  70.463  1.00  0.00     0.000 HD 
HETATM   14  H   UNL     1     -10.950   8.534  69.675  1.00  0.00     0.000 HD 
HETATM   15  C   UNL     1     -11.018  10.424  69.134  1.00  0.00    -0.241 C  
HETATM   16  H1  UNL     1     -11.698  15.230  69.547  1.00  0.00     0.000 HD 
HETATM   17  C   UNL     1     -12.633  12.076  70.100  1.00  0.00     0.000 C  
HETATM   18  N   UNL     1     -12.842   9.667  70.596  1.00  0.00    -0.538 NA 
HETATM   19  N   UNL     1     -12.364  14.472  69.694  1.00  0.00    -0.282 NA 
HETATM   20  H1  UNL     1     -13.426   9.896  71.400  1.00  0.00     0.000 HD 
HETATM   21  H2  UNL     1     -12.369   8.770  70.707  1.00  0.00     0.000 HD 
HETATM   22  C   UNL     1     -11.631  13.215  69.879  1.00  0.00    -0.185 C  
HETATM   23  C   UNL     1     -11.896  10.767  70.343  1.00  0.00    -0.358 C  
HETATM   24  C   UNL     1     -10.661  12.932  68.681  1.00  0.00    -0.247 C  
BRANCH  24  25
HETATM   25  O   UNL     1      -9.691  13.987  68.436  1.00  0.00    -0.217 OA 
BRANCH  25  26
HETATM   26  C   UNL     1      -9.043  13.978  67.158  1.00  0.00    -0.232 C  
HETATM   27  O   UNL     1      -9.998  13.974  66.094  1.00  0.00    -0.293 OA 
HETATM   28  C   UNL     1     -10.784  15.174  66.047  1.00  0.00    -0.329 C  
HETATM   29  C   UNL     1      -9.883  16.371  65.713  1.00  0.00    -0.271 C  
HETATM   30  H2  UNL     1      -6.531  14.428  68.174  1.00  0.00     0.000 HD 
HETATM   31  C   UNL     1      -8.805  16.493  66.791  1.00  0.00    -0.226 C  
HETATM   32  O   UNL     1     -10.582  17.624  65.687  1.00  0.00    -0.565 OA 
HETATM   33  H1  UNL     1      -6.394  16.079  67.939  1.00  0.00     0.000 HD 
HETATM   34  H   UNL     1     -10.024  18.365  65.480  1.00  0.00     0.000 HD 
HETATM   35  H   UNL     1      -7.214  17.610  67.093  1.00  0.00     0.000 HD 
HETATM   36  N   UNL     1      -7.043  15.302  68.057  1.00  0.00    -0.117 NA 
HETATM   37  O   UNL     1      -7.884  17.535  66.423  1.00  0.00    -0.251 OA 
HETATM   38  C   UNL     1      -8.049  15.168  66.978  1.00  0.00    -0.205 C  
BRANCH  28  39
HETATM   39  C   UNL     1     -11.916  14.945  65.031  1.00  0.00    -0.258 C  
HETATM   40  H2  UNL     1     -10.989  15.869  63.437  1.00  0.00     0.000 HD 
HETATM   41  N   UNL     1     -11.897  15.884  63.901  1.00  0.00    -1.258 NA 
HETATM   42  H1  UNL     1     -12.648  15.731  63.227  1.00  0.00     0.000 HD 
ENDBRANCH  28  39
ENDBRANCH  25  26
ENDBRANCH  24  25
ENDBRANCH  10  11
ENDBRANCH   1  10
BRANCH   5  43
HETATM   43  C   UNL     1      -7.995   8.110  67.532  1.00  0.00    -0.122 C  
HETATM   44  O   UNL     1      -8.219   7.473  68.794  1.00  0.00    -0.126 OA 
HETATM   45  H   UNL     1      -8.936   6.855  68.714  1.00  0.00     0.000 HD 
ENDBRANCH   5  43
TORSDOF 6
ENDMDL
MODEL      153
REMARK 921   NORMALIZED FREE ENERGY PREDICTED BY IDOCK:   -4.95 KCAL/MOL
REMARK 922        TOTAL FREE ENERGY PREDICTED BY IDOCK:   -8.33 KCAL/MOL
REMARK 923 INTER-LIGAND FREE ENERGY PREDICTED BY IDOCK:   -6.72 KCAL/MOL
REMARK 924 INTRA-LIGAND FREE ENERGY PREDICTED BY IDOCK:   -1.62 KCAL/MOL
REMARK 927      BINDING AFFINITY PREDICTED BY RF-SCORE:    0.00 PKD
ROOT
HETATM    1  C   UNL     1     -10.753   8.638  70.532  1.00  0.00    -0.221 C  
HETATM    2  O   UNL     1     -11.679   6.353  72.762  1.00  0.00    -0.479 OA 
HETATM    3  O   UNL     1     -10.376   9.042  71.855  1.00  0.00    -0.341 OA 
HETATM    4  H   UNL     1     -12.498   5.820  70.434  1.00  0.00     0.000 HD 
HETATM    5  C   UNL     1      -9.795   7.915  72.536  1.00  0.00    -0.236 C  
HETATM    6  H   UNL     1     -12.127   5.590  72.417  1.00  0.00     0.000 HD 
HETATM    7  C   UNL     1     -10.514   6.692  71.983  1.00  0.00    -0.204 C  
HETATM    8  O   UNL     1     -12.360   6.759  70.402  1.00  0.00    -0.275 OA 
HETATM    9  C   UNL     1     -10.978   7.108  70.585  1.00  0.00    -0.258 C  
ENDROOT
BRANCH   1  10
HETATM   10  O   UNL     1      -9.706   8.930  69.603  1.00  0.00    -0.168 OA 
BRANCH  10  11
HETATM   11  C   UNL     1     -10.034   8.953  68.186  1.00  0.00    -0.176 C  
HETATM   12  O   UNL     1      -9.287   6.670  67.840  1.00  0.00    -0.113 OA 
HETATM   13  H2  UNL     1     -10.462  11.647  64.414  1.00  0.00     0.000 HD 
HETATM   14  H   UNL     1      -8.730   6.090  67.333  1.00  0.00     0.000 HD 
HETATM   15  C   UNL     1      -9.133   8.015  67.368  1.00  0.00    -0.134 C  
HETATM   16  H1  UNL     1     -10.965  12.284  65.901  1.00  0.00     0.000 HD 
HETATM   17  C   UNL     1      -9.391   9.405  65.300  1.00  0.00    -0.303 C  
HETATM   18  N   UNL     1      -8.563   7.084  65.166  1.00  0.00    -0.345 NA 
HETATM   19  N   UNL     1     -10.309  11.668  65.421  1.00  0.00    -0.256 NA 
HETATM   20  H1  UNL     1      -8.791   7.072  64.173  1.00  0.00     0.000 HD 
HETATM   21  H2  UNL     1      -8.564   6.148  65.572  1.00  0.00     0.000 HD 
HETATM   22  C   UNL     1     -10.377  10.331  66.022  1.00  0.00    -0.178 C  
HETATM   23  C   UNL     1      -9.476   7.997  65.873  1.00  0.00     0.034 C  
HETATM   24  C   UNL     1     -10.125  10.381  67.568  1.00  0.00    -0.192 C  
BRANCH  24  25
HETATM   25  O   UNL     1     -11.040  11.247  68.294  1.00  0.00    -0.202 OA 
BRANCH  25  26
HETATM   26  C   UNL     1     -10.454  12.147  69.242  1.00  0.00     0.162 C  
HETATM   27  O   UNL     1      -9.704  13.173  68.586  1.00  0.00    -0.171 OA 
HETATM   28  C   UNL     1     -10.525  14.038  67.788  1.00  0.00    -0.236 C  
HETATM   29  C   UNL     1     -11.487  14.821  68.692  1.00  0.00    -0.302 C  
HETATM   30  H2  UNL     1     -11.821  11.128  71.396  1.00  0.00     0.000 HD 
HETATM   31  C   UNL     1     -12.363  13.829  69.457  1.00  0.00    -0.209 C  
HETATM   32  O   UNL     1     -12.377  15.684  67.969  1.00  0.00    -0.205 OA 
HETATM   33  H1  UNL     1     -13.073  12.231  71.518  1.00  0.00     0.000 HD 
HETATM   34  H   UNL     1     -12.972  16.169  68.529  1.00  0.00     0.000 HD 
HETATM   35  H   UNL     1     -13.726  13.932  70.872  1.00  0.00     0.000 HD 
HETATM   36  N   UNL     1     -12.384  11.813  70.893  1.00  0.00    -0.366 NA 
HETATM   37  O   UNL     1     -13.182  14.549  70.397  1.00  0.00    -0.217 OA 
HETATM   38  C   UNL     1     -11.510  12.787  70.198  1.00  0.00     0.084 C  
BRANCH  28  39
HETATM   39  C   UNL     1      -9.585  14.930  66.958  1.00  0.00    -0.238 C  
HETATM   40  H2  UNL     1     -10.603  14.743  65.174  1.00  0.00     0.000 HD 
HETATM   41  N   UNL     1      -9.644  14.669  65.514  1.00  0.00    -0.520 NA 
HETATM   42  H1  UNL     1      -9.021  15.261  64.964  1.00  0.00     0.000 HD 
ENDBRANCH  28  39
ENDBRANCH  25  26
ENDBRANCH  24  25
ENDBRANCH  10  11
ENDBRANCH   1  10
BRANCH   5  43
HETATM   43  C   UNL     1      -8.276   7.834  72.332  1.00  0.00    -0.121 C  
HETATM   44  O   UNL     1      -7.761   9.140  72.055  1.00  0.00    -0.331 OA 
HETATM   45  H   UNL     1      -6.821   9.091  71.928  1.00  0.00     0.000 HD 
ENDBRANCH   5  43
TORSDOF 6
ENDMDL
MODEL      154
REMARK 921   NORMALIZED FREE ENERGY PREDICTED BY IDOCK:   -4.94 KCAL/MOL
REMARK 922        TOTAL FREE ENERGY PREDICTED BY IDOCK:   -8.32 KCAL/MOL
REMARK 923 INTER-LIGAND FREE ENERGY PREDICTED BY IDOCK:   -6.97 KCAL/MOL
REMARK 924 INTRA-LIGAND FREE ENERGY PREDICTED BY IDOCK:   -1.35 KCAL/MOL
REMARK 927      BINDING AFFINITY PREDICTED BY RF-SCORE:    0.00 PKD
ROOT
HETATM    1  C   UNL     1     -10.081  10.674  65.916  1.00  0.00    -0.261 C  
HETATM    2  O   UNL     1     -10.004  10.074  62.647  1.00  0.00    -0.557 OA 
HETATM    3  O   UNL     1      -9.726   9.307  65.662  1.00  0.00    -0.284 OA 
HETATM    4  H   UNL     1     -10.831  12.398  63.185  1.00  0.00     0.000 HD 
HETATM    5  C   UNL     1      -8.751   9.271  64.603  1.00  0.00    -0.192 C  
HETATM    6  H   UNL     1     -10.215  10.808  62.082  1.00  0.00     0.000 HD 
HETATM    7  C   UNL     1      -9.091  10.447  63.698  1.00  0.00    -0.253 C  
HETATM    8  O   UNL     1     -11.005  11.918  63.986  1.00  0.00    -0.320 OA 
HETATM    9  C   UNL     1      -9.798  11.453  64.610  1.00  0.00    -0.259 C  
ENDROOT
BRANCH   1  10
HETATM   10  O   UNL     1      -9.278  11.210  66.970  1.00  0.00    -0.160 OA 
BRANCH  10  11
HETATM   11  C   UNL     1      -9.877  11.338  68.290  1.00  0.00    -0.197 C  
HETATM   12  O   UNL     1      -9.383   9.037  68.884  1.00  0.00    -0.142 OA 
HETATM   13  H2  UNL     1     -13.109  13.540  70.815  1.00  0.00     0.000 HD 
HETATM   14  H   UNL     1      -9.730   8.212  69.202  1.00  0.00     0.000 HD 
HETATM   15  C   UNL     1     -10.439  10.003  68.804  1.00  0.00    -0.208 C  
HETATM   16  H1  UNL     1     -12.273  14.437  69.646  1.00  0.00     0.000 HD 
HETATM   17  C   UNL     1     -12.151  11.154  70.224  1.00  0.00    -0.462 C  
HETATM   18  N   UNL     1     -11.570   8.787  70.615  1.00  0.00    -0.388 NA 
HETATM   19  N   UNL     1     -12.651  13.526  69.904  1.00  0.00    -0.114 NA 
HETATM   20  H1  UNL     1     -11.977   8.854  71.547  1.00  0.00     0.000 HD 
HETATM   21  H2  UNL     1     -10.860   8.058  70.556  1.00  0.00     0.000 HD 
HETATM   22  C   UNL     1     -11.582  12.524  69.835  1.00  0.00    -0.169 C  
HETATM   23  C   UNL     1     -11.050  10.103  70.206  1.00  0.00    -0.317 C  
HETATM   24  C   UNL     1     -10.899  12.507  68.424  1.00  0.00    -0.243 C  
BRANCH  24  25
HETATM   25  O   UNL     1     -10.343  13.786  68.015  1.00  0.00    -0.235 OA 
BRANCH  25  26
HETATM   26  C   UNL     1      -9.787  14.605  69.051  1.00  0.00    -0.177 C  
HETATM   27  O   UNL     1      -8.476  14.162  69.411  1.00  0.00     0.220 OA 
HETATM   28  C   UNL     1      -7.527  14.307  68.345  1.00  0.00    -0.122 C  
HETATM   29  C   UNL     1      -7.327  15.795  68.027  1.00  0.00    -0.125 C  
HETATM   30  H2  UNL     1     -11.771  16.501  68.933  1.00  0.00     0.000 HD 
HETATM   31  C   UNL     1      -8.672  16.397  67.617  1.00  0.00    -0.182 C  
HETATM   32  O   UNL     1      -6.421  16.031  66.938  1.00  0.00    -0.295 OA 
HETATM   33  H1  UNL     1     -11.032  17.662  67.981  1.00  0.00     0.000 HD 
HETATM   34  H   UNL     1      -6.298  16.953  66.742  1.00  0.00     0.000 HD 
HETATM   35  H   UNL     1      -9.354  18.190  67.181  1.00  0.00     0.000 HD 
HETATM   36  N   UNL     1     -11.054  16.673  68.229  1.00  0.00    -0.346 NA 
HETATM   37  O   UNL     1      -8.518  17.816  67.435  1.00  0.00    -0.222 OA 
HETATM   38  C   UNL     1      -9.754  16.118  68.672  1.00  0.00    -0.227 C  
BRANCH  28  39
HETATM   39  C   UNL     1      -6.239  13.583  68.771  1.00  0.00    -0.090 C  
HETATM   40  H2  UNL     1      -7.145  12.208  70.012  1.00  0.00     0.000 HD 
HETATM   41  N   UNL     1      -6.360  12.858  70.043  1.00  0.00    -0.343 NA 
HETATM   42  H1  UNL     1      -5.506  12.377  70.326  1.00  0.00     0.000 HD 
ENDBRANCH  28  39
ENDBRANCH  25  26
ENDBRANCH  24  25
ENDBRANCH  10  11
ENDBRANCH   1  10
BRANCH   5  43
HETATM   43  C   UNL     1      -7.314   9.347  65.136  1.00  0.00    -0.104 C  
HETATM   44  O   UNL     1      -6.544  10.225  64.308  1.00  0.00    -0.192 OA 
HETATM   45  H   UNL     1      -5.654  10.272  64.637  1.00  0.00     0.000 HD 
ENDBRANCH   5  43
TORSDOF 6
ENDMDL
MODEL      155
REMARK 921   NORMALIZED FREE ENERGY PREDICTED BY IDOCK:   -4.94 KCAL/MOL
REMARK 922        TOTAL FREE ENERGY PREDICTED BY IDOCK:   -8.32 KCAL/MOL
REMARK 923 INTER-LIGAND FREE ENERGY PREDICTED BY IDOCK:   -6.57 KCAL/MOL
REMARK 924 INTRA-LIGAND FREE ENERGY PREDICTED BY IDOCK:   -1.75 KCAL/MOL
REMARK 927      BINDING AFFINITY PREDICTED BY RF-SCORE:    0.00 PKD
ROOT
HETATM    1  C   UNL     1     -10.668  12.544  67.139  1.00  0.00    -0.237 C  
HETATM    2  O   UNL     1     -12.890  14.283  68.896  1.00  0.00    -0.203 OA 
HETATM    3  O   UNL     1     -11.342  13.494  66.301  1.00  0.00    -0.299 OA 
HETATM    4  H   UNL     1     -11.815  12.442  70.248  1.00  0.00     0.000 HD 
HETATM    5  C   UNL     1     -11.409  14.755  66.992  1.00  0.00    -0.353 C  
HETATM    6  H   UNL     1     -12.958  14.064  69.818  1.00  0.00     0.000 HD 
HETATM    7  C   UNL     1     -11.519  14.403  68.469  1.00  0.00    -0.297 C  
HETATM    8  O   UNL     1     -11.699  12.145  69.353  1.00  0.00    -0.291 OA 
HETATM    9  C   UNL     1     -10.856  13.028  68.596  1.00  0.00    -0.259 C  
ENDROOT
BRANCH   1  10
HETATM   10  O   UNL     1      -9.272  12.508  66.829  1.00  0.00    -0.209 OA 
BRANCH  10  11
HETATM   11  C   UNL     1      -8.811  11.532  65.855  1.00  0.00    -0.105 C  
HETATM   12  O   UNL     1      -9.707  12.784  63.979  1.00  0.00    -0.645 OA 
HETATM   13  H2  UNL     1      -7.807   7.044  65.133  1.00  0.00     0.000 HD 
HETATM   14  H   UNL     1     -10.259  12.761  63.206  1.00  0.00     0.000 HD 
HETATM   15  C   UNL     1      -9.704  11.494  64.605  1.00  0.00    -0.212 C  
HETATM   16  H1  UNL     1      -7.397   7.714  66.634  1.00  0.00     0.000 HD 
HETATM   17  C   UNL     1      -9.139   9.098  64.148  1.00  0.00     0.057 C  
HETATM   18  N   UNL     1     -10.138  10.517  62.393  1.00  0.00    -0.746 NA 
HETATM   19  N   UNL     1      -8.053   7.722  65.853  1.00  0.00    -0.114 NA 
HETATM   20  H1  UNL     1      -9.819   9.851  61.690  1.00  0.00     0.000 HD 
HETATM   21  H2  UNL     1     -10.252  11.455  62.010  1.00  0.00     0.000 HD 
HETATM   22  C   UNL     1      -8.152   9.086  65.322  1.00  0.00    -0.126 C  
HETATM   23  C   UNL     1      -9.224  10.494  63.547  1.00  0.00    -0.274 C  
HETATM   24  C   UNL     1      -8.544  10.112  66.440  1.00  0.00    -0.130 C  
BRANCH  24  25
HETATM   25  O   UNL     1      -7.635  10.136  67.573  1.00  0.00    -0.090 OA 
BRANCH  25  26
HETATM   26  C   UNL     1      -8.213  10.414  68.855  1.00  0.00    -0.132 C  
HETATM   27  O   UNL     1      -9.377   9.616  69.080  1.00  0.00    -0.148 OA 
HETATM   28  C   UNL     1      -9.084   8.213  69.158  1.00  0.00    -0.148 C  
HETATM   29  C   UNL     1      -8.215   7.933  70.392  1.00  0.00    -0.119 C  
HETATM   30  H2  UNL     1      -6.113  11.957  69.722  1.00  0.00     0.000 HD 
HETATM   31  C   UNL     1      -6.917   8.733  70.273  1.00  0.00    -0.043 C  
HETATM   32  O   UNL     1      -7.838   6.554  70.525  1.00  0.00    -0.102 OA 
HETATM   33  H1  UNL     1      -5.267  10.841  70.639  1.00  0.00     0.000 HD 
HETATM   34  H   UNL     1      -7.300   6.381  71.289  1.00  0.00     0.000 HD 
HETATM   35  H   UNL     1      -5.345   9.070  71.407  1.00  0.00     0.000 HD 
HETATM   36  N   UNL     1      -5.928  10.966  69.872  1.00  0.00    -0.074 NA 
HETATM   37  O   UNL     1      -6.151   8.573  71.481  1.00  0.00    -0.039 OA 
HETATM   38  C   UNL     1      -7.201  10.223  70.027  1.00  0.00    -0.158 C  
BRANCH  28  39
HETATM   39  C   UNL     1     -10.426   7.460  69.158  1.00  0.00    -0.213 C  
HETATM   40  H2  UNL     1     -11.004   8.014  71.058  1.00  0.00     0.000 HD 
HETATM   41  N   UNL     1     -10.938   7.162  70.502  1.00  0.00    -0.253 NA 
HETATM   42  H1  UNL     1     -11.828   6.663  70.501  1.00  0.00     0.000 HD 
ENDBRANCH  28  39
ENDBRANCH  25  26
ENDBRANCH  24  25
ENDBRANCH  10  11
ENDBRANCH   1  10
BRANCH   5  43
HETATM   43  C   UNL     1     -10.193  15.643  66.698  1.00  0.00    -0.279 C  
HETATM   44  O   UNL     1      -9.585  15.229  65.469  1.00  0.00    -0.323 OA 
HETATM   45  H   UNL     1      -8.832  15.779  65.287  1.00  0.00     0.000 HD 
ENDBRANCH   5  43
TORSDOF 6
ENDMDL
MODEL      156
REMARK 921   NORMALIZED FREE ENERGY PREDICTED BY IDOCK:   -4.92 KCAL/MOL
REMARK 922        TOTAL FREE ENERGY PREDICTED BY IDOCK:   -8.30 KCAL/MOL
REMARK 923 INTER-LIGAND FREE ENERGY PREDICTED BY IDOCK:   -6.84 KCAL/MOL
REMARK 924 INTRA-LIGAND FREE ENERGY PREDICTED BY IDOCK:   -1.46 KCAL/MOL
REMARK 927      BINDING AFFINITY PREDICTED BY RF-SCORE:    0.00 PKD
ROOT
HETATM    1  C   UNL     1      -8.825   7.339  68.803  1.00  0.00    -0.127 C  
HETATM    2  O   UNL     1      -6.635   5.079  69.873  1.00  0.00    -0.034 OA 
HETATM    3  O   UNL     1      -8.480   6.431  67.747  1.00  0.00    -0.117 OA 
HETATM    4  H   UNL     1      -7.128   6.846  71.608  1.00  0.00     0.000 HD 
HETATM    5  C   UNL     1      -8.496   5.089  68.268  1.00  0.00    -0.098 C  
HETATM    6  H   UNL     1      -6.365   5.156  70.781  1.00  0.00     0.000 HD 
HETATM    7  C   UNL     1      -8.062   5.212  69.722  1.00  0.00    -0.082 C  
HETATM    8  O   UNL     1      -7.355   7.278  70.793  1.00  0.00    -0.069 OA 
HETATM    9  C   UNL     1      -8.455   6.635  70.129  1.00  0.00    -0.136 C  
ENDROOT
BRANCH   1  10
HETATM   10  O   UNL     1     -10.228   7.612  68.787  1.00  0.00    -0.190 OA 
BRANCH  10  11
HETATM   11  C   UNL     1     -10.817   8.239  69.960  1.00  0.00    -0.232 C  
HETATM   12  O   UNL     1     -11.570   6.122  70.878  1.00  0.00    -0.310 OA 
HETATM   13  H2  UNL     1     -12.799  12.107  71.630  1.00  0.00     0.000 HD 
HETATM   14  H   UNL     1     -12.306   5.626  71.218  1.00  0.00     0.000 HD 
HETATM   15  C   UNL     1     -12.007   7.437  70.510  1.00  0.00    -0.108 C  
HETATM   16  H1  UNL     1     -11.519  12.284  70.534  1.00  0.00     0.000 HD 
HETATM   17  C   UNL     1     -13.073   9.487  71.477  1.00  0.00    -0.470 C  
HETATM   18  N   UNL     1     -13.762   7.236  72.218  1.00  0.00    -0.508 NA 
HETATM   19  N   UNL     1     -12.317  11.717  70.820  1.00  0.00    -0.374 NA 
HETATM   20  H1  UNL     1     -14.176   7.650  73.053  1.00  0.00     0.000 HD 
HETATM   21  H2  UNL     1     -13.496   6.262  72.363  1.00  0.00     0.000 HD 
HETATM   22  C   UNL     1     -11.872  10.338  71.047  1.00  0.00    -0.377 C  
HETATM   23  C   UNL     1     -12.629   8.060  71.766  1.00  0.00    -0.325 C  
HETATM   24  C   UNL     1     -11.147   9.753  69.787  1.00  0.00    -0.237 C  
BRANCH  24  25
HETATM   25  O   UNL     1     -10.000  10.528  69.345  1.00  0.00    -0.222 OA 
BRANCH  25  26
HETATM   26  C   UNL     1      -9.985  10.923  67.967  1.00  0.00    -0.171 C  
HETATM   27  O   UNL     1     -10.909  11.987  67.725  1.00  0.00    -0.201 OA 
HETATM   28  C   UNL     1     -10.555  13.198  68.409  1.00  0.00    -0.251 C  
HETATM   29  C   UNL     1      -9.231  13.740  67.852  1.00  0.00    -0.200 C  
HETATM   30  H2  UNL     1      -7.779   9.419  67.323  1.00  0.00     0.000 HD 
HETATM   31  C   UNL     1      -8.142  12.687  68.056  1.00  0.00    -0.161 C  
HETATM   32  O   UNL     1      -8.779  14.932  68.512  1.00  0.00    -0.158 OA 
HETATM   33  H1  UNL     1      -6.579  10.583  67.397  1.00  0.00     0.000 HD 
HETATM   34  H   UNL     1      -7.960  15.268  68.167  1.00  0.00     0.000 HD 
HETATM   35  H   UNL     1      -6.250  12.480  67.555  1.00  0.00     0.000 HD 
HETATM   36  N   UNL     1      -7.509  10.317  67.721  1.00  0.00    -0.088 NA 
HETATM   37  O   UNL     1      -6.927  13.135  67.429  1.00  0.00    -0.162 OA 
HETATM   38  C   UNL     1      -8.562  11.329  67.471  1.00  0.00    -0.134 C  
BRANCH  28  39
HETATM   39  C   UNL     1     -11.737  14.172  68.264  1.00  0.00    -0.348 C  
HETATM   40  H2  UNL     1     -11.580  15.008  70.143  1.00  0.00     0.000 HD 
HETATM   41  N   UNL     1     -12.304  14.608  69.547  1.00  0.00    -0.532 NA 
HETATM   42  H1  UNL     1     -13.088  15.255  69.451  1.00  0.00     0.000 HD 
ENDBRANCH  28  39
ENDBRANCH  25  26
ENDBRANCH  24  25
ENDBRANCH  10  11
ENDBRANCH   1  10
BRANCH   5  43
HETATM   43  C   UNL     1      -9.874   4.429  68.130  1.00  0.00    -0.066 C  
HETATM   44  O   UNL     1     -10.010   3.877  66.815  1.00  0.00    -0.349 OA 
HETATM   45  H   UNL     1     -10.863   3.469  66.729  1.00  0.00     0.000 HD 
ENDBRANCH   5  43
TORSDOF 6
ENDMDL
MODEL      157
REMARK 921   NORMALIZED FREE ENERGY PREDICTED BY IDOCK:   -4.92 KCAL/MOL
REMARK 922        TOTAL FREE ENERGY PREDICTED BY IDOCK:   -8.29 KCAL/MOL
REMARK 923 INTER-LIGAND FREE ENERGY PREDICTED BY IDOCK:   -6.88 KCAL/MOL
REMARK 924 INTRA-LIGAND FREE ENERGY PREDICTED BY IDOCK:   -1.41 KCAL/MOL
REMARK 927      BINDING AFFINITY PREDICTED BY RF-SCORE:    0.00 PKD
ROOT
HETATM    1  C   UNL     1      -8.412  10.142  64.547  1.00  0.00    -0.177 C  
HETATM    2  O   UNL     1      -5.435   9.812  63.104  1.00  0.00    -0.082 OA 
HETATM    3  O   UNL     1      -8.538  10.172  63.118  1.00  0.00    -0.160 OA 
HETATM    4  H   UNL     1      -5.278   9.987  65.618  1.00  0.00     0.000 HD 
HETATM    5  C   UNL     1      -7.730   9.119  62.560  1.00  0.00    -0.115 C  
HETATM    6  H   UNL     1      -4.694   9.723  63.691  1.00  0.00     0.000 HD 
HETATM    7  C   UNL     1      -6.541   8.977  63.501  1.00  0.00    -0.089 C  
HETATM    8  O   UNL     1      -6.113  10.398  65.427  1.00  0.00    -0.113 OA 
HETATM    9  C   UNL     1      -7.052   9.473  64.856  1.00  0.00    -0.107 C  
ENDROOT
BRANCH   1  10
HETATM   10  O   UNL     1      -9.464   9.364  65.123  1.00  0.00    -0.259 OA 
BRANCH  10  11
HETATM   11  C   UNL     1      -9.446   9.147  66.561  1.00  0.00    -0.208 C  
HETATM   12  O   UNL     1      -8.352   6.990  66.355  1.00  0.00    -0.114 OA 
HETATM   13  H2  UNL     1     -11.598  10.066  70.586  1.00  0.00     0.000 HD 
HETATM   14  H   UNL     1      -8.379   6.066  66.579  1.00  0.00     0.000 HD 
HETATM   15  C   UNL     1      -9.490   7.654  66.922  1.00  0.00    -0.172 C  
HETATM   16  H1  UNL     1     -11.518  11.303  69.432  1.00  0.00     0.000 HD 
HETATM   17  C   UNL     1     -10.591   8.113  69.124  1.00  0.00    -0.179 C  
HETATM   18  N   UNL     1      -9.497   5.945  68.688  1.00  0.00    -0.120 NA 
HETATM   19  N   UNL     1     -11.583  10.298  69.594  1.00  0.00    -0.228 NA 
HETATM   20  H1  UNL     1      -9.465   5.772  69.692  1.00  0.00     0.000 HD 
HETATM   21  H2  UNL     1      -8.767   5.438  68.188  1.00  0.00     0.000 HD 
HETATM   22  C   UNL     1     -10.493   9.625  68.880  1.00  0.00    -0.215 C  
HETATM   23  C   UNL     1      -9.442   7.394  68.433  1.00  0.00    -0.143 C  
HETATM   24  C   UNL     1     -10.496   9.983  67.354  1.00  0.00    -0.260 C  
BRANCH  24  25
HETATM   25  O   UNL     1     -10.402  11.406  67.076  1.00  0.00    -0.209 OA 
BRANCH  25  26
HETATM   26  C   UNL     1     -11.621  12.072  66.721  1.00  0.00    -0.321 C  
HETATM   27  O   UNL     1     -12.232  12.675  67.864  1.00  0.00    -0.311 OA 
HETATM   28  C   UNL     1     -11.441  13.733  68.424  1.00  0.00    -0.316 C  
HETATM   29  C   UNL     1     -11.338  14.891  67.421  1.00  0.00    -0.347 C  
HETATM   30  H2  UNL     1     -11.237  11.819  64.013  1.00  0.00     0.000 HD 
HETATM   31  C   UNL     1     -10.687  14.375  66.138  1.00  0.00    -0.304 C  
HETATM   32  O   UNL     1     -10.525  15.979  67.886  1.00  0.00    -0.274 OA 
HETATM   33  H1  UNL     1     -10.614  13.329  63.647  1.00  0.00     0.000 HD 
HETATM   34  H   UNL     1     -10.461  16.696  67.265  1.00  0.00     0.000 HD 
HETATM   35  H   UNL     1     -10.293  15.099  64.351  1.00  0.00     0.000 HD 
HETATM   36  N   UNL     1     -10.744  12.633  64.380  1.00  0.00    -0.334 NA 
HETATM   37  O   UNL     1     -10.697  15.420  65.149  1.00  0.00    -0.384 OA 
HETATM   38  C   UNL     1     -11.421  13.137  65.598  1.00  0.00    -0.323 C  
BRANCH  28  39
HETATM   39  C   UNL     1     -12.082  14.128  69.766  1.00  0.00    -0.354 C  
HETATM   40  H2  UNL     1     -11.528  12.428  70.796  1.00  0.00     0.000 HD 
HETATM   41  N   UNL     1     -12.369  12.985  70.643  1.00  0.00    -0.347 NA 
HETATM   42  H1  UNL     1     -12.794  13.246  71.533  1.00  0.00     0.000 HD 
ENDBRANCH  28  39
ENDBRANCH  25  26
ENDBRANCH  24  25
ENDBRANCH  10  11
ENDBRANCH   1  10
BRANCH   5  43
HETATM   43  C   UNL     1      -8.510   7.807  62.411  1.00  0.00    -0.007 C  
HETATM   44  O   UNL     1      -8.220   6.950  63.521  1.00  0.00    -0.307 OA 
HETATM   45  H   UNL     1      -8.702   6.137  63.428  1.00  0.00     0.000 HD 
ENDBRANCH   5  43
TORSDOF 6
ENDMDL
MODEL      158
REMARK 921   NORMALIZED FREE ENERGY PREDICTED BY IDOCK:   -4.92 KCAL/MOL
REMARK 922        TOTAL FREE ENERGY PREDICTED BY IDOCK:   -8.29 KCAL/MOL
REMARK 923 INTER-LIGAND FREE ENERGY PREDICTED BY IDOCK:   -7.28 KCAL/MOL
REMARK 924 INTRA-LIGAND FREE ENERGY PREDICTED BY IDOCK:   -1.01 KCAL/MOL
REMARK 927      BINDING AFFINITY PREDICTED BY RF-SCORE:    0.00 PKD
ROOT
HETATM    1  C   UNL     1     -10.765   8.222  70.266  1.00  0.00    -0.235 C  
HETATM    2  O   UNL     1     -12.609   8.121  73.030  1.00  0.00    -0.656 OA 
HETATM    3  O   UNL     1     -10.300   9.189  71.218  1.00  0.00    -0.283 OA 
HETATM    4  H   UNL     1     -13.496   6.601  71.219  1.00  0.00     0.000 HD 
HETATM    5  C   UNL     1     -10.248   8.571  72.518  1.00  0.00    -0.253 C  
HETATM    6  H   UNL     1     -13.316   7.487  73.038  1.00  0.00     0.000 HD 
HETATM    7  C   UNL     1     -11.382   7.555  72.530  1.00  0.00    -0.334 C  
HETATM    8  O   UNL     1     -12.988   7.240  70.732  1.00  0.00    -0.164 OA 
HETATM    9  C   UNL     1     -11.591   7.182  71.060  1.00  0.00    -0.309 C  
ENDROOT
BRANCH   1  10
HETATM   10  O   UNL     1      -9.658   7.568  69.639  1.00  0.00    -0.160 OA 
BRANCH  10  11
HETATM   11  C   UNL     1      -9.824   7.100  68.272  1.00  0.00    -0.151 C  
HETATM   12  O   UNL     1     -10.570   4.900  68.976  1.00  0.00    -0.035 OA 
HETATM   13  H2  UNL     1      -8.340   7.541  63.882  1.00  0.00     0.000 HD 
HETATM   14  H   UNL     1     -10.442   3.961  68.900  1.00  0.00     0.000 HD 
HETATM   15  C   UNL     1      -9.617   5.582  68.150  1.00  0.00    -0.119 C  
HETATM   16  H1  UNL     1      -8.448   8.944  64.825  1.00  0.00     0.000 HD 
HETATM   17  C   UNL     1      -8.873   5.772  65.766  1.00  0.00    -0.151 C  
HETATM   18  N   UNL     1      -9.589   3.601  66.697  1.00  0.00    -0.338 NA 
HETATM   19  N   UNL     1      -8.263   7.941  64.816  1.00  0.00    -0.137 NA 
HETATM   20  H1  UNL     1      -9.721   3.252  65.748  1.00  0.00     0.000 HD 
HETATM   21  H2  UNL     1     -10.173   3.108  67.372  1.00  0.00     0.000 HD 
HETATM   22  C   UNL     1      -9.151   7.281  65.780  1.00  0.00     0.050 C  
HETATM   23  C   UNL     1      -9.815   5.056  66.724  1.00  0.00    -0.192 C  
HETATM   24  C   UNL     1      -9.009   7.901  67.212  1.00  0.00    -0.127 C  
BRANCH  24  25
HETATM   25  O   UNL     1      -9.266   9.330  67.272  1.00  0.00    -0.125 OA 
BRANCH  25  26
HETATM   26  C   UNL     1     -10.466   9.793  66.639  1.00  0.00    -0.163 C  
HETATM   27  O   UNL     1     -11.420  10.238  67.606  1.00  0.00    -0.345 OA 
HETATM   28  C   UNL     1     -10.977  11.392  68.336  1.00  0.00    -0.215 C  
HETATM   29  C   UNL     1     -10.847  12.589  67.385  1.00  0.00    -0.240 C  
HETATM   30  H2  UNL     1      -9.427   9.718  64.098  1.00  0.00     0.000 HD 
HETATM   31  C   UNL     1      -9.837  12.242  66.290  1.00  0.00    -0.241 C  
HETATM   32  O   UNL     1     -10.366  13.780  68.026  1.00  0.00    -0.235 OA 
HETATM   33  H1  UNL     1      -9.008  11.325  63.887  1.00  0.00     0.000 HD 
HETATM   34  H   UNL     1     -10.286  14.521  67.437  1.00  0.00     0.000 HD 
HETATM   35  H   UNL     1      -9.172  13.094  64.646  1.00  0.00     0.000 HD 
HETATM   36  N   UNL     1      -9.182  10.587  64.570  1.00  0.00    -0.220 NA 
HETATM   37  O   UNL     1      -9.800  13.310  65.326  1.00  0.00    -0.196 OA 
HETATM   38  C   UNL     1     -10.199  10.921  65.594  1.00  0.00    -0.263 C  
BRANCH  28  39
HETATM   39  C   UNL     1     -11.970  11.618  69.489  1.00  0.00    -0.317 C  
HETATM   40  H2  UNL     1     -12.362   9.626  69.851  1.00  0.00     0.000 HD 
HETATM   41  N   UNL     1     -12.885  10.490  69.712  1.00  0.00    -0.567 NA 
HETATM   42  H1  UNL     1     -13.543  10.640  70.478  1.00  0.00     0.000 HD 
ENDBRANCH  28  39
ENDBRANCH  25  26
ENDBRANCH  24  25
ENDBRANCH  10  11
ENDBRANCH   1  10
BRANCH   5  43
HETATM   43  C   UNL     1      -8.886   7.922  72.797  1.00  0.00    -0.189 C  
HETATM   44  O   UNL     1      -7.855   8.910  72.692  1.00  0.00    -0.372 OA 
HETATM   45  H   UNL     1      -7.012   8.509  72.864  1.00  0.00     0.000 HD 
ENDBRANCH   5  43
TORSDOF 6
ENDMDL
MODEL      159
REMARK 921   NORMALIZED FREE ENERGY PREDICTED BY IDOCK:   -4.92 KCAL/MOL
REMARK 922        TOTAL FREE ENERGY PREDICTED BY IDOCK:   -8.29 KCAL/MOL
REMARK 923 INTER-LIGAND FREE ENERGY PREDICTED BY IDOCK:   -7.34 KCAL/MOL
REMARK 924 INTRA-LIGAND FREE ENERGY PREDICTED BY IDOCK:   -0.95 KCAL/MOL
REMARK 927      BINDING AFFINITY PREDICTED BY RF-SCORE:    0.00 PKD
ROOT
HETATM    1  C   UNL     1     -10.244  11.424  65.974  1.00  0.00    -0.245 C  
HETATM    2  O   UNL     1      -9.223  11.520  62.812  1.00  0.00    -0.464 OA 
HETATM    3  O   UNL     1     -10.001  12.777  65.563  1.00  0.00    -0.271 OA 
HETATM    4  H   UNL     1      -9.463   9.161  63.679  1.00  0.00     0.000 HD 
HETATM    5  C   UNL     1     -10.577  12.974  64.258  1.00  0.00    -0.412 C  
HETATM    6  H   UNL     1      -9.147  10.682  62.371  1.00  0.00     0.000 HD 
HETATM    7  C   UNL     1     -10.454  11.631  63.553  1.00  0.00    -0.443 C  
HETATM    8  O   UNL     1      -9.350   9.670  64.473  1.00  0.00    -0.261 OA 
HETATM    9  C   UNL     1     -10.429  10.596  64.680  1.00  0.00    -0.205 C  
ENDROOT
BRANCH   1  10
HETATM   10  O   UNL     1     -11.437  11.347  66.759  1.00  0.00    -0.427 OA 
BRANCH  10  11
HETATM   11  C   UNL     1     -11.301  11.249  68.203  1.00  0.00    -0.303 C  
HETATM   12  O   UNL     1     -10.770   8.881  68.125  1.00  0.00    -0.391 OA 
HETATM   13  H2  UNL     1     -12.693  12.983  72.294  1.00  0.00     0.000 HD 
HETATM   14  H   UNL     1     -10.985   8.013  68.447  1.00  0.00     0.000 HD 
HETATM   15  C   UNL     1     -11.648   9.845  68.723  1.00  0.00     0.209 C  
HETATM   16  H1  UNL     1     -12.464  14.067  71.012  1.00  0.00     0.000 HD 
HETATM   17  C   UNL     1     -12.346  10.733  70.958  1.00  0.00    -0.509 C  
HETATM   18  N   UNL     1     -11.845   8.336  70.653  1.00  0.00    -0.472 NA 
HETATM   19  N   UNL     1     -12.741  13.124  71.285  1.00  0.00    -0.352 NA 
HETATM   20  H1  UNL     1     -11.736   8.243  71.663  1.00  0.00     0.000 HD 
HETATM   21  H2  UNL     1     -11.316   7.629  70.142  1.00  0.00     0.000 HD 
HETATM   22  C   UNL     1     -11.929  12.151  70.547  1.00  0.00    -0.216 C  
HETATM   23  C   UNL     1     -11.485   9.703  70.241  1.00  0.00    -0.233 C  
HETATM   24  C   UNL     1     -12.027  12.375  68.999  1.00  0.00    -0.241 C  
BRANCH  24  25
HETATM   25  O   UNL     1     -11.639  13.706  68.563  1.00  0.00    -0.289 OA 
BRANCH  25  26
HETATM   26  C   UNL     1     -10.711  14.410  69.398  1.00  0.00    -0.162 C  
HETATM   27  O   UNL     1      -9.540  13.626  69.643  1.00  0.00     0.802 OA 
HETATM   28  C   UNL     1      -8.777  13.379  68.453  1.00  0.00    -0.134 C  
HETATM   29  C   UNL     1      -8.216  14.702  67.913  1.00  0.00    -0.150 C  
HETATM   30  H2  UNL     1     -12.063  16.798  69.281  1.00  0.00     0.000 HD 
HETATM   31  C   UNL     1      -9.381  15.642  67.602  1.00  0.00    -0.206 C  
HETATM   32  O   UNL     1      -7.471  14.552  66.695  1.00  0.00    -0.195 OA 
HETATM   33  H1  UNL     1     -11.189  17.589  68.092  1.00  0.00     0.000 HD 
HETATM   34  H   UNL     1      -7.123  15.371  66.361  1.00  0.00     0.000 HD 
HETATM   35  H   UNL     1      -9.585  17.510  67.018  1.00  0.00     0.000 HD 
HETATM   36  N   UNL     1     -11.451  16.680  68.473  1.00  0.00    -0.172 NA 
HETATM   37  O   UNL     1      -8.861  16.926  67.211  1.00  0.00    -0.192 OA 
HETATM   38  C   UNL     1     -10.310  15.801  68.816  1.00  0.00    -0.220 C  
BRANCH  28  39
HETATM   39  C   UNL     1      -7.697  12.341  68.804  1.00  0.00    -0.016 C  
HETATM   40  H2  UNL     1      -8.876  10.674  68.519  1.00  0.00     0.000 HD 
HETATM   41  N   UNL     1      -8.239  11.042  69.224  1.00  0.00    -0.370 NA 
HETATM   42  H1  UNL     1      -7.522  10.354  69.457  1.00  0.00     0.000 HD 
ENDBRANCH  28  39
ENDBRANCH  25  26
ENDBRANCH  24  25
ENDBRANCH  10  11
ENDBRANCH   1  10
BRANCH   5  43
HETATM   43  C   UNL     1     -12.031  13.458  64.333  1.00  0.00    -0.411 C  
HETATM   44  O   UNL     1     -12.277  14.035  65.620  1.00  0.00    -0.394 OA 
HETATM   45  H   UNL     1     -13.177  14.335  65.667  1.00  0.00     0.000 HD 
ENDBRANCH   5  43
TORSDOF 6
ENDMDL
MODEL      160
REMARK 921   NORMALIZED FREE ENERGY PREDICTED BY IDOCK:   -4.91 KCAL/MOL
REMARK 922        TOTAL FREE ENERGY PREDICTED BY IDOCK:   -8.28 KCAL/MOL
REMARK 923 INTER-LIGAND FREE ENERGY PREDICTED BY IDOCK:   -6.81 KCAL/MOL
REMARK 924 INTRA-LIGAND FREE ENERGY PREDICTED BY IDOCK:   -1.47 KCAL/MOL
REMARK 927      BINDING AFFINITY PREDICTED BY RF-SCORE:    0.00 PKD
ROOT
HETATM    1  C   UNL     1     -11.095   7.011  70.421  1.00  0.00    -0.287 C  
HETATM    2  O   UNL     1     -10.949   6.640  73.721  1.00  0.00    -0.482 OA 
HETATM    3  O   UNL     1     -12.387   6.679  70.949  1.00  0.00    -0.353 OA 
HETATM    4  H   UNL     1      -8.676   7.011  72.688  1.00  0.00     0.000 HD 
HETATM    5  C   UNL     1     -12.624   7.473  72.127  1.00  0.00    -0.164 C  
HETATM    6  H   UNL     1     -10.096   6.765  74.119  1.00  0.00     0.000 HD 
HETATM    7  C   UNL     1     -11.256   7.672  72.763  1.00  0.00    -0.377 C  
HETATM    8  O   UNL     1      -9.188   6.675  71.962  1.00  0.00    -0.144 OA 
HETATM    9  C   UNL     1     -10.262   7.559  71.604  1.00  0.00    -0.184 C  
ENDROOT
BRANCH   1  10
HETATM   10  O   UNL     1     -11.212   8.022  69.417  1.00  0.00     0.012 OA 
BRANCH  10  11
HETATM   11  C   UNL     1     -10.027   8.798  69.085  1.00  0.00    -0.191 C  
HETATM   12  O   UNL     1     -10.828  10.769  70.253  1.00  0.00    -0.458 OA 
HETATM   13  H2  UNL     1      -6.610   9.405  65.982  1.00  0.00     0.000 HD 
HETATM   14  H   UNL     1     -11.013  11.700  70.196  1.00  0.00     0.000 HD 
HETATM   15  C   UNL     1     -10.327  10.303  68.993  1.00  0.00    -0.211 C  
HETATM   16  H1  UNL     1      -7.107   7.819  66.311  1.00  0.00     0.000 HD 
HETATM   17  C   UNL     1      -8.457  10.680  67.370  1.00  0.00    -0.122 C  
HETATM   18  N   UNL     1      -9.466  12.570  68.596  1.00  0.00    -0.403 NA 
HETATM   19  N   UNL     1      -7.388   8.797  66.235  1.00  0.00    -0.086 NA 
HETATM   20  H1  UNL     1      -8.642  13.132  68.383  1.00  0.00     0.000 HD 
HETATM   21  H2  UNL     1      -9.941  12.888  69.440  1.00  0.00     0.000 HD 
HETATM   22  C   UNL     1      -8.035   9.210  67.485  1.00  0.00    -0.100 C  
HETATM   23  C   UNL     1      -9.088  11.148  68.674  1.00  0.00    -0.166 C  
HETATM   24  C   UNL     1      -9.235   8.271  67.850  1.00  0.00    -0.132 C  
BRANCH  24  25
HETATM   25  O   UNL     1      -8.880   6.867  67.971  1.00  0.00    -0.125 OA 
BRANCH  25  26
HETATM   26  C   UNL     1      -9.719   5.932  67.281  1.00  0.00    -0.127 C  
HETATM   27  O   UNL     1      -9.505   5.990  65.869  1.00  0.00    -0.098 OA 
HETATM   28  C   UNL     1      -8.185   5.577  65.488  1.00  0.00    -0.130 C  
HETATM   29  C   UNL     1      -7.990   4.091  65.818  1.00  0.00    -0.097 C  
HETATM   30  H2  UNL     1     -10.575   4.669  69.565  1.00  0.00     0.000 HD 
HETATM   31  C   UNL     1      -8.188   3.889  67.320  1.00  0.00    -0.098 C  
HETATM   32  O   UNL     1      -6.676   3.603  65.507  1.00  0.00    -0.046 OA 
HETATM   33  H1  UNL     1      -9.557   3.341  69.585  1.00  0.00     0.000 HD 
HETATM   34  H   UNL     1      -6.556   2.683  65.711  1.00  0.00     0.000 HD 
HETATM   35  H   UNL     1      -8.252   2.357  68.554  1.00  0.00     0.000 HD 
HETATM   36  N   UNL     1      -9.679   4.298  69.253  1.00  0.00    -0.189 NA 
HETATM   37  O   UNL     1      -8.128   2.483  67.620  1.00  0.00    -0.067 OA 
HETATM   38  C   UNL     1      -9.533   4.468  67.789  1.00  0.00    -0.156 C  
BRANCH  28  39
HETATM   39  C   UNL     1      -8.008   5.913  63.997  1.00  0.00    -0.121 C  
HETATM   40  H2  UNL     1      -7.399   7.864  64.268  1.00  0.00     0.000 HD 
HETATM   41  N   UNL     1      -8.073   7.350  63.702  1.00  0.00    -0.316 NA 
HETATM   42  H1  UNL     1      -7.956   7.572  62.713  1.00  0.00     0.000 HD 
ENDBRANCH  28  39
ENDBRANCH  25  26
ENDBRANCH  24  25
ENDBRANCH  10  11
ENDBRANCH   1  10
BRANCH   5  43
HETATM   43  C   UNL     1     -13.310   8.806  71.800  1.00  0.00    -0.378 C  
HETATM   44  O   UNL     1     -14.248   9.127  72.833  1.00  0.00    -1.016 OA 
HETATM   45  H   UNL     1     -14.673   9.951  72.631  1.00  0.00     0.000 HD 
ENDBRANCH   5  43
TORSDOF 6
ENDMDL
MODEL      161
REMARK 921   NORMALIZED FREE ENERGY PREDICTED BY IDOCK:   -4.91 KCAL/MOL
REMARK 922        TOTAL FREE ENERGY PREDICTED BY IDOCK:   -8.28 KCAL/MOL
REMARK 923 INTER-LIGAND FREE ENERGY PREDICTED BY IDOCK:   -6.69 KCAL/MOL
REMARK 924 INTRA-LIGAND FREE ENERGY PREDICTED BY IDOCK:   -1.59 KCAL/MOL
REMARK 927      BINDING AFFINITY PREDICTED BY RF-SCORE:    0.00 PKD
ROOT
HETATM    1  C   UNL     1     -10.319   7.942  70.632  1.00  0.00    -0.202 C  
HETATM    2  O   UNL     1     -12.904   6.806  72.386  1.00  0.00    -0.518 OA 
HETATM    3  O   UNL     1     -10.578   8.793  71.757  1.00  0.00    -0.292 OA 
HETATM    4  H   UNL     1     -12.518   5.487  70.268  1.00  0.00     0.000 HD 
HETATM    5  C   UNL     1     -10.806   7.970  72.917  1.00  0.00    -0.330 C  
HETATM    6  H   UNL     1     -13.316   6.015  72.059  1.00  0.00     0.000 HD 
HETATM    7  C   UNL     1     -11.467   6.703  72.392  1.00  0.00    -0.262 C  
HETATM    8  O   UNL     1     -12.106   6.322  70.078  1.00  0.00    -0.118 OA 
HETATM    9  C   UNL     1     -10.989   6.583  70.943  1.00  0.00    -0.274 C  
ENDROOT
BRANCH   1  10
HETATM   10  O   UNL     1      -8.912   7.748  70.467  1.00  0.00    -0.147 OA 
BRANCH  10  11
HETATM   11  C   UNL     1      -8.288   8.251  69.253  1.00  0.00    -0.122 C  
HETATM   12  O   UNL     1      -7.901  10.450  70.206  1.00  0.00    -0.416 OA 
HETATM   13  H2  UNL     1      -8.117   7.880  64.616  1.00  0.00     0.000 HD 
HETATM   14  H   UNL     1      -8.022  11.387  70.103  1.00  0.00     0.000 HD 
HETATM   15  C   UNL     1      -8.483   9.766  69.088  1.00  0.00    -0.143 C  
HETATM   16  H1  UNL     1      -8.308   6.458  65.516  1.00  0.00     0.000 HD 
HETATM   17  C   UNL     1      -8.333   9.616  66.592  1.00  0.00    -0.123 C  
HETATM   18  N   UNL     1      -8.054  11.780  67.745  1.00  0.00    -0.134 NA 
HETATM   19  N   UNL     1      -8.507   7.457  65.457  1.00  0.00    -0.140 NA 
HETATM   20  H1  UNL     1      -7.606  12.154  66.909  1.00  0.00     0.000 HD 
HETATM   21  H2  UNL     1      -7.760  12.269  68.591  1.00  0.00     0.000 HD 
HETATM   22  C   UNL     1      -8.035   8.114  66.681  1.00  0.00    -0.102 C  
HETATM   23  C   UNL     1      -7.810  10.330  67.830  1.00  0.00    -0.101 C  
HETATM   24  C   UNL     1      -8.654   7.458  67.963  1.00  0.00    -0.122 C  
BRANCH  24  25
HETATM   25  O   UNL     1      -8.394   6.034  68.089  1.00  0.00    -0.112 OA 
BRANCH  25  26
HETATM   26  C   UNL     1      -9.533   5.190  68.306  1.00  0.00    -0.128 C  
HETATM   27  O   UNL     1     -10.173   4.859  67.072  1.00  0.00    -0.206 OA 
HETATM   28  C   UNL     1      -9.345   4.063  66.212  1.00  0.00    -0.174 C  
HETATM   29  C   UNL     1      -9.087   2.695  66.859  1.00  0.00    -0.139 C  
HETATM   30  H2  UNL     1      -8.985   4.750  70.962  1.00  0.00     0.000 HD 
HETATM   31  C   UNL     1      -8.391   2.910  68.204  1.00  0.00    -0.078 C  
HETATM   32  O   UNL     1      -8.229   1.847  66.082  1.00  0.00    -0.078 OA 
HETATM   33  H1  UNL     1      -8.227   3.260  70.878  1.00  0.00     0.000 HD 
HETATM   34  H   UNL     1      -8.069   1.000  66.483  1.00  0.00     0.000 HD 
HETATM   35  H   UNL     1      -7.823   1.776  69.709  1.00  0.00     0.000 HD 
HETATM   36  N   UNL     1      -8.459   4.111  70.366  1.00  0.00    -0.071 NA 
HETATM   37  O   UNL     1      -8.255   1.643  68.873  1.00  0.00    -0.048 OA 
HETATM   38  C   UNL     1      -9.177   3.888  69.090  1.00  0.00    -0.156 C  
BRANCH  28  39
HETATM   39  C   UNL     1     -10.044   3.982  64.844  1.00  0.00    -0.205 C  
HETATM   40  H2  UNL     1     -11.545   5.330  65.270  1.00  0.00     0.000 HD 
HETATM   41  N   UNL     1     -11.453   4.395  64.873  1.00  0.00    -1.068 NA 
HETATM   42  H1  UNL     1     -11.917   4.342  63.966  1.00  0.00     0.000 HD 
ENDBRANCH  28  39
ENDBRANCH  25  26
ENDBRANCH  24  25
ENDBRANCH  10  11
ENDBRANCH   1  10
BRANCH   5  43
HETATM   43  C   UNL     1      -9.510   7.673  73.681  1.00  0.00    -0.282 C  
HETATM   44  O   UNL     1      -8.508   8.628  73.312  1.00  0.00    -0.395 OA 
HETATM   45  H   UNL     1      -7.705   8.444  73.785  1.00  0.00     0.000 HD 
ENDBRANCH   5  43
TORSDOF 6
ENDMDL
MODEL      162
REMARK 921   NORMALIZED FREE ENERGY PREDICTED BY IDOCK:   -4.91 KCAL/MOL
REMARK 922        TOTAL FREE ENERGY PREDICTED BY IDOCK:   -8.27 KCAL/MOL
REMARK 923 INTER-LIGAND FREE ENERGY PREDICTED BY IDOCK:   -8.30 KCAL/MOL
REMARK 924 INTRA-LIGAND FREE ENERGY PREDICTED BY IDOCK:    0.03 KCAL/MOL
REMARK 927      BINDING AFFINITY PREDICTED BY RF-SCORE:    0.00 PKD
ROOT
HETATM    1  C   UNL     1      -9.742  16.132  66.595  1.00  0.00    -0.244 C  
HETATM    2  O   UNL     1      -9.718  18.959  68.344  1.00  0.00    -0.335 OA 
HETATM    3  O   UNL     1      -8.747  17.032  66.086  1.00  0.00    -0.406 OA 
HETATM    4  H   UNL     1     -11.586  17.408  69.037  1.00  0.00     0.000 HD 
HETATM    5  C   UNL     1      -8.025  17.598  67.195  1.00  0.00    -0.211 C  
HETATM    6  H   UNL     1     -10.347  19.017  69.054  1.00  0.00     0.000 HD 
HETATM    7  C   UNL     1      -9.033  17.691  68.331  1.00  0.00    -0.280 C  
HETATM    8  O   UNL     1     -11.390  17.124  68.152  1.00  0.00    -0.121 OA 
HETATM    9  C   UNL     1     -10.060  16.595  68.036  1.00  0.00    -0.262 C  
ENDROOT
BRANCH   1  10
HETATM   10  O   UNL     1      -9.234  14.796  66.629  1.00  0.00    -0.247 OA 
BRANCH  10  11
HETATM   11  C   UNL     1      -9.671  13.870  65.595  1.00  0.00    -0.128 C  
HETATM   12  O   UNL     1     -10.697  15.627  64.271  1.00  0.00    -0.697 OA 
HETATM   13  H2  UNL     1     -10.973   9.492  64.695  1.00  0.00     0.000 HD 
HETATM   14  H   UNL     1     -11.485  15.927  63.831  1.00  0.00     0.000 HD 
HETATM   15  C   UNL     1     -10.945  14.355  64.884  1.00  0.00    -0.406 C  
HETATM   16  H1  UNL     1      -9.728   9.732  65.820  1.00  0.00     0.000 HD 
HETATM   17  C   UNL     1     -11.647  12.016  64.327  1.00  0.00    -0.435 C  
HETATM   18  N   UNL     1     -12.637  13.947  63.150  1.00  0.00    -0.976 NA 
HETATM   19  N   UNL     1     -10.590  10.100  65.418  1.00  0.00     0.010 NA 
HETATM   20  H1  UNL     1     -12.947  13.320  62.408  1.00  0.00     0.000 HD 
HETATM   21  H2  UNL     1     -12.516  14.904  62.819  1.00  0.00     0.000 HD 
HETATM   22  C   UNL     1     -10.350  11.463  64.930  1.00  0.00    -0.292 C  
HETATM   23  C   UNL     1     -11.412  13.413  63.769  1.00  0.00    -0.241 C  
HETATM   24  C   UNL     1      -9.775  12.386  66.059  1.00  0.00    -0.244 C  
BRANCH  24  25
HETATM   25  O   UNL     1      -8.544  11.900  66.658  1.00  0.00    -0.187 OA 
BRANCH  25  26
HETATM   26  C   UNL     1      -8.389  12.112  68.067  1.00  0.00    -0.167 C  
HETATM   27  O   UNL     1      -9.625  12.505  68.669  1.00  0.00    -0.144 OA 
HETATM   28  C   UNL     1     -10.625  11.478  68.608  1.00  0.00    -0.208 C  
HETATM   29  C   UNL     1     -10.184  10.273  69.451  1.00  0.00    -0.235 C  
HETATM   30  H2  UNL     1      -5.849  11.073  68.175  1.00  0.00     0.000 HD 
HETATM   31  C   UNL     1      -8.859   9.745  68.901  1.00  0.00    -0.140 C  
HETATM   32  O   UNL     1     -11.111   9.177  69.412  1.00  0.00    -0.406 OA 
HETATM   33  H1  UNL     1      -6.172   9.520  68.711  1.00  0.00     0.000 HD 
HETATM   34  H   UNL     1     -10.838   8.432  69.934  1.00  0.00     0.000 HD 
HETATM   35  H   UNL     1      -7.552   8.367  69.417  1.00  0.00     0.000 HD 
HETATM   36  N   UNL     1      -6.551  10.335  68.229  1.00  0.00    -0.057 NA 
HETATM   37  O   UNL     1      -8.376   8.695  69.758  1.00  0.00    -0.117 OA 
HETATM   38  C   UNL     1      -7.809  10.864  68.804  1.00  0.00    -0.132 C  
BRANCH  28  39
HETATM   39  C   UNL     1     -11.956  12.102  69.062  1.00  0.00    -0.247 C  
HETATM   40  H2  UNL     1     -11.340  12.603  70.966  1.00  0.00     0.000 HD 
HETATM   41  N   UNL     1     -12.128  12.133  70.521  1.00  0.00    -0.461 NA 
HETATM   42  H1  UNL     1     -13.011  12.547  70.822  1.00  0.00     0.000 HD 
ENDBRANCH  28  39
ENDBRANCH  25  26
ENDBRANCH  24  25
ENDBRANCH  10  11
ENDBRANCH   1  10
BRANCH   5  43
HETATM   43  C   UNL     1      -6.798  16.760  67.576  1.00  0.00    -0.145 C  
HETATM   44  O   UNL     1      -6.632  15.697  66.630  1.00  0.00    -0.135 OA 
HETATM   45  H   UNL     1      -5.873  15.178  66.867  1.00  0.00     0.000 HD 
ENDBRANCH   5  43
TORSDOF 6
ENDMDL
MODEL      163
REMARK 921   NORMALIZED FREE ENERGY PREDICTED BY IDOCK:   -4.90 KCAL/MOL
REMARK 922        TOTAL FREE ENERGY PREDICTED BY IDOCK:   -8.27 KCAL/MOL
REMARK 923 INTER-LIGAND FREE ENERGY PREDICTED BY IDOCK:   -7.73 KCAL/MOL
REMARK 924 INTRA-LIGAND FREE ENERGY PREDICTED BY IDOCK:   -0.54 KCAL/MOL
REMARK 927      BINDING AFFINITY PREDICTED BY RF-SCORE:    0.00 PKD
ROOT
HETATM    1  C   UNL     1     -10.736   8.184  69.844  1.00  0.00    -0.241 C  
HETATM    2  O   UNL     1     -12.021   8.073  72.908  1.00  0.00    -0.611 OA 
HETATM    3  O   UNL     1     -12.102   8.623  69.834  1.00  0.00     0.506 OA 
HETATM    4  H   UNL     1      -9.689   7.111  72.801  1.00  0.00     0.000 HD 
HETATM    5  C   UNL     1     -12.307   9.520  70.942  1.00  0.00    -0.228 C  
HETATM    6  H   UNL     1     -11.441   7.766  73.594  1.00  0.00     0.000 HD 
HETATM    7  C   UNL     1     -11.377   9.027  72.041  1.00  0.00    -0.324 C  
HETATM    8  O   UNL     1      -9.994   7.032  71.905  1.00  0.00    -0.169 OA 
HETATM    9  C   UNL     1     -10.241   8.313  71.304  1.00  0.00    -0.202 C  
ENDROOT
BRANCH   1  10
HETATM   10  O   UNL     1      -9.938   9.017  68.999  1.00  0.00    -0.175 OA 
BRANCH  10  11
HETATM   11  C   UNL     1      -9.667   8.560  67.645  1.00  0.00    -0.160 C  
HETATM   12  O   UNL     1      -9.329   6.261  68.347  1.00  0.00    -0.115 OA 
HETATM   13  H2  UNL     1      -8.008   9.776  63.468  1.00  0.00     0.000 HD 
HETATM   14  H   UNL     1      -8.749   5.509  68.332  1.00  0.00     0.000 HD 
HETATM   15  C   UNL     1      -8.729   7.343  67.622  1.00  0.00    -0.125 C  
HETATM   16  H1  UNL     1      -8.916  10.923  64.323  1.00  0.00     0.000 HD 
HETATM   17  C   UNL     1      -7.858   7.930  65.348  1.00  0.00    -0.112 C  
HETATM   18  N   UNL     1      -7.539   5.665  66.277  1.00  0.00    -0.090 NA 
HETATM   19  N   UNL     1      -8.265  10.140  64.385  1.00  0.00    -0.161 NA 
HETATM   20  H1  UNL     1      -7.353   5.319  65.336  1.00  0.00     0.000 HD 
HETATM   21  H2  UNL     1      -7.893   4.934  66.893  1.00  0.00     0.000 HD 
HETATM   22  C   UNL     1      -8.837   9.107  65.255  1.00  0.00    -0.199 C  
HETATM   23  C   UNL     1      -8.449   6.821  66.207  1.00  0.00    -0.131 C  
HETATM   24  C   UNL     1      -9.212   9.683  66.664  1.00  0.00    -0.151 C  
BRANCH  24  25
HETATM   25  O   UNL     1     -10.141  10.800  66.623  1.00  0.00    -0.203 OA 
BRANCH  25  26
HETATM   26  C   UNL     1      -9.633  12.037  66.108  1.00  0.00    -0.239 C  
HETATM   27  O   UNL     1     -10.156  12.307  64.805  1.00  0.00    -0.277 OA 
HETATM   28  C   UNL     1     -11.575  12.520  64.808  1.00  0.00    -0.337 C  
HETATM   29  C   UNL     1     -11.908  13.793  65.597  1.00  0.00    -0.365 C  
HETATM   30  H2  UNL     1      -8.470  12.809  68.473  1.00  0.00     0.000 HD 
HETATM   31  C   UNL     1     -11.400  13.632  67.030  1.00  0.00    -0.324 C  
HETATM   32  O   UNL     1     -13.315  14.060  65.687  1.00  0.00    -0.690 OA 
HETATM   33  H1  UNL     1      -9.642  13.842  69.072  1.00  0.00     0.000 HD 
HETATM   34  H   UNL     1     -13.521  14.848  66.175  1.00  0.00     0.000 HD 
HETATM   35  H   UNL     1     -11.282  14.766  68.634  1.00  0.00     0.000 HD 
HETATM   36  N   UNL     1      -9.459  13.053  68.453  1.00  0.00    -0.199 NA 
HETATM   37  O   UNL     1     -11.597  14.866  67.743  1.00  0.00    -0.330 OA 
HETATM   38  C   UNL     1      -9.913  13.245  67.055  1.00  0.00    -0.238 C  
BRANCH  28  39
HETATM   39  C   UNL     1     -12.039  12.557  63.341  1.00  0.00    -0.529 C  
HETATM   40  H2  UNL     1     -13.962  11.897  63.690  1.00  0.00     0.000 HD 
HETATM   41  N   UNL     1     -13.187  11.684  63.062  1.00  0.00    -0.627 NA 
HETATM   42  H1  UNL     1     -13.495  11.709  62.089  1.00  0.00     0.000 HD 
ENDBRANCH  28  39
ENDBRANCH  25  26
ENDBRANCH  24  25
ENDBRANCH  10  11
ENDBRANCH   1  10
BRANCH   5  43
HETATM   43  C   UNL     1     -12.034  10.981  70.563  1.00  0.00    -0.379 C  
HETATM   44  O   UNL     1     -11.859  11.083  69.146  1.00  0.00    -0.303 OA 
HETATM   45  H   UNL     1     -11.689  11.987  68.911  1.00  0.00     0.000 HD 
ENDBRANCH   5  43
TORSDOF 6
ENDMDL
MODEL      164
REMARK 921   NORMALIZED FREE ENERGY PREDICTED BY IDOCK:   -4.88 KCAL/MOL
REMARK 922        TOTAL FREE ENERGY PREDICTED BY IDOCK:   -8.24 KCAL/MOL
REMARK 923 INTER-LIGAND FREE ENERGY PREDICTED BY IDOCK:   -7.31 KCAL/MOL
REMARK 924 INTRA-LIGAND FREE ENERGY PREDICTED BY IDOCK:   -0.93 KCAL/MOL
REMARK 927      BINDING AFFINITY PREDICTED BY RF-SCORE:    0.00 PKD
ROOT
HETATM    1  C   UNL     1     -11.096   7.453  70.371  1.00  0.00    -0.265 C  
HETATM    2  O   UNL     1     -10.546   6.950  73.611  1.00  0.00    -0.336 OA 
HETATM    3  O   UNL     1     -12.150   6.666  70.946  1.00  0.00    -0.377 OA 
HETATM    4  H   UNL     1      -8.630   8.140  72.478  1.00  0.00     0.000 HD 
HETATM    5  C   UNL     1     -12.536   7.256  72.201  1.00  0.00    -0.168 C  
HETATM    6  H   UNL     1      -9.753   7.335  73.965  1.00  0.00     0.000 HD 
HETATM    7  C   UNL     1     -11.265   7.872  72.768  1.00  0.00    -0.405 C  
HETATM    8  O   UNL     1      -9.060   7.695  71.758  1.00  0.00    -0.130 OA 
HETATM    9  C   UNL     1     -10.397   8.178  71.545  1.00  0.00    -0.209 C  
ENDROOT
BRANCH   1  10
HETATM   10  O   UNL     1     -11.634   8.423  69.469  1.00  0.00     0.313 OA 
BRANCH  10  11
HETATM   11  C   UNL     1     -10.703   9.267  68.737  1.00  0.00    -0.154 C  
HETATM   12  O   UNL     1     -10.756  11.014  70.423  1.00  0.00    -0.351 OA 
HETATM   13  H2  UNL     1      -9.110  10.429  64.519  1.00  0.00     0.000 HD 
HETATM   14  H   UNL     1     -10.895  11.937  70.598  1.00  0.00     0.000 HD 
HETATM   15  C   UNL     1     -10.929  10.761  69.022  1.00  0.00    -0.240 C  
HETATM   16  H1  UNL     1      -9.480   8.800  64.804  1.00  0.00     0.000 HD 
HETATM   17  C   UNL     1     -10.020  11.429  66.786  1.00  0.00    -0.238 C  
HETATM   18  N   UNL     1     -10.234  13.081  68.607  1.00  0.00    -0.372 NA 
HETATM   19  N   UNL     1      -9.711   9.771  65.015  1.00  0.00    -0.285 NA 
HETATM   20  H1  UNL     1      -9.577  13.688  68.117  1.00  0.00     0.000 HD 
HETATM   21  H2  UNL     1     -10.240  13.253  69.612  1.00  0.00     0.000 HD 
HETATM   22  C   UNL     1      -9.673   9.969  66.468  1.00  0.00    -0.200 C  
HETATM   23  C   UNL     1      -9.941  11.674  68.286  1.00  0.00    -0.201 C  
HETATM   24  C   UNL     1     -10.611   8.958  67.212  1.00  0.00    -0.234 C  
BRANCH  24  25
HETATM   25  O   UNL     1     -10.317   7.561  66.942  1.00  0.00    -0.284 OA 
BRANCH  25  26
HETATM   26  C   UNL     1      -8.989   7.115  67.245  1.00  0.00    -0.123 C  
HETATM   27  O   UNL     1      -8.977   6.283  68.407  1.00  0.00    -0.118 OA 
HETATM   28  C   UNL     1      -9.692   5.053  68.220  1.00  0.00    -0.146 C  
HETATM   29  C   UNL     1      -8.986   4.197  67.161  1.00  0.00    -0.128 C  
HETATM   30  H2  UNL     1      -7.898   8.040  64.900  1.00  0.00     0.000 HD 
HETATM   31  C   UNL     1      -8.936   4.979  65.848  1.00  0.00    -0.141 C  
HETATM   32  O   UNL     1      -9.661   2.962  66.879  1.00  0.00    -0.398 OA 
HETATM   33  H1  UNL     1      -7.880   6.635  63.991  1.00  0.00     0.000 HD 
HETATM   34  H   UNL     1      -9.223   2.432  66.224  1.00  0.00     0.000 HD 
HETATM   35  H   UNL     1      -8.137   4.721  64.068  1.00  0.00     0.000 HD 
HETATM   36  N   UNL     1      -8.321   7.121  64.772  1.00  0.00    -0.043 NA 
HETATM   37  O   UNL     1      -8.168   4.235  64.884  1.00  0.00    -0.099 OA 
HETATM   38  C   UNL     1      -8.316   6.371  66.049  1.00  0.00    -0.132 C  
BRANCH  28  39
HETATM   39  C   UNL     1      -9.808   4.373  69.595  1.00  0.00    -0.202 C  
HETATM   40  H2  UNL     1      -8.163   3.147  69.387  1.00  0.00     0.000 HD 
HETATM   41  N   UNL     1      -9.140   3.066  69.667  1.00  0.00    -0.115 NA 
HETATM   42  H1  UNL     1      -9.217   2.615  70.579  1.00  0.00     0.000 HD 
ENDBRANCH  28  39
ENDBRANCH  25  26
ENDBRANCH  24  25
ENDBRANCH  10  11
ENDBRANCH   1  10
BRANCH   5  43
HETATM   43  C   UNL     1     -13.656   8.291  72.035  1.00  0.00    -0.324 C  
HETATM   44  O   UNL     1     -13.960   8.875  73.307  1.00  0.00    -1.203 OA 
HETATM   45  H   UNL     1     -14.653   9.515  73.204  1.00  0.00     0.000 HD 
ENDBRANCH   5  43
TORSDOF 6
ENDMDL
MODEL      165
REMARK 921   NORMALIZED FREE ENERGY PREDICTED BY IDOCK:   -4.88 KCAL/MOL
REMARK 922        TOTAL FREE ENERGY PREDICTED BY IDOCK:   -8.24 KCAL/MOL
REMARK 923 INTER-LIGAND FREE ENERGY PREDICTED BY IDOCK:   -6.40 KCAL/MOL
REMARK 924 INTRA-LIGAND FREE ENERGY PREDICTED BY IDOCK:   -1.84 KCAL/MOL
REMARK 927      BINDING AFFINITY PREDICTED BY RF-SCORE:    0.00 PKD
ROOT
HETATM    1  C   UNL     1     -10.051  12.984  66.609  1.00  0.00    -0.251 C  
HETATM    2  O   UNL     1     -12.888  14.014  65.214  1.00  0.00    -0.686 OA 
HETATM    3  O   UNL     1     -10.314  14.353  66.950  1.00  0.00    -0.261 OA 
HETATM    4  H   UNL     1     -12.242  11.684  64.486  1.00  0.00     0.000 HD 
HETATM    5  C   UNL     1     -11.701  14.481  67.314  1.00  0.00    -0.406 C  
HETATM    6  H   UNL     1     -13.349  13.375  64.684  1.00  0.00     0.000 HD 
HETATM    7  C   UNL     1     -12.440  13.457  66.465  1.00  0.00    -0.195 C  
HETATM    8  O   UNL     1     -11.413  12.059  64.760  1.00  0.00    -0.322 OA 
HETATM    9  C   UNL     1     -11.401  12.374  66.162  1.00  0.00    -0.352 C  
ENDROOT
BRANCH   1  10
HETATM   10  O   UNL     1      -9.564  12.271  67.748  1.00  0.00    -0.189 OA 
BRANCH  10  11
HETATM   11  C   UNL     1      -8.128  12.071  67.868  1.00  0.00    -0.150 C  
HETATM   12  O   UNL     1      -7.732  14.365  68.554  1.00  0.00    -0.121 OA 
HETATM   13  H2  UNL     1      -4.469   9.654  66.304  1.00  0.00     0.000 HD 
HETATM   14  H   UNL     1      -7.243  15.164  68.393  1.00  0.00     0.000 HD 
HETATM   15  C   UNL     1      -7.339  13.363  67.607  1.00  0.00    -0.168 C  
HETATM   16  H1  UNL     1      -5.941   8.834  66.480  1.00  0.00     0.000 HD 
HETATM   17  C   UNL     1      -5.328  12.096  66.818  1.00  0.00     0.093 C  
HETATM   18  N   UNL     1      -5.147  14.467  67.480  1.00  0.00    -0.327 NA 
HETATM   19  N   UNL     1      -5.486   9.720  66.261  1.00  0.00    -0.043 NA 
HETATM   20  H1  UNL     1      -4.139  14.350  67.579  1.00  0.00     0.000 HD 
HETATM   21  H2  UNL     1      -5.505  15.224  68.062  1.00  0.00     0.000 HD 
HETATM   22  C   UNL     1      -6.014  10.764  67.147  1.00  0.00    -0.062 C  
HETATM   23  C   UNL     1      -5.823  13.188  67.756  1.00  0.00    -0.138 C  
HETATM   24  C   UNL     1      -7.575  10.860  67.058  1.00  0.00    -0.122 C  
BRANCH  24  25
HETATM   25  O   UNL     1      -8.267   9.619  67.364  1.00  0.00    -0.113 OA 
BRANCH  25  26
HETATM   26  C   UNL     1      -9.362   9.267  66.508  1.00  0.00    -0.178 C  
HETATM   27  O   UNL     1      -8.916   8.496  65.390  1.00  0.00    -0.178 OA 
HETATM   28  C   UNL     1      -8.383   7.219  65.771  1.00  0.00    -0.139 C  
HETATM   29  C   UNL     1      -9.495   6.354  66.380  1.00  0.00    -0.133 C  
HETATM   30  H2  UNL     1     -11.300  10.137  68.248  1.00  0.00     0.000 HD 
HETATM   31  C   UNL     1     -10.062   7.071  67.605  1.00  0.00    -0.172 C  
HETATM   32  O   UNL     1      -9.039   5.069  66.829  1.00  0.00    -0.116 OA 
HETATM   33  H1  UNL     1     -11.741   8.692  68.968  1.00  0.00     0.000 HD 
HETATM   34  H   UNL     1      -9.728   4.534  67.206  1.00  0.00     0.000 HD 
HETATM   35  H   UNL     1     -11.538   6.773  68.872  1.00  0.00     0.000 HD 
HETATM   36  N   UNL     1     -11.000   9.190  68.475  1.00  0.00    -0.029 NA 
HETATM   37  O   UNL     1     -11.186   6.327  68.110  1.00  0.00    -0.327 OA 
HETATM   38  C   UNL     1     -10.496   8.505  67.262  1.00  0.00    -0.296 C  
BRANCH  28  39
HETATM   39  C   UNL     1      -7.727   6.601  64.524  1.00  0.00    -0.112 C  
HETATM   40  H2  UNL     1      -9.124   7.279  63.166  1.00  0.00     0.000 HD 
HETATM   41  N   UNL     1      -8.655   6.405  63.402  1.00  0.00    -0.305 NA 
HETATM   42  H1  UNL     1      -8.219   5.996  62.575  1.00  0.00     0.000 HD 
ENDBRANCH  28  39
ENDBRANCH  25  26
ENDBRANCH  24  25
ENDBRANCH  10  11
ENDBRANCH   1  10
BRANCH   5  43
HETATM   43  C   UNL     1     -11.929  14.261  68.816  1.00  0.00    -0.311 C  
HETATM   44  O   UNL     1     -10.746  14.624  69.537  1.00  0.00    -0.287 OA 
HETATM   45  H   UNL     1     -10.887  14.488  70.466  1.00  0.00     0.000 HD 
ENDBRANCH   5  43
TORSDOF 6
ENDMDL
MODEL      166
REMARK 921   NORMALIZED FREE ENERGY PREDICTED BY IDOCK:   -4.87 KCAL/MOL
REMARK 922        TOTAL FREE ENERGY PREDICTED BY IDOCK:   -8.22 KCAL/MOL
REMARK 923 INTER-LIGAND FREE ENERGY PREDICTED BY IDOCK:   -6.57 KCAL/MOL
REMARK 924 INTRA-LIGAND FREE ENERGY PREDICTED BY IDOCK:   -1.65 KCAL/MOL
REMARK 927      BINDING AFFINITY PREDICTED BY RF-SCORE:    0.00 PKD
ROOT
HETATM    1  C   UNL     1      -8.085  11.511  66.901  1.00  0.00    -0.164 C  
HETATM    2  O   UNL     1      -5.943   9.134  67.801  1.00  0.00    -0.048 OA 
HETATM    3  O   UNL     1      -7.756  10.678  65.780  1.00  0.00    -0.153 OA 
HETATM    4  H   UNL     1      -6.406  10.774  69.663  1.00  0.00     0.000 HD 
HETATM    5  C   UNL     1      -7.799   9.302  66.198  1.00  0.00    -0.099 C  
HETATM    6  H   UNL     1      -5.673   9.137  68.711  1.00  0.00     0.000 HD 
HETATM    7  C   UNL     1      -7.366   9.307  67.658  1.00  0.00    -0.084 C  
HETATM    8  O   UNL     1      -6.622  11.271  68.883  1.00  0.00    -0.057 OA 
HETATM    9  C   UNL     1      -7.733  10.702  68.171  1.00  0.00    -0.101 C  
ENDROOT
BRANCH   1  10
HETATM   10  O   UNL     1      -9.483  11.812  66.905  1.00  0.00    -0.185 OA 
BRANCH  10  11
HETATM   11  C   UNL     1     -10.128  12.054  68.186  1.00  0.00    -0.200 C  
HETATM   12  O   UNL     1     -11.043   9.808  68.298  1.00  0.00    -0.450 OA 
HETATM   13  H2  UNL     1     -12.050  15.276  70.942  1.00  0.00     0.000 HD 
HETATM   14  H   UNL     1     -11.825   9.279  68.412  1.00  0.00     0.000 HD 
HETATM   15  C   UNL     1     -11.391  11.198  68.369  1.00  0.00    -0.288 C  
HETATM   16  H1  UNL     1     -10.686  15.719  70.041  1.00  0.00     0.000 HD 
HETATM   17  C   UNL     1     -12.432  12.879  69.906  1.00  0.00    -0.034 C  
HETATM   18  N   UNL     1     -13.277  10.562  69.811  1.00  0.00    -0.408 NA 
HETATM   19  N   UNL     1     -11.528  15.145  70.077  1.00  0.00    -0.266 NA 
HETATM   20  H1  UNL     1     -13.731  10.704  70.713  1.00  0.00     0.000 HD 
HETATM   21  H2  UNL     1     -13.067   9.579  69.637  1.00  0.00     0.000 HD 
HETATM   22  C   UNL     1     -11.164  13.742  69.853  1.00  0.00     0.007 C  
HETATM   23  C   UNL     1     -12.076  11.410  69.724  1.00  0.00    -0.320 C  
HETATM   24  C   UNL     1     -10.375  13.558  68.511  1.00  0.00    -0.240 C  
BRANCH  24  25
HETATM   25  O   UNL     1      -9.164  14.356  68.418  1.00  0.00    -0.185 OA 
BRANCH  25  26
HETATM   26  C   UNL     1      -8.894  14.966  67.150  1.00  0.00    -0.217 C  
HETATM   27  O   UNL     1      -9.819  16.022  66.877  1.00  0.00    -0.235 OA 
HETATM   28  C   UNL     1      -9.696  17.120  67.793  1.00  0.00    -0.271 C  
HETATM   29  C   UNL     1      -8.327  17.791  67.619  1.00  0.00    -0.228 C  
HETATM   30  H2  UNL     1      -6.505  13.664  66.775  1.00  0.00     0.000 HD 
HETATM   31  C   UNL     1      -7.233  16.758  67.891  1.00  0.00    -0.148 C  
HETATM   32  O   UNL     1      -8.102  18.878  68.529  1.00  0.00    -0.326 OA 
HETATM   33  H1  UNL     1      -5.428  14.843  67.275  1.00  0.00     0.000 HD 
HETATM   34  H   UNL     1      -7.254  19.293  68.421  1.00  0.00     0.000 HD 
HETATM   35  H   UNL     1      -5.270  16.701  67.780  1.00  0.00     0.000 HD 
HETATM   36  N   UNL     1      -6.384  14.496  67.351  1.00  0.00    -0.311 NA 
HETATM   37  O   UNL     1      -5.949  17.344  67.611  1.00  0.00    -0.131 OA 
HETATM   38  C   UNL     1      -7.431  15.497  67.035  1.00  0.00    -0.170 C  
BRANCH  28  39
HETATM   39  C   UNL     1     -10.887  18.062  67.546  1.00  0.00    -0.234 C  
HETATM   40  H2  UNL     1     -10.451  18.477  65.574  1.00  0.00     0.000 HD 
HETATM   41  N   UNL     1     -10.687  18.988  66.424  1.00  0.00    -0.378 NA 
HETATM   42  H1  UNL     1     -11.477  19.613  66.260  1.00  0.00     0.000 HD 
ENDBRANCH  28  39
ENDBRANCH  25  26
ENDBRANCH  24  25
ENDBRANCH  10  11
ENDBRANCH   1  10
BRANCH   5  43
HETATM   43  C   UNL     1      -9.189   8.681  66.009  1.00  0.00    -0.216 C  
HETATM   44  O   UNL     1     -10.001   9.559  65.222  1.00  0.00    -0.427 OA 
HETATM   45  H   UNL     1     -10.862   9.176  65.105  1.00  0.00     0.000 HD 
ENDBRANCH   5  43
TORSDOF 6
ENDMDL
MODEL      167
REMARK 921   NORMALIZED FREE ENERGY PREDICTED BY IDOCK:   -4.84 KCAL/MOL
REMARK 922        TOTAL FREE ENERGY PREDICTED BY IDOCK:   -8.18 KCAL/MOL
REMARK 923 INTER-LIGAND FREE ENERGY PREDICTED BY IDOCK:   -6.72 KCAL/MOL
REMARK 924 INTRA-LIGAND FREE ENERGY PREDICTED BY IDOCK:   -1.45 KCAL/MOL
REMARK 927      BINDING AFFINITY PREDICTED BY RF-SCORE:    0.00 PKD
ROOT
HETATM    1  C   UNL     1      -8.860  10.209  66.444  1.00  0.00    -0.143 C  
HETATM    2  O   UNL     1      -9.031   6.894  66.630  1.00  0.00    -0.133 OA 
HETATM    3  O   UNL     1      -7.545   9.639  66.508  1.00  0.00    -0.096 OA 
HETATM    4  H   UNL     1     -11.304   7.988  66.733  1.00  0.00     0.000 HD 
HETATM    5  C   UNL     1      -7.485   8.512  65.614  1.00  0.00    -0.085 C  
HETATM    6  H   UNL     1      -9.904   6.520  66.634  1.00  0.00     0.000 HD 
HETATM    7  C   UNL     1      -8.884   7.913  65.621  1.00  0.00    -0.082 C  
HETATM    8  O   UNL     1     -10.721   8.681  67.017  1.00  0.00    -0.271 OA 
HETATM    9  C   UNL     1      -9.809   9.079  65.981  1.00  0.00    -0.242 C  
ENDROOT
BRANCH   1  10
HETATM   10  O   UNL     1      -8.895  11.276  65.493  1.00  0.00    -0.178 OA 
BRANCH  10  11
HETATM   11  C   UNL     1      -9.823  12.371  65.725  1.00  0.00    -0.240 C  
HETATM   12  O   UNL     1     -11.382  11.584  64.039  1.00  0.00    -0.368 OA 
HETATM   13  H2  UNL     1     -10.230  16.802  67.096  1.00  0.00     0.000 HD 
HETATM   14  H   UNL     1     -11.879  11.804  63.260  1.00  0.00     0.000 HD 
HETATM   15  C   UNL     1     -10.627  12.726  64.465  1.00  0.00    -0.360 C  
HETATM   16  H1  UNL     1      -9.103  15.825  67.901  1.00  0.00     0.000 HD 
HETATM   17  C   UNL     1     -10.921  15.103  65.199  1.00  0.00    -0.428 C  
HETATM   18  N   UNL     1     -12.353  14.140  63.434  1.00  0.00    -1.144 NA 
HETATM   19  N   UNL     1      -9.573  16.025  67.018  1.00  0.00    -0.217 NA 
HETATM   20  H1  UNL     1     -13.024  14.893  63.584  1.00  0.00     0.000 HD 
HETATM   21  H2  UNL     1     -12.793  13.305  63.048  1.00  0.00     0.000 HD 
HETATM   22  C   UNL     1     -10.214  14.801  66.526  1.00  0.00    -0.276 C  
HETATM   23  C   UNL     1     -11.636  13.859  64.690  1.00  0.00    -0.385 C  
HETATM   24  C   UNL     1      -9.187  13.624  66.400  1.00  0.00    -0.122 C  
BRANCH  24  25
HETATM   25  O   UNL     1      -8.494  13.302  67.636  1.00  0.00    -0.164 OA 
BRANCH  25  26
HETATM   26  C   UNL     1      -7.080  13.091  67.543  1.00  0.00    -0.154 C  
HETATM   27  O   UNL     1      -6.397  14.304  67.216  1.00  0.00    -0.296 OA 
HETATM   28  C   UNL     1      -6.505  15.299  68.245  1.00  0.00    -0.112 C  
HETATM   29  C   UNL     1      -5.787  14.815  69.512  1.00  0.00    -0.102 C  
HETATM   30  H2  UNL     1      -7.162  10.541  68.559  1.00  0.00     0.000 HD 
HETATM   31  C   UNL     1      -6.432  13.508  69.976  1.00  0.00     0.025 C  
HETATM   32  O   UNL     1      -5.882  15.734  70.611  1.00  0.00    -0.084 OA 
HETATM   33  H1  UNL     1      -6.748  10.830  70.154  1.00  0.00     0.000 HD 
HETATM   34  H   UNL     1      -5.437  15.434  71.395  1.00  0.00     0.000 HD 
HETATM   35  H   UNL     1      -6.088  12.171  71.379  1.00  0.00     0.000 HD 
HETATM   36  N   UNL     1      -7.144  11.235  69.306  1.00  0.00    -0.120 NA 
HETATM   37  O   UNL     1      -5.687  12.983  71.091  1.00  0.00    -0.298 OA 
HETATM   38  C   UNL     1      -6.475  12.473  68.842  1.00  0.00    -0.091 C  
BRANCH  28  39
HETATM   39  C   UNL     1      -5.947  16.615  67.677  1.00  0.00    -0.147 C  
HETATM   40  H2  UNL     1      -7.543  17.029  66.438  1.00  0.00     0.000 HD 
HETATM   41  N   UNL     1      -6.526  16.992  66.381  1.00  0.00    -0.214 NA 
HETATM   42  H1  UNL     1      -6.155  17.865  66.004  1.00  0.00     0.000 HD 
ENDBRANCH  28  39
ENDBRANCH  25  26
ENDBRANCH  24  25
ENDBRANCH  10  11
ENDBRANCH   1  10
BRANCH   5  43
HETATM   43  C   UNL     1      -7.035   8.915  64.203  1.00  0.00    -0.089 C  
HETATM   44  O   UNL     1      -5.961   9.857  64.295  1.00  0.00    -0.102 OA 
HETATM   45  H   UNL     1      -5.683  10.107  63.422  1.00  0.00     0.000 HD 
ENDBRANCH   5  43
TORSDOF 6
ENDMDL
MODEL      168
REMARK 921   NORMALIZED FREE ENERGY PREDICTED BY IDOCK:   -4.84 KCAL/MOL
REMARK 922        TOTAL FREE ENERGY PREDICTED BY IDOCK:   -8.17 KCAL/MOL
REMARK 923 INTER-LIGAND FREE ENERGY PREDICTED BY IDOCK:   -5.97 KCAL/MOL
REMARK 924 INTRA-LIGAND FREE ENERGY PREDICTED BY IDOCK:   -2.21 KCAL/MOL
REMARK 927      BINDING AFFINITY PREDICTED BY RF-SCORE:    0.00 PKD
ROOT
HETATM    1  C   UNL     1      -8.992   5.516  68.168  1.00  0.00    -0.108 C  
HETATM    2  O   UNL     1      -9.680   5.286  64.924  1.00  0.00    -0.348 OA 
HETATM    3  O   UNL     1      -8.172   4.514  67.548  1.00  0.00    -0.100 OA 
HETATM    4  H   UNL     1     -11.230   6.871  66.132  1.00  0.00     0.000 HD 
HETATM    5  C   UNL     1      -7.664   5.037  66.306  1.00  0.00    -0.092 C  
HETATM    6  H   UNL     1     -10.356   5.868  64.598  1.00  0.00     0.000 HD 
HETATM    7  C   UNL     1      -8.747   5.969  65.784  1.00  0.00    -0.151 C  
HETATM    8  O   UNL     1     -10.917   6.307  66.829  1.00  0.00    -0.347 OA 
HETATM    9  C   UNL     1      -9.501   6.435  67.033  1.00  0.00    -0.139 C  
ENDROOT
BRANCH   1  10
HETATM   10  O   UNL     1      -8.222   6.288  69.092  1.00  0.00    -0.111 OA 
BRANCH  10  11
HETATM   11  C   UNL     1      -8.361   5.998  70.511  1.00  0.00    -0.128 C  
HETATM   12  O   UNL     1      -6.112   5.101  70.685  1.00  0.00    -0.020 OA 
HETATM   13  H2  UNL     1     -11.355   4.909  73.906  1.00  0.00     0.000 HD 
HETATM   14  H   UNL     1      -5.575   4.366  70.955  1.00  0.00     0.000 HD 
HETATM   15  C   UNL     1      -7.491   4.809  70.948  1.00  0.00    -0.064 C  
HETATM   16  H1  UNL     1     -11.869   6.004  72.719  1.00  0.00     0.000 HD 
HETATM   17  C   UNL     1      -9.046   4.230  72.824  1.00  0.00    -0.128 C  
HETATM   18  N   UNL     1      -6.742   3.346  72.774  1.00  0.00    -0.028 NA 
HETATM   19  N   UNL     1     -11.293   5.188  72.927  1.00  0.00    -0.296 NA 
HETATM   20  H1  UNL     1      -6.812   3.141  73.771  1.00  0.00     0.000 HD 
HETATM   21  H2  UNL     1      -5.776   3.486  72.478  1.00  0.00     0.000 HD 
HETATM   22  C   UNL     1      -9.912   5.456  72.511  1.00  0.00    -0.168 C  
HETATM   23  C   UNL     1      -7.597   4.500  72.446  1.00  0.00    -0.084 C  
HETATM   24  C   UNL     1      -9.835   5.871  71.002  1.00  0.00    -0.182 C  
BRANCH  24  25
HETATM   25  O   UNL     1     -10.640   7.032  70.661  1.00  0.00    -0.218 OA 
BRANCH  25  26
HETATM   26  C   UNL     1     -10.188   8.296  71.162  1.00  0.00    -0.198 C  
HETATM   27  O   UNL     1      -9.547   9.059  70.136  1.00  0.00    -0.172 OA 
HETATM   28  C   UNL     1     -10.442   9.435  69.080  1.00  0.00    -0.217 C  
HETATM   29  C   UNL     1     -11.511  10.393  69.621  1.00  0.00    -0.262 C  
HETATM   30  H2  UNL     1     -11.481   8.060  73.574  1.00  0.00     0.000 HD 
HETATM   31  C   UNL     1     -12.284   9.690  70.737  1.00  0.00    -0.230 C  
HETATM   32  O   UNL     1     -12.478  10.789  68.637  1.00  0.00    -0.793 OA 
HETATM   33  H1  UNL     1     -12.856   8.967  73.278  1.00  0.00     0.000 HD 
HETATM   34  H   UNL     1     -13.139  11.382  68.972  1.00  0.00     0.000 HD 
HETATM   35  H   UNL     1     -13.686  10.183  72.027  1.00  0.00     0.000 HD 
HETATM   36  N   UNL     1     -12.107   8.419  72.854  1.00  0.00    -0.211 NA 
HETATM   37  O   UNL     1     -13.206  10.621  71.333  1.00  0.00    -0.375 OA 
HETATM   38  C   UNL     1     -11.335   9.133  71.810  1.00  0.00    -0.381 C  
BRANCH  28  39
HETATM   39  C   UNL     1      -9.592  10.029  67.943  1.00  0.00    -0.145 C  
HETATM   40  H2  UNL     1     -11.171  10.677  66.786  1.00  0.00     0.000 HD 
HETATM   41  N   UNL     1     -10.308  10.146  66.666  1.00  0.00    -0.223 NA 
HETATM   42  H1  UNL     1      -9.744  10.540  65.913  1.00  0.00     0.000 HD 
ENDBRANCH  28  39
ENDBRANCH  25  26
ENDBRANCH  24  25
ENDBRANCH  10  11
ENDBRANCH   1  10
BRANCH   5  43
HETATM   43  C   UNL     1      -6.320   5.755  66.486  1.00  0.00    -0.038 C  
HETATM   44  O   UNL     1      -5.698   5.309  67.697  1.00  0.00    -0.012 OA 
HETATM   45  H   UNL     1      -4.867   5.753  67.809  1.00  0.00     0.000 HD 
ENDBRANCH   5  43
TORSDOF 6
ENDMDL
MODEL      169
REMARK 921   NORMALIZED FREE ENERGY PREDICTED BY IDOCK:   -4.82 KCAL/MOL
REMARK 922        TOTAL FREE ENERGY PREDICTED BY IDOCK:   -8.15 KCAL/MOL
REMARK 923 INTER-LIGAND FREE ENERGY PREDICTED BY IDOCK:   -6.49 KCAL/MOL
REMARK 924 INTRA-LIGAND FREE ENERGY PREDICTED BY IDOCK:   -1.66 KCAL/MOL
REMARK 927      BINDING AFFINITY PREDICTED BY RF-SCORE:    0.00 PKD
ROOT
HETATM    1  C   UNL     1      -9.264  11.477  66.283  1.00  0.00    -0.211 C  
HETATM    2  O   UNL     1      -5.958  11.825  66.335  1.00  0.00    -0.416 OA 
HETATM    3  O   UNL     1      -8.700  11.127  65.011  1.00  0.00    -0.099 OA 
HETATM    4  H   UNL     1      -7.049  12.628  68.465  1.00  0.00     0.000 HD 
HETATM    5  C   UNL     1      -7.540  10.303  65.230  1.00  0.00    -0.143 C  
HETATM    6  H   UNL     1      -5.583  12.128  67.153  1.00  0.00     0.000 HD 
HETATM    7  C   UNL     1      -6.938  10.789  66.541  1.00  0.00    -0.130 C  
HETATM    8  O   UNL     1      -7.754  12.681  67.832  1.00  0.00    -0.115 OA 
HETATM    9  C   UNL     1      -8.115  11.390  67.315  1.00  0.00    -0.148 C  
ENDROOT
BRANCH   1  10
HETATM   10  O   UNL     1     -10.293  10.552  66.643  1.00  0.00    -0.228 OA 
BRANCH  10  11
HETATM   11  C   UNL     1     -11.212  10.930  67.706  1.00  0.00    -0.317 C  
HETATM   12  O   UNL     1     -11.828  13.009  66.616  1.00  0.00    -0.367 OA 
HETATM   13  H2  UNL     1     -12.155  10.548  72.249  1.00  0.00     0.000 HD 
HETATM   14  H   UNL     1     -11.908  13.952  66.702  1.00  0.00     0.000 HD 
HETATM   15  C   UNL     1     -11.341  12.455  67.845  1.00  0.00    -0.289 C  
HETATM   16  H1  UNL     1     -11.536   9.186  71.453  1.00  0.00     0.000 HD 
HETATM   17  C   UNL     1     -11.914  12.286  70.278  1.00  0.00    -0.373 C  
HETATM   18  N   UNL     1     -12.383  14.351  69.010  1.00  0.00    -0.566 NA 
HETATM   19  N   UNL     1     -11.545  10.205  71.507  1.00  0.00    -0.254 NA 
HETATM   20  H1  UNL     1     -13.038  14.634  69.738  1.00  0.00     0.000 HD 
HETATM   21  H2  UNL     1     -12.604  14.772  68.108  1.00  0.00     0.000 HD 
HETATM   22  C   UNL     1     -11.901  10.754  70.195  1.00  0.00    -0.343 C  
HETATM   23  C   UNL     1     -12.327  12.881  68.939  1.00  0.00     0.190 C  
HETATM   24  C   UNL     1     -10.945  10.226  69.071  1.00  0.00    -0.232 C  
BRANCH  24  25
HETATM   25  O   UNL     1     -10.903   8.778  68.955  1.00  0.00    -0.156 OA 
BRANCH  25  26
HETATM   26  C   UNL     1      -9.608   8.185  68.791  1.00  0.00    -0.149 C  
HETATM   27  O   UNL     1      -8.957   8.011  70.051  1.00  0.00    -0.142 OA 
HETATM   28  C   UNL     1      -9.633   7.073  70.902  1.00  0.00    -0.167 C  
HETATM   29  C   UNL     1      -9.581   5.673  70.277  1.00  0.00    -0.168 C  
HETATM   30  H2  UNL     1      -9.961   7.603  66.130  1.00  0.00     0.000 HD 
HETATM   31  C   UNL     1     -10.260   5.720  68.907  1.00  0.00    -0.204 C  
HETATM   32  O   UNL     1     -10.273   4.677  71.045  1.00  0.00    -0.202 OA 
HETATM   33  H1  UNL     1     -10.399   5.990  66.222  1.00  0.00     0.000 HD 
HETATM   34  H   UNL     1     -10.241   3.810  70.657  1.00  0.00     0.000 HD 
HETATM   35  H   UNL     1     -10.530   4.472  67.410  1.00  0.00     0.000 HD 
HETATM   36  N   UNL     1     -10.365   6.878  66.722  1.00  0.00    -0.235 NA 
HETATM   37  O   UNL     1     -10.108   4.443  68.261  1.00  0.00    -0.049 OA 
HETATM   38  C   UNL     1      -9.661   6.827  68.025  1.00  0.00    -0.117 C  
BRANCH  28  39
HETATM   39  C   UNL     1      -8.980   7.158  72.293  1.00  0.00    -0.131 C  
HETATM   40  H2  UNL     1     -10.528   8.162  73.215  1.00  0.00     0.000 HD 
HETATM   41  N   UNL     1      -9.514   8.239  73.133  1.00  0.00    -0.237 NA 
HETATM   42  H1  UNL     1      -9.082   8.295  74.055  1.00  0.00     0.000 HD 
ENDBRANCH  28  39
ENDBRANCH  25  26
ENDBRANCH  24  25
ENDBRANCH  10  11
ENDBRANCH   1  10
BRANCH   5  43
HETATM   43  C   UNL     1      -7.890   8.809  65.273  1.00  0.00    -0.109 C  
HETATM   44  O   UNL     1      -9.101   8.581  64.544  1.00  0.00    -0.383 OA 
HETATM   45  H   UNL     1      -9.318   7.657  64.570  1.00  0.00     0.000 HD 
ENDBRANCH   5  43
TORSDOF 6
ENDMDL
MODEL      170
REMARK 921   NORMALIZED FREE ENERGY PREDICTED BY IDOCK:   -4.79 KCAL/MOL
REMARK 922        TOTAL FREE ENERGY PREDICTED BY IDOCK:   -8.11 KCAL/MOL
REMARK 923 INTER-LIGAND FREE ENERGY PREDICTED BY IDOCK:   -7.09 KCAL/MOL
REMARK 924 INTRA-LIGAND FREE ENERGY PREDICTED BY IDOCK:   -1.03 KCAL/MOL
REMARK 927      BINDING AFFINITY PREDICTED BY RF-SCORE:    0.00 PKD
ROOT
HETATM    1  C   UNL     1     -10.740  15.162  66.673  1.00  0.00    -0.310 C  
HETATM    2  O   UNL     1     -12.007  14.595  63.652  1.00  0.00    -0.834 OA 
HETATM    3  O   UNL     1     -12.119  14.778  66.768  1.00  0.00    -0.291 OA 
HETATM    4  H   UNL     1      -9.646  15.485  63.560  1.00  0.00     0.000 HD 
HETATM    5  C   UNL     1     -12.348  13.655  65.897  1.00  0.00    -0.471 C  
HETATM    6  H   UNL     1     -11.413  14.716  62.921  1.00  0.00     0.000 HD 
HETATM    7  C   UNL     1     -11.397  13.850  64.725  1.00  0.00    -0.363 C  
HETATM    8  O   UNL     1      -9.952  15.779  64.409  1.00  0.00     0.378 OA 
HETATM    9  C   UNL     1     -10.243  14.681  65.289  1.00  0.00    -0.391 C  
ENDROOT
BRANCH   1  10
HETATM   10  O   UNL     1      -9.974  14.524  67.698  1.00  0.00    -0.222 OA 
BRANCH  10  11
HETATM   11  C   UNL     1      -8.559  14.295  67.453  1.00  0.00    -0.213 C  
HETATM   12  O   UNL     1      -8.948  12.107  66.475  1.00  0.00    -0.208 OA 
HETATM   13  H2  UNL     1      -4.233  15.244  68.890  1.00  0.00     0.000 HD 
HETATM   14  H   UNL     1      -8.726  11.183  66.495  1.00  0.00     0.000 HD 
HETATM   15  C   UNL     1      -8.200  12.800  67.484  1.00  0.00    -0.179 C  
HETATM   16  H1  UNL     1      -5.381  16.489  68.961  1.00  0.00     0.000 HD 
HETATM   17  C   UNL     1      -5.847  13.275  68.197  1.00  0.00    -0.105 C  
HETATM   18  N   UNL     1      -6.463  11.077  67.257  1.00  0.00    -0.067 NA 
HETATM   19  N   UNL     1      -5.214  15.485  69.030  1.00  0.00    -0.095 NA 
HETATM   20  H1  UNL     1      -5.478  10.896  67.067  1.00  0.00     0.000 HD 
HETATM   21  H2  UNL     1      -7.078  10.553  66.634  1.00  0.00     0.000 HD 
HETATM   22  C   UNL     1      -6.099  14.784  68.093  1.00  0.00    -0.141 C  
HETATM   23  C   UNL     1      -6.719  12.527  67.199  1.00  0.00    -0.054 C  
HETATM   24  C   UNL     1      -7.602  15.156  68.333  1.00  0.00    -0.117 C  
BRANCH  24  25
HETATM   25  O   UNL     1      -7.887  16.578  68.242  1.00  0.00    -0.163 OA 
BRANCH  25  26
HETATM   26  C   UNL     1      -7.451  17.244  67.050  1.00  0.00    -0.190 C  
HETATM   27  O   UNL     1      -8.556  17.551  66.196  1.00  0.00    -0.439 OA 
HETATM   28  C   UNL     1      -9.464  18.497  66.779  1.00  0.00    -0.301 C  
HETATM   29  C   UNL     1      -8.762  19.850  66.954  1.00  0.00    -0.340 C  
HETATM   30  H2  UNL     1      -4.875  17.614  67.927  1.00  0.00     0.000 HD 
HETATM   31  C   UNL     1      -7.548  19.662  67.864  1.00  0.00    -0.296 C  
HETATM   32  O   UNL     1      -9.589  20.848  67.571  1.00  0.00    -0.440 OA 
HETATM   33  H1  UNL     1      -4.955  19.195  68.467  1.00  0.00     0.000 HD 
HETATM   34  H   UNL     1      -9.154  21.686  67.680  1.00  0.00     0.000 HD 
HETATM   35  H   UNL     1      -6.060  20.781  68.500  1.00  0.00     0.000 HD 
HETATM   36  N   UNL     1      -5.490  18.349  68.272  1.00  0.00    -0.167 NA 
HETATM   37  O   UNL     1      -6.814  20.898  67.935  1.00  0.00    -0.306 OA 
HETATM   38  C   UNL     1      -6.633  18.539  67.349  1.00  0.00    -0.196 C  
BRANCH  28  39
HETATM   39  C   UNL     1     -10.711  18.554  65.879  1.00  0.00    -0.198 C  
HETATM   40  H2  UNL     1     -10.130  20.200  64.780  1.00  0.00     0.000 HD 
HETATM   41  N   UNL     1     -10.954  19.876  65.286  1.00  0.00    -0.225 NA 
HETATM   42  H1  UNL     1     -11.781  19.914  64.690  1.00  0.00     0.000 HD 
ENDBRANCH  28  39
ENDBRANCH  25  26
ENDBRANCH  24  25
ENDBRANCH  10  11
ENDBRANCH   1  10
BRANCH   5  43
HETATM   43  C   UNL     1     -12.123  12.314  66.608  1.00  0.00     0.002 C  
HETATM   44  O   UNL     1     -11.464  11.406  65.719  1.00  0.00    -0.144 OA 
HETATM   45  H   UNL     1     -11.325  10.576  66.159  1.00  0.00     0.000 HD 
ENDBRANCH   5  43
TORSDOF 6
ENDMDL
MODEL      171
REMARK 921   NORMALIZED FREE ENERGY PREDICTED BY IDOCK:   -4.76 KCAL/MOL
REMARK 922        TOTAL FREE ENERGY PREDICTED BY IDOCK:   -8.07 KCAL/MOL
REMARK 923 INTER-LIGAND FREE ENERGY PREDICTED BY IDOCK:   -6.87 KCAL/MOL
REMARK 924 INTRA-LIGAND FREE ENERGY PREDICTED BY IDOCK:   -1.21 KCAL/MOL
REMARK 927      BINDING AFFINITY PREDICTED BY RF-SCORE:    0.00 PKD
ROOT
HETATM    1  C   UNL     1     -10.605  10.967  69.395  1.00  0.00    -0.197 C  
HETATM    2  O   UNL     1     -12.149  13.492  70.908  1.00  0.00    -0.436 OA 
HETATM    3  O   UNL     1     -10.984  10.600  70.730  1.00  0.00    -0.082 OA 
HETATM    4  H   UNL     1     -11.257  14.127  68.634  1.00  0.00     0.000 HD 
HETATM    5  C   UNL     1     -12.333  11.042  70.965  1.00  0.00    -0.385 C  
HETATM    6  H   UNL     1     -12.249  14.287  70.398  1.00  0.00     0.000 HD 
HETATM    7  C   UNL     1     -12.492  12.316  70.148  1.00  0.00    -0.023 C  
HETATM    8  O   UNL     1     -10.717  13.384  68.875  1.00  0.00    -0.242 OA 
HETATM    9  C   UNL     1     -11.485  12.177  69.003  1.00  0.00    -0.297 C  
ENDROOT
BRANCH   1  10
HETATM   10  O   UNL     1     -10.855   9.888  68.491  1.00  0.00    -0.229 OA 
BRANCH  10  11
HETATM   11  C   UNL     1      -9.805   9.522  67.554  1.00  0.00    -0.167 C  
HETATM   12  O   UNL     1     -10.536  11.139  65.898  1.00  0.00    -0.259 OA 
HETATM   13  H2  UNL     1      -7.024   6.087  66.090  1.00  0.00     0.000 HD 
HETATM   14  H   UNL     1     -10.796  11.282  64.995  1.00  0.00     0.000 HD 
HETATM   15  C   UNL     1     -10.225   9.753  66.094  1.00  0.00    -0.208 C  
HETATM   16  H1  UNL     1      -7.340   6.195  67.751  1.00  0.00     0.000 HD 
HETATM   17  C   UNL     1      -8.694   7.954  65.261  1.00  0.00    -0.032 C  
HETATM   18  N   UNL     1      -9.614   9.645  63.716  1.00  0.00    -0.453 NA 
HETATM   19  N   UNL     1      -7.701   6.343  66.809  1.00  0.00    -0.098 NA 
HETATM   20  H1  UNL     1      -8.882   9.412  63.045  1.00  0.00     0.000 HD 
HETATM   21  H2  UNL     1      -9.960  10.597  63.594  1.00  0.00     0.000 HD 
HETATM   22  C   UNL     1      -8.152   7.733  66.679  1.00  0.00    -0.111 C  
HETATM   23  C   UNL     1      -9.126   9.403  65.085  1.00  0.00    -0.225 C  
HETATM   24  C   UNL     1      -9.200   8.104  67.783  1.00  0.00    -0.134 C  
BRANCH  24  25
HETATM   25  O   UNL     1      -8.727   7.910  69.143  1.00  0.00    -0.137 OA 
BRANCH  25  26
HETATM   26  C   UNL     1      -8.993   6.634  69.740  1.00  0.00    -0.143 C  
HETATM   27  O   UNL     1      -8.487   6.573  71.075  1.00  0.00    -0.125 OA 
HETATM   28  C   UNL     1      -9.148   7.486  71.964  1.00  0.00    -0.129 C  
HETATM   29  C   UNL     1     -10.620   7.082  72.121  1.00  0.00    -0.213 C  
HETATM   30  H2  UNL     1     -10.647   5.780  67.720  1.00  0.00     0.000 HD 
HETATM   31  C   UNL     1     -11.289   7.113  70.747  1.00  0.00    -0.289 C  
HETATM   32  O   UNL     1     -11.370   7.970  72.964  1.00  0.00    -0.430 OA 
HETATM   33  H1  UNL     1     -12.146   6.110  68.388  1.00  0.00     0.000 HD 
HETATM   34  H   UNL     1     -12.282   7.720  73.061  1.00  0.00     0.000 HD 
HETATM   35  H   UNL     1     -13.051   6.637  70.011  1.00  0.00     0.000 HD 
HETATM   36  N   UNL     1     -11.155   6.350  68.396  1.00  0.00    -0.317 NA 
HETATM   37  O   UNL     1     -12.636   6.618  70.866  1.00  0.00    -0.285 OA 
HETATM   38  C   UNL     1     -10.510   6.267  69.727  1.00  0.00    -0.232 C  
BRANCH  28  39
HETATM   39  C   UNL     1      -8.360   7.496  73.285  1.00  0.00    -0.129 C  
HETATM   40  H2  UNL     1      -9.781   6.511  74.410  1.00  0.00     0.000 HD 
HETATM   41  N   UNL     1      -9.204   7.349  74.479  1.00  0.00    -0.427 NA 
HETATM   42  H1  UNL     1      -8.682   7.356  75.355  1.00  0.00     0.000 HD 
ENDBRANCH  28  39
ENDBRANCH  25  26
ENDBRANCH  24  25
ENDBRANCH  10  11
ENDBRANCH   1  10
BRANCH   5  43
HETATM   43  C   UNL     1     -13.368   9.976  70.582  1.00  0.00    -0.039 C  
HETATM   44  O   UNL     1     -13.690   9.187  71.732  1.00  0.00    -0.392 OA 
HETATM   45  H   UNL     1     -14.331   8.527  71.495  1.00  0.00     0.000 HD 
ENDBRANCH   5  43
TORSDOF 6
ENDMDL
MODEL      172
REMARK 921   NORMALIZED FREE ENERGY PREDICTED BY IDOCK:   -4.74 KCAL/MOL
REMARK 922        TOTAL FREE ENERGY PREDICTED BY IDOCK:   -8.05 KCAL/MOL
REMARK 923 INTER-LIGAND FREE ENERGY PREDICTED BY IDOCK:   -6.74 KCAL/MOL
REMARK 924 INTRA-LIGAND FREE ENERGY PREDICTED BY IDOCK:   -1.31 KCAL/MOL
REMARK 927      BINDING AFFINITY PREDICTED BY RF-SCORE:    0.00 PKD
ROOT
HETATM    1  C   UNL     1     -10.905   8.348  70.274  1.00  0.00    -0.239 C  
HETATM    2  O   UNL     1     -10.184   7.502  73.408  1.00  0.00    -0.313 OA 
HETATM    3  O   UNL     1     -11.698   7.227  70.689  1.00  0.00    -0.303 OA 
HETATM    4  H   UNL     1      -8.679   9.328  72.528  1.00  0.00     0.000 HD 
HETATM    5  C   UNL     1     -12.207   7.484  72.011  1.00  0.00    -0.280 C  
HETATM    6  H   UNL     1      -9.518   8.025  73.839  1.00  0.00     0.000 HD 
HETATM    7  C   UNL     1     -11.139   8.320  72.702  1.00  0.00    -0.330 C  
HETATM    8  O   UNL     1      -8.986   8.904  71.735  1.00  0.00    -0.297 OA 
HETATM    9  C   UNL     1     -10.406   9.038  71.566  1.00  0.00    -0.342 C  
ENDROOT
BRANCH   1  10
HETATM   10  O   UNL     1     -11.699   9.269  69.523  1.00  0.00     0.217 OA 
BRANCH  10  11
HETATM   11  C   UNL     1     -11.089  10.526  69.116  1.00  0.00    -0.250 C  
HETATM   12  O   UNL     1     -12.427  11.829  70.667  1.00  0.00    -0.324 OA 
HETATM   13  H2  UNL     1      -9.048  12.821  65.617  1.00  0.00     0.000 HD 
HETATM   14  H   UNL     1     -13.019  12.565  70.773  1.00  0.00     0.000 HD 
HETATM   15  C   UNL     1     -12.046  11.716  69.289  1.00  0.00    -0.259 C  
HETATM   16  H1  UNL     1      -8.696  11.173  65.794  1.00  0.00     0.000 HD 
HETATM   17  C   UNL     1     -10.934  13.008  67.454  1.00  0.00    -0.284 C  
HETATM   18  N   UNL     1     -12.403  14.139  69.083  1.00  0.00    -0.520 NA 
HETATM   19  N   UNL     1      -9.396  11.906  65.904  1.00  0.00    -0.217 NA 
HETATM   20  H1  UNL     1     -11.986  15.031  68.821  1.00  0.00     0.000 HD 
HETATM   21  H2  UNL     1     -12.782  14.154  70.030  1.00  0.00     0.000 HD 
HETATM   22  C   UNL     1      -9.881  11.904  67.288  1.00  0.00    -0.187 C  
HETATM   23  C   UNL     1     -11.419  13.059  68.896  1.00  0.00    -0.299 C  
HETATM   24  C   UNL     1     -10.424  10.495  67.707  1.00  0.00    -0.224 C  
BRANCH  24  25
HETATM   25  O   UNL     1      -9.458   9.418  67.568  1.00  0.00    -0.126 OA 
BRANCH  25  26
HETATM   26  C   UNL     1      -9.463   8.709  66.323  1.00  0.00    -0.241 C  
HETATM   27  O   UNL     1      -8.226   8.880  65.626  1.00  0.00    -0.113 OA 
HETATM   28  C   UNL     1      -7.112   8.301  66.320  1.00  0.00    -0.070 C  
HETATM   29  C   UNL     1      -7.276   6.777  66.386  1.00  0.00    -0.072 C  
HETATM   30  H2  UNL     1     -11.805   7.369  66.834  1.00  0.00     0.000 HD 
HETATM   31  C   UNL     1      -8.577   6.453  67.122  1.00  0.00    -0.111 C  
HETATM   32  O   UNL     1      -6.222   6.118  67.104  1.00  0.00    -0.027 OA 
HETATM   33  H1  UNL     1     -11.210   5.899  67.368  1.00  0.00     0.000 HD 
HETATM   34  H   UNL     1      -6.324   5.174  67.144  1.00  0.00     0.000 HD 
HETATM   35  H   UNL     1      -9.609   4.830  67.540  1.00  0.00     0.000 HD 
HETATM   36  N   UNL     1     -11.009   6.892  67.255  1.00  0.00    -0.348 NA 
HETATM   37  O   UNL     1      -8.801   5.032  67.082  1.00  0.00    -0.108 OA 
HETATM   38  C   UNL     1      -9.771   7.189  66.496  1.00  0.00    -0.133 C  
BRANCH  28  39
HETATM   39  C   UNL     1      -5.831   8.758  65.600  1.00  0.00    -0.051 C  
HETATM   40  H2  UNL     1      -6.733  10.172  64.398  1.00  0.00     0.000 HD 
HETATM   41  N   UNL     1      -6.079   9.395  64.299  1.00  0.00    -0.076 NA 
HETATM   42  H1  UNL     1      -5.229   9.699  63.822  1.00  0.00     0.000 HD 
ENDBRANCH  28  39
ENDBRANCH  25  26
ENDBRANCH  24  25
ENDBRANCH  10  11
ENDBRANCH   1  10
BRANCH   5  43
HETATM   43  C   UNL     1     -13.567   8.193  71.981  1.00  0.00    -0.289 C  
HETATM   44  O   UNL     1     -14.212   7.935  70.729  1.00  0.00    -0.531 OA 
HETATM   45  H   UNL     1     -15.054   8.374  70.710  1.00  0.00     0.000 HD 
ENDBRANCH   5  43
TORSDOF 6
ENDMDL
MODEL      173
REMARK 921   NORMALIZED FREE ENERGY PREDICTED BY IDOCK:   -4.74 KCAL/MOL
REMARK 922        TOTAL FREE ENERGY PREDICTED BY IDOCK:   -8.04 KCAL/MOL
REMARK 923 INTER-LIGAND FREE ENERGY PREDICTED BY IDOCK:   -6.89 KCAL/MOL
REMARK 924 INTRA-LIGAND FREE ENERGY PREDICTED BY IDOCK:   -1.15 KCAL/MOL
REMARK 927      BINDING AFFINITY PREDICTED BY RF-SCORE:    0.00 PKD
ROOT
HETATM    1  C   UNL     1     -10.510   7.860  70.221  1.00  0.00    -0.225 C  
HETATM    2  O   UNL     1     -12.356   8.221  72.962  1.00  0.00    -0.658 OA 
HETATM    3  O   UNL     1     -10.036   8.963  71.006  1.00  0.00    -0.211 OA 
HETATM    4  H   UNL     1     -13.257   6.439  71.416  1.00  0.00     0.000 HD 
HETATM    5  C   UNL     1      -9.990   8.560  72.388  1.00  0.00    -0.295 C  
HETATM    6  H   UNL     1     -13.069   7.603  73.070  1.00  0.00     0.000 HD 
HETATM    7  C   UNL     1     -11.134   7.571  72.561  1.00  0.00    -0.321 C  
HETATM    8  O   UNL     1     -12.743   6.986  70.834  1.00  0.00    -0.334 OA 
HETATM    9  C   UNL     1     -11.346   6.969  71.169  1.00  0.00    -0.282 C  
ENDROOT
BRANCH   1  10
HETATM   10  O   UNL     1      -9.410   7.103  69.709  1.00  0.00    -0.148 OA 
BRANCH  10  11
HETATM   11  C   UNL     1      -9.637   6.270  68.538  1.00  0.00    -0.126 C  
HETATM   12  O   UNL     1     -10.225   4.328  69.871  1.00  0.00    -0.103 OA 
HETATM   13  H2  UNL     1      -8.455   5.525  64.097  1.00  0.00     0.000 HD 
HETATM   14  H   UNL     1     -10.054   3.409  70.046  1.00  0.00     0.000 HD 
HETATM   15  C   UNL     1      -9.361   4.785  68.822  1.00  0.00    -0.134 C  
HETATM   16  H1  UNL     1      -8.575   7.131  64.625  1.00  0.00     0.000 HD 
HETATM   17  C   UNL     1      -8.778   4.331  66.428  1.00  0.00    -0.113 C  
HETATM   18  N   UNL     1      -9.323   2.481  67.968  1.00  0.00    -0.208 NA 
HETATM   19  N   UNL     1      -8.341   6.171  64.878  1.00  0.00    -0.126 NA 
HETATM   20  H1  UNL     1      -9.496   1.879  67.163  1.00  0.00     0.000 HD 
HETATM   21  H2  UNL     1      -9.838   2.176  68.794  1.00  0.00     0.000 HD 
HETATM   22  C   UNL     1      -9.131   5.775  66.048  1.00  0.00    -0.153 C  
HETATM   23  C   UNL     1      -9.621   3.879  67.613  1.00  0.00    -0.153 C  
HETATM   24  C   UNL     1      -8.932   6.771  67.242  1.00  0.00    -0.117 C  
BRANCH  24  25
HETATM   25  O   UNL     1      -9.256   8.152  66.927  1.00  0.00    -0.144 OA 
BRANCH  25  26
HETATM   26  C   UNL     1      -8.201   8.950  66.376  1.00  0.00    -0.115 C  
HETATM   27  O   UNL     1      -8.595   9.544  65.137  1.00  0.00    -0.142 OA 
HETATM   28  C   UNL     1      -9.664  10.489  65.288  1.00  0.00    -0.270 C  
HETATM   29  C   UNL     1      -9.187  11.685  66.121  1.00  0.00    -0.219 C  
HETATM   30  H2  UNL     1      -6.621   8.814  68.619  1.00  0.00     0.000 HD 
HETATM   31  C   UNL     1      -8.736  11.182  67.493  1.00  0.00    -0.129 C  
HETATM   32  O   UNL     1     -10.211  12.663  66.358  1.00  0.00    -0.242 OA 
HETATM   33  H1  UNL     1      -6.990  10.276  69.346  1.00  0.00     0.000 HD 
HETATM   34  H   UNL     1      -9.915  13.404  66.874  1.00  0.00     0.000 HD 
HETATM   35  H   UNL     1      -7.893  11.965  69.089  1.00  0.00     0.000 HD 
HETATM   36  N   UNL     1      -7.316   9.555  68.703  1.00  0.00    -0.074 NA 
HETATM   37  O   UNL     1      -8.173  12.278  68.237  1.00  0.00    -0.158 OA 
HETATM   38  C   UNL     1      -7.702  10.053  67.362  1.00  0.00    -0.095 C  
BRANCH  28  39
HETATM   39  C   UNL     1     -10.149  10.866  63.877  1.00  0.00    -0.361 C  
HETATM   40  H2  UNL     1      -8.594  12.145  63.432  1.00  0.00     0.000 HD 
HETATM   41  N   UNL     1      -9.613  12.144  63.389  1.00  0.00    -0.671 NA 
HETATM   42  H1  UNL     1      -9.934  12.394  62.454  1.00  0.00     0.000 HD 
ENDBRANCH  28  39
ENDBRANCH  25  26
ENDBRANCH  24  25
ENDBRANCH  10  11
ENDBRANCH   1  10
BRANCH   5  43
HETATM   43  C   UNL     1      -8.635   7.951  72.770  1.00  0.00    -0.170 C  
HETATM   44  O   UNL     1      -8.082   8.673  73.877  1.00  0.00    -0.398 OA 
HETATM   45  H   UNL     1      -7.243   8.296  74.113  1.00  0.00     0.000 HD 
ENDBRANCH   5  43
TORSDOF 6
ENDMDL
MODEL      174
REMARK 921   NORMALIZED FREE ENERGY PREDICTED BY IDOCK:   -4.73 KCAL/MOL
REMARK 922        TOTAL FREE ENERGY PREDICTED BY IDOCK:   -8.03 KCAL/MOL
REMARK 923 INTER-LIGAND FREE ENERGY PREDICTED BY IDOCK:   -6.96 KCAL/MOL
REMARK 924 INTRA-LIGAND FREE ENERGY PREDICTED BY IDOCK:   -1.07 KCAL/MOL
REMARK 927      BINDING AFFINITY PREDICTED BY RF-SCORE:    0.00 PKD
ROOT
HETATM    1  C   UNL     1      -9.559  10.880  67.674  1.00  0.00    -0.163 C  
HETATM    2  O   UNL     1      -7.087   8.689  68.047  1.00  0.00    -0.079 OA 
HETATM    3  O   UNL     1      -9.442  10.048  66.511  1.00  0.00    -0.162 OA 
HETATM    4  H   UNL     1      -7.218  10.334  69.958  1.00  0.00     0.000 HD 
HETATM    5  C   UNL     1      -9.278   8.682  66.934  1.00  0.00    -0.159 C  
HETATM    6  H   UNL     1      -6.609   8.733  68.867  1.00  0.00     0.000 HD 
HETATM    7  C   UNL     1      -8.513   8.753  68.248  1.00  0.00    -0.130 C  
HETATM    8  O   UNL     1      -7.651  10.795  69.250  1.00  0.00    -0.123 OA 
HETATM    9  C   UNL     1      -8.853  10.129  68.827  1.00  0.00    -0.146 C  
ENDROOT
BRANCH   1  10
HETATM   10  O   UNL     1     -10.934  11.078  68.010  1.00  0.00    -0.217 OA 
BRANCH  10  11
HETATM   11  C   UNL     1     -11.245  11.674  69.300  1.00  0.00    -0.265 C  
HETATM   12  O   UNL     1     -11.384   9.520  70.411  1.00  0.00    -0.251 OA 
HETATM   13  H2  UNL     1     -13.206  15.308  71.450  1.00  0.00     0.000 HD 
HETATM   14  H   UNL     1     -11.910   8.945  70.954  1.00  0.00     0.000 HD 
HETATM   15  C   UNL     1     -12.096  10.743  70.178  1.00  0.00    -0.346 C  
HETATM   16  H1  UNL     1     -12.336  15.607  70.027  1.00  0.00     0.000 HD 
HETATM   17  C   UNL     1     -13.126  12.671  71.401  1.00  0.00    -0.308 C  
HETATM   18  N   UNL     1     -13.236  10.386  72.325  1.00  0.00    -0.569 NA 
HETATM   19  N   UNL     1     -12.927  14.950  70.537  1.00  0.00    -0.326 NA 
HETATM   20  H1  UNL     1     -13.448  10.779  73.242  1.00  0.00     0.000 HD 
HETATM   21  H2  UNL     1     -12.800   9.466  72.393  1.00  0.00     0.000 HD 
HETATM   22  C   UNL     1     -12.238  13.658  70.633  1.00  0.00    -0.360 C  
HETATM   23  C   UNL     1     -12.414  11.335  71.556  1.00  0.00    -0.227 C  
HETATM   24  C   UNL     1     -11.829  13.117  69.220  1.00  0.00    -0.323 C  
BRANCH  24  25
HETATM   25  O   UNL     1     -10.984  14.021  68.457  1.00  0.00    -0.239 OA 
BRANCH  25  26
HETATM   26  C   UNL     1     -10.110  14.871  69.210  1.00  0.00    -0.195 C  
HETATM   27  O   UNL     1      -8.767  14.379  69.189  1.00  0.00    -0.054 OA 
HETATM   28  C   UNL     1      -8.186  14.403  67.877  1.00  0.00    -0.156 C  
HETATM   29  C   UNL     1      -8.042  15.855  67.400  1.00  0.00    -0.163 C  
HETATM   30  H2  UNL     1     -11.969  16.864  69.551  1.00  0.00     0.000 HD 
HETATM   31  C   UNL     1      -9.426  16.504  67.371  1.00  0.00    -0.228 C  
HETATM   32  O   UNL     1      -7.505  15.970  66.073  1.00  0.00     0.102 OA 
HETATM   33  H1  UNL     1     -11.517  17.919  68.333  1.00  0.00     0.000 HD 
HETATM   34  H   UNL     1      -7.416  16.869  65.778  1.00  0.00     0.000 HD 
HETATM   35  H   UNL     1     -10.148  18.301  67.024  1.00  0.00     0.000 HD 
HETATM   36  N   UNL     1     -11.496  16.951  68.652  1.00  0.00     0.028 NA 
HETATM   37  O   UNL     1      -9.288  17.898  67.042  1.00  0.00    -0.255 OA 
HETATM   38  C   UNL     1     -10.142  16.353  68.722  1.00  0.00    -0.247 C  
BRANCH  28  39
HETATM   39  C   UNL     1      -6.854  13.636  67.949  1.00  0.00    -0.153 C  
HETATM   40  H2  UNL     1      -6.768  13.134  65.950  1.00  0.00     0.000 HD 
HETATM   41  N   UNL     1      -6.666  12.674  66.855  1.00  0.00    -0.440 NA 
HETATM   42  H1  UNL     1      -5.782  12.166  66.902  1.00  0.00     0.000 HD 
ENDBRANCH  28  39
ENDBRANCH  25  26
ENDBRANCH  24  25
ENDBRANCH  10  11
ENDBRANCH   1  10
BRANCH   5  43
HETATM   43  C   UNL     1     -10.622   7.957  67.086  1.00  0.00    -0.313 C  
HETATM   44  O   UNL     1     -10.575   6.712  66.380  1.00  0.00    -0.487 OA 
HETATM   45  H   UNL     1     -11.407   6.263  66.474  1.00  0.00     0.000 HD 
ENDBRANCH   5  43
TORSDOF 6
ENDMDL
MODEL      175
REMARK 921   NORMALIZED FREE ENERGY PREDICTED BY IDOCK:   -4.72 KCAL/MOL
REMARK 922        TOTAL FREE ENERGY PREDICTED BY IDOCK:   -8.02 KCAL/MOL
REMARK 923 INTER-LIGAND FREE ENERGY PREDICTED BY IDOCK:   -6.97 KCAL/MOL
REMARK 924 INTRA-LIGAND FREE ENERGY PREDICTED BY IDOCK:   -1.05 KCAL/MOL
REMARK 927      BINDING AFFINITY PREDICTED BY RF-SCORE:    0.00 PKD
ROOT
HETATM    1  C   UNL     1     -10.406  10.881  69.413  1.00  0.00    -0.145 C  
HETATM    2  O   UNL     1     -12.767  11.010  71.749  1.00  0.00    -0.382 OA 
HETATM    3  O   UNL     1     -10.124   9.949  70.468  1.00  0.00    -0.259 OA 
HETATM    4  H   UNL     1     -13.073  12.771  69.966  1.00  0.00     0.000 HD 
HETATM    5  C   UNL     1     -11.337   9.250  70.803  1.00  0.00    -0.287 C  
HETATM    6  H   UNL     1     -13.469  11.633  71.601  1.00  0.00     0.000 HD 
HETATM    7  C   UNL     1     -12.461  10.248  70.565  1.00  0.00    -0.267 C  
HETATM    8  O   UNL     1     -12.146  12.569  69.910  1.00  0.00    -0.304 OA 
HETATM    9  C   UNL     1     -11.914  11.210  69.506  1.00  0.00    -0.355 C  
ENDROOT
BRANCH   1  10
HETATM   10  O   UNL     1     -10.127  10.292  68.140  1.00  0.00    -0.144 OA 
BRANCH  10  11
HETATM   11  C   UNL     1      -8.745  10.252  67.692  1.00  0.00    -0.121 C  
HETATM   12  O   UNL     1      -8.438   7.954  68.412  1.00  0.00    -0.127 OA 
HETATM   13  H2  UNL     1      -4.905  12.773  66.931  1.00  0.00     0.000 HD 
HETATM   14  H   UNL     1      -7.912   7.351  68.925  1.00  0.00     0.000 HD 
HETATM   15  C   UNL     1      -7.894   9.277  68.521  1.00  0.00    -0.090 C  
HETATM   16  H1  UNL     1      -6.400  13.477  66.557  1.00  0.00     0.000 HD 
HETATM   17  C   UNL     1      -5.796  10.572  68.082  1.00  0.00    -0.043 C  
HETATM   18  N   UNL     1      -5.696   8.246  68.902  1.00  0.00    -0.038 NA 
HETATM   19  N   UNL     1      -5.894  12.839  67.171  1.00  0.00    -0.327 NA 
HETATM   20  H1  UNL     1      -4.728   8.190  68.588  1.00  0.00     0.000 HD 
HETATM   21  H2  UNL     1      -6.143   7.330  68.937  1.00  0.00     0.000 HD 
HETATM   22  C   UNL     1      -6.558  11.531  67.159  1.00  0.00    -0.124 C  
HETATM   23  C   UNL     1      -6.438   9.192  68.050  1.00  0.00    -0.059 C  
HETATM   24  C   UNL     1      -8.073  11.651  67.543  1.00  0.00    -0.144 C  
BRANCH  24  25
HETATM   25  O   UNL     1      -8.835  12.549  66.692  1.00  0.00    -0.207 OA 
BRANCH  25  26
HETATM   26  C   UNL     1      -9.781  13.404  67.346  1.00  0.00    -0.221 C  
HETATM   27  O   UNL     1      -9.123  14.357  68.184  1.00  0.00    -0.180 OA 
HETATM   28  C   UNL     1      -8.313  15.283  67.444  1.00  0.00    -0.181 C  
HETATM   29  C   UNL     1      -9.205  16.152  66.547  1.00  0.00    -0.272 C  
HETATM   30  H2  UNL     1     -11.933  12.520  65.886  1.00  0.00     0.000 HD 
HETATM   31  C   UNL     1      -9.972  15.243  65.586  1.00  0.00    -0.364 C  
HETATM   32  O   UNL     1      -8.471  17.081  65.737  1.00  0.00    -0.508 OA 
HETATM   33  H1  UNL     1     -12.039  13.727  64.730  1.00  0.00     0.000 HD 
HETATM   34  H   UNL     1      -9.023  17.619  65.182  1.00  0.00     0.000 HD 
HETATM   35  H   UNL     1     -11.378  15.471  64.228  1.00  0.00     0.000 HD 
HETATM   36  N   UNL     1     -11.422  13.247  65.386  1.00  0.00    -0.300 NA 
HETATM   37  O   UNL     1     -10.901  16.036  64.825  1.00  0.00    -0.587 OA 
HETATM   38  C   UNL     1     -10.725  14.138  66.343  1.00  0.00    -0.288 C  
BRANCH  28  39
HETATM   39  C   UNL     1      -7.483  16.086  68.461  1.00  0.00    -0.156 C  
HETATM   40  H2  UNL     1      -6.599  14.461  69.373  1.00  0.00     0.000 HD 
HETATM   41  N   UNL     1      -7.090  15.312  69.647  1.00  0.00    -0.191 NA 
HETATM   42  H1  UNL     1      -6.539  15.844  70.321  1.00  0.00     0.000 HD 
ENDBRANCH  28  39
ENDBRANCH  25  26
ENDBRANCH  24  25
ENDBRANCH  10  11
ENDBRANCH   1  10
BRANCH   5  43
HETATM   43  C   UNL     1     -11.515   7.969  69.976  1.00  0.00     0.070 C  
HETATM   44  O   UNL     1     -12.017   6.924  70.817  1.00  0.00    -0.363 OA 
HETATM   45  H   UNL     1     -12.127   6.132  70.306  1.00  0.00     0.000 HD 
ENDBRANCH   5  43
TORSDOF 6
ENDMDL
MODEL      176
REMARK 921   NORMALIZED FREE ENERGY PREDICTED BY IDOCK:   -4.71 KCAL/MOL
REMARK 922        TOTAL FREE ENERGY PREDICTED BY IDOCK:   -8.01 KCAL/MOL
REMARK 923 INTER-LIGAND FREE ENERGY PREDICTED BY IDOCK:   -7.10 KCAL/MOL
REMARK 924 INTRA-LIGAND FREE ENERGY PREDICTED BY IDOCK:   -0.91 KCAL/MOL
REMARK 927      BINDING AFFINITY PREDICTED BY RF-SCORE:    0.00 PKD
ROOT
HETATM    1  C   UNL     1      -7.935  14.617  68.158  1.00  0.00    -0.136 C  
HETATM    2  O   UNL     1      -7.316  11.354  68.299  1.00  0.00    -0.079 OA 
HETATM    3  O   UNL     1      -7.609  14.223  69.498  1.00  0.00    -0.005 OA 
HETATM    4  H   UNL     1      -8.109  12.090  66.018  1.00  0.00     0.000 HD 
HETATM    5  C   UNL     1      -6.467  13.348  69.458  1.00  0.00    -0.083 C  
HETATM    6  H   UNL     1      -7.388  10.879  67.480  1.00  0.00     0.000 HD 
HETATM    7  C   UNL     1      -6.584  12.586  68.145  1.00  0.00    -0.077 C  
HETATM    8  O   UNL     1      -8.444  12.770  66.590  1.00  0.00    -0.094 OA 
HETATM    9  C   UNL     1      -7.389  13.509  67.226  1.00  0.00    -0.012 C  
ENDROOT
BRANCH   1  10
HETATM   10  O   UNL     1      -7.304  15.859  67.835  1.00  0.00    -0.121 OA 
BRANCH  10  11
HETATM   11  C   UNL     1      -8.153  16.992  67.502  1.00  0.00    -0.175 C  
HETATM   12  O   UNL     1      -6.881  17.527  65.505  1.00  0.00    -0.221 OA 
HETATM   13  H2  UNL     1     -10.921  20.320  69.216  1.00  0.00     0.000 HD 
HETATM   14  H   UNL     1      -6.410  18.198  65.025  1.00  0.00     0.000 HD 
HETATM   15  C   UNL     1      -7.391  18.078  66.727  1.00  0.00    -0.204 C  
HETATM   16  H1  UNL     1     -10.977  18.792  69.946  1.00  0.00     0.000 HD 
HETATM   17  C   UNL     1      -8.898  19.888  67.578  1.00  0.00    -0.411 C  
HETATM   18  N   UNL     1      -7.460  20.265  65.608  1.00  0.00    -0.514 NA 
HETATM   19  N   UNL     1     -10.398  19.481  69.465  1.00  0.00     0.056 NA 
HETATM   20  H1  UNL     1      -8.045  21.059  65.348  1.00  0.00     0.000 HD 
HETATM   21  H2  UNL     1      -6.985  19.857  64.802  1.00  0.00     0.000 HD 
HETATM   22  C   UNL     1      -9.768  18.851  68.300  1.00  0.00    -0.361 C  
HETATM   23  C   UNL     1      -8.269  19.273  66.336  1.00  0.00    -0.319 C  
HETATM   24  C   UNL     1      -8.958  17.572  68.705  1.00  0.00    -0.260 C  
BRANCH  24  25
HETATM   25  O   UNL     1      -9.744  16.561  69.391  1.00  0.00    -0.225 OA 
BRANCH  25  26
HETATM   26  C   UNL     1     -11.159  16.583  69.162  1.00  0.00    -0.270 C  
HETATM   27  O   UNL     1     -11.481  16.058  67.872  1.00  0.00    -0.270 OA 
HETATM   28  C   UNL     1     -11.157  14.666  67.740  1.00  0.00    -0.298 C  
HETATM   29  C   UNL     1     -12.031  13.837  68.692  1.00  0.00    -0.366 C  
HETATM   30  H2  UNL     1     -11.797  17.254  71.747  1.00  0.00     0.000 HD 
HETATM   31  C   UNL     1     -11.775  14.301  70.126  1.00  0.00    -0.288 C  
HETATM   32  O   UNL     1     -11.743  12.432  68.656  1.00  0.00    -0.292 OA 
HETATM   33  H1  UNL     1     -12.187  15.750  72.370  1.00  0.00     0.000 HD 
HETATM   34  H   UNL     1     -12.284  11.919  69.245  1.00  0.00     0.000 HD 
HETATM   35  H   UNL     1     -12.520  13.904  71.904  1.00  0.00     0.000 HD 
HETATM   36  N   UNL     1     -11.663  16.248  71.650  1.00  0.00    -0.475 NA 
HETATM   37  O   UNL     1     -12.679  13.616  71.012  1.00  0.00    -0.338 OA 
HETATM   38  C   UNL     1     -11.960  15.821  70.263  1.00  0.00    -0.361 C  
BRANCH  28  39
HETATM   39  C   UNL     1     -11.323  14.291  66.257  1.00  0.00    -0.346 C  
HETATM   40  H2  UNL     1      -9.341  14.526  65.735  1.00  0.00     0.000 HD 
HETATM   41  N   UNL     1     -10.257  14.814  65.392  1.00  0.00    -0.367 NA 
HETATM   42  H1  UNL     1     -10.367  14.565  64.408  1.00  0.00     0.000 HD 
ENDBRANCH  28  39
ENDBRANCH  25  26
ENDBRANCH  24  25
ENDBRANCH  10  11
ENDBRANCH   1  10
BRANCH   5  43
HETATM   43  C   UNL     1      -5.143  14.117  69.564  1.00  0.00    -0.086 C  
HETATM   44  O   UNL     1      -5.407  15.471  69.947  1.00  0.00    -0.101 OA 
HETATM   45  H   UNL     1      -4.588  15.948  70.013  1.00  0.00     0.000 HD 
ENDBRANCH   5  43
TORSDOF 6
ENDMDL
MODEL      177
REMARK 921   NORMALIZED FREE ENERGY PREDICTED BY IDOCK:   -4.70 KCAL/MOL
REMARK 922        TOTAL FREE ENERGY PREDICTED BY IDOCK:   -7.99 KCAL/MOL
REMARK 923 INTER-LIGAND FREE ENERGY PREDICTED BY IDOCK:   -6.72 KCAL/MOL
REMARK 924 INTRA-LIGAND FREE ENERGY PREDICTED BY IDOCK:   -1.27 KCAL/MOL
REMARK 927      BINDING AFFINITY PREDICTED BY RF-SCORE:    0.00 PKD
ROOT
HETATM    1  C   UNL     1     -10.186  14.039  68.216  1.00  0.00    -0.249 C  
HETATM    2  O   UNL     1     -12.270  11.448  68.211  1.00  0.00    -0.588 OA 
HETATM    3  O   UNL     1      -9.505  12.844  67.806  1.00  0.00    -0.188 OA 
HETATM    4  H   UNL     1     -13.335  13.545  69.129  1.00  0.00     0.000 HD 
HETATM    5  C   UNL     1     -10.335  12.140  66.863  1.00  0.00    -0.212 C  
HETATM    6  H   UNL     1     -13.164  11.631  68.474  1.00  0.00     0.000 HD 
HETATM    7  C   UNL     1     -11.768  12.432  67.285  1.00  0.00    -0.349 C  
HETATM    8  O   UNL     1     -12.407  13.704  69.256  1.00  0.00    -0.288 OA 
HETATM    9  C   UNL     1     -11.697  13.779  68.009  1.00  0.00    -0.355 C  
ENDROOT
BRANCH   1  10
HETATM   10  O   UNL     1      -9.782  15.146  67.407  1.00  0.00    -0.208 OA 
BRANCH  10  11
HETATM   11  C   UNL     1      -9.572  16.429  68.058  1.00  0.00    -0.226 C  
HETATM   12  O   UNL     1     -11.603  17.382  67.131  1.00  0.00     0.674 OA 
HETATM   13  H2  UNL     1      -6.384  19.400  69.697  1.00  0.00     0.000 HD 
HETATM   14  H   UNL     1     -11.986  18.100  66.640  1.00  0.00     0.000 HD 
HETATM   15  C   UNL     1     -10.191  17.590  67.264  1.00  0.00    -0.335 C  
HETATM   16  H1  UNL     1      -6.105  17.743  69.912  1.00  0.00     0.000 HD 
HETATM   17  C   UNL     1      -8.531  19.232  68.172  1.00  0.00    -0.362 C  
HETATM   18  N   UNL     1     -10.622  20.005  67.113  1.00  0.00    -0.379 NA 
HETATM   19  N   UNL     1      -6.511  18.463  69.315  1.00  0.00    -0.261 NA 
HETATM   20  H1  UNL     1     -10.501  20.911  67.565  1.00  0.00     0.000 HD 
HETATM   21  H2  UNL     1     -11.600  19.808  66.901  1.00  0.00     0.000 HD 
HETATM   22  C   UNL     1      -7.922  18.148  69.071  1.00  0.00    -0.069 C  
HETATM   23  C   UNL     1     -10.010  18.953  67.942  1.00  0.00    -0.352 C  
HETATM   24  C   UNL     1      -8.096  16.710  68.472  1.00  0.00    -0.226 C  
BRANCH  24  25
HETATM   25  O   UNL     1      -7.534  15.650  69.292  1.00  0.00    -0.186 OA 
BRANCH  25  26
HETATM   26  C   UNL     1      -6.134  15.388  69.132  1.00  0.00    -0.108 C  
HETATM   27  O   UNL     1      -5.459  15.397  70.392  1.00  0.00    -0.129 OA 
HETATM   28  C   UNL     1      -5.885  14.336  71.259  1.00  0.00    -0.185 C  
HETATM   29  C   UNL     1      -5.494  12.981  70.654  1.00  0.00    -0.169 C  
HETATM   30  H2  UNL     1      -6.336  14.696  66.481  1.00  0.00     0.000 HD 
HETATM   31  C   UNL     1      -6.164  12.840  69.287  1.00  0.00    -0.105 C  
HETATM   32  O   UNL     1      -5.922  11.859  71.440  1.00  0.00    -0.361 OA 
HETATM   33  H1  UNL     1      -6.367  13.027  66.598  1.00  0.00     0.000 HD 
HETATM   34  H   UNL     1      -5.680  11.020  71.065  1.00  0.00     0.000 HD 
HETATM   35  H   UNL     1      -6.123  11.541  67.809  1.00  0.00     0.000 HD 
HETATM   36  N   UNL     1      -6.550  13.904  67.086  1.00  0.00    -0.057 NA 
HETATM   37  O   UNL     1      -5.706  11.629  68.659  1.00  0.00    -0.046 OA 
HETATM   38  C   UNL     1      -5.854  14.046  68.386  1.00  0.00    -0.103 C  
BRANCH  28  39
HETATM   39  C   UNL     1      -5.272  14.599  72.646  1.00  0.00    -0.136 C  
HETATM   40  H2  UNL     1      -5.771  12.776  73.470  1.00  0.00     0.000 HD 
HETATM   41  N   UNL     1      -5.841  13.764  73.712  1.00  0.00    -0.480 NA 
HETATM   42  H1  UNL     1      -5.434  13.938  74.632  1.00  0.00     0.000 HD 
ENDBRANCH  28  39
ENDBRANCH  25  26
ENDBRANCH  24  25
ENDBRANCH  10  11
ENDBRANCH   1  10
BRANCH   5  43
HETATM   43  C   UNL     1     -10.059  12.567  65.415  1.00  0.00    -0.267 C  
HETATM   44  O   UNL     1      -9.189  11.615  64.793  1.00  0.00    -0.414 OA 
HETATM   45  H   UNL     1      -9.018  11.879  63.897  1.00  0.00     0.000 HD 
ENDBRANCH   5  43
TORSDOF 6
ENDMDL
MODEL      178
REMARK 921   NORMALIZED FREE ENERGY PREDICTED BY IDOCK:   -4.70 KCAL/MOL
REMARK 922        TOTAL FREE ENERGY PREDICTED BY IDOCK:   -7.99 KCAL/MOL
REMARK 923 INTER-LIGAND FREE ENERGY PREDICTED BY IDOCK:   -5.94 KCAL/MOL
REMARK 924 INTRA-LIGAND FREE ENERGY PREDICTED BY IDOCK:   -2.05 KCAL/MOL
REMARK 927      BINDING AFFINITY PREDICTED BY RF-SCORE:    0.00 PKD
ROOT
HETATM    1  C   UNL     1      -9.442   5.636  68.192  1.00  0.00    -0.110 C  
HETATM    2  O   UNL     1      -9.617   5.096  64.917  1.00  0.00    -0.363 OA 
HETATM    3  O   UNL     1      -8.545   4.585  67.805  1.00  0.00    -0.102 OA 
HETATM    4  H   UNL     1     -11.322   6.780  65.712  1.00  0.00     0.000 HD 
HETATM    5  C   UNL     1      -7.844   4.990  66.615  1.00  0.00    -0.100 C  
HETATM    6  H   UNL     1     -10.228   5.640  64.435  1.00  0.00     0.000 HD 
HETATM    7  C   UNL     1      -8.824   5.863  65.843  1.00  0.00    -0.149 C  
HETATM    8  O   UNL     1     -11.127   6.286  66.499  1.00  0.00    -0.203 OA 
HETATM    9  C   UNL     1      -9.758   6.441  66.909  1.00  0.00    -0.153 C  
ENDROOT
BRANCH   1  10
HETATM   10  O   UNL     1      -8.818   6.497  69.148  1.00  0.00    -0.128 OA 
BRANCH  10  11
HETATM   11  C   UNL     1      -9.475   6.685  70.432  1.00  0.00    -0.166 C  
HETATM   12  O   UNL     1      -7.865   5.300  71.608  1.00  0.00    -0.105 OA 
HETATM   13  H2  UNL     1     -13.537   7.496  72.557  1.00  0.00     0.000 HD 
HETATM   14  H   UNL     1      -7.737   4.558  72.188  1.00  0.00     0.000 HD 
HETATM   15  C   UNL     1      -9.267   5.485  71.370  1.00  0.00    -0.146 C  
HETATM   16  H1  UNL     1     -13.238   8.294  71.093  1.00  0.00     0.000 HD 
HETATM   17  C   UNL     1     -11.415   5.927  72.579  1.00  0.00    -0.347 C  
HETATM   18  N   UNL     1      -9.684   4.474  73.570  1.00  0.00    -0.123 NA 
HETATM   19  N   UNL     1     -13.085   7.449  71.645  1.00  0.00    -0.365 NA 
HETATM   20  H1  UNL     1     -10.122   4.596  74.483  1.00  0.00     0.000 HD 
HETATM   21  H2  UNL     1      -8.692   4.252  73.646  1.00  0.00     0.000 HD 
HETATM   22  C   UNL     1     -11.644   7.197  71.749  1.00  0.00    -0.280 C  
HETATM   23  C   UNL     1      -9.924   5.668  72.743  1.00  0.00    -0.173 C  
HETATM   24  C   UNL     1     -10.970   7.114  70.336  1.00  0.00    -0.265 C  
BRANCH  24  25
HETATM   25  O   UNL     1     -11.161   8.298  69.515  1.00  0.00    -0.112 OA 
BRANCH  25  26
HETATM   26  C   UNL     1     -10.485   9.489  69.939  1.00  0.00    -0.240 C  
HETATM   27  O   UNL     1      -9.235   9.642  69.262  1.00  0.00    -0.163 OA 
HETATM   28  C   UNL     1      -9.388   9.847  67.850  1.00  0.00    -0.137 C  
HETATM   29  C   UNL     1     -10.100  11.182  67.593  1.00  0.00    -0.179 C  
HETATM   30  H2  UNL     1     -12.621  10.468  71.361  1.00  0.00     0.000 HD 
HETATM   31  C   UNL     1     -11.471  11.148  68.269  1.00  0.00    -0.303 C  
HETATM   32  O   UNL     1     -10.333  11.448  66.202  1.00  0.00    -0.233 OA 
HETATM   33  H1  UNL     1     -13.264  11.543  70.252  1.00  0.00     0.000 HD 
HETATM   34  H   UNL     1     -10.774  12.275  66.043  1.00  0.00     0.000 HD 
HETATM   35  H   UNL     1     -12.947  12.417  68.558  1.00  0.00     0.000 HD 
HETATM   36  N   UNL     1     -12.697  10.704  70.372  1.00  0.00    -0.315 NA 
HETATM   37  O   UNL     1     -12.095  12.439  68.138  1.00  0.00    -0.362 OA 
HETATM   38  C   UNL     1     -11.352  10.773  69.754  1.00  0.00    -0.300 C  
BRANCH  28  39
HETATM   39  C   UNL     1      -7.990   9.754  67.215  1.00  0.00    -0.106 C  
HETATM   40  H2  UNL     1      -8.544  10.402  65.337  1.00  0.00     0.000 HD 
HETATM   41  N   UNL     1      -8.010   9.637  65.751  1.00  0.00    -0.107 NA 
HETATM   42  H1  UNL     1      -7.083   9.576  65.330  1.00  0.00     0.000 HD 
ENDBRANCH  28  39
ENDBRANCH  25  26
ENDBRANCH  24  25
ENDBRANCH  10  11
ENDBRANCH   1  10
BRANCH   5  43
HETATM   43  C   UNL     1      -6.538   5.730  66.934  1.00  0.00    -0.056 C  
HETATM   44  O   UNL     1      -6.374   6.824  66.025  1.00  0.00    -0.046 OA 
HETATM   45  H   UNL     1      -5.565   7.281  66.222  1.00  0.00     0.000 HD 
ENDBRANCH   5  43
TORSDOF 6
ENDMDL
MODEL      179
REMARK 921   NORMALIZED FREE ENERGY PREDICTED BY IDOCK:   -4.69 KCAL/MOL
REMARK 922        TOTAL FREE ENERGY PREDICTED BY IDOCK:   -7.98 KCAL/MOL
REMARK 923 INTER-LIGAND FREE ENERGY PREDICTED BY IDOCK:   -6.84 KCAL/MOL
REMARK 924 INTRA-LIGAND FREE ENERGY PREDICTED BY IDOCK:   -1.15 KCAL/MOL
REMARK 927      BINDING AFFINITY PREDICTED BY RF-SCORE:    0.00 PKD
ROOT
HETATM    1  C   UNL     1     -10.943   8.381  70.947  1.00  0.00    -0.243 C  
HETATM    2  O   UNL     1     -12.635   6.063  72.626  1.00  0.00    -0.536 OA 
HETATM    3  O   UNL     1     -11.069   8.749  72.328  1.00  0.00    -0.359 OA 
HETATM    4  H   UNL     1     -12.556   5.597  70.146  1.00  0.00     0.000 HD 
HETATM    5  C   UNL     1     -10.784   7.597  73.142  1.00  0.00    -0.387 C  
HETATM    6  H   UNL     1     -12.933   5.316  72.122  1.00  0.00     0.000 HD 
HETATM    7  C   UNL     1     -11.264   6.400  72.333  1.00  0.00    -0.277 C  
HETATM    8  O   UNL     1     -12.408   6.534  70.192  1.00  0.00    -0.114 OA 
HETATM    9  C   UNL     1     -11.184   6.855  70.874  1.00  0.00    -0.289 C  
ENDROOT
BRANCH   1  10
HETATM   10  O   UNL     1      -9.627   8.674  70.470  1.00  0.00    -0.167 OA 
BRANCH  10  11
HETATM   11  C   UNL     1      -9.496   9.309  69.168  1.00  0.00    -0.157 C  
HETATM   12  O   UNL     1     -10.846  11.220  69.817  1.00  0.00    -0.440 OA 
HETATM   13  H2  UNL     1      -8.893   8.578  64.610  1.00  0.00     0.000 HD 
HETATM   14  H   UNL     1     -11.596  11.765  69.606  1.00  0.00     0.000 HD 
HETATM   15  C   UNL     1     -10.709  10.190  68.829  1.00  0.00    -0.220 C  
HETATM   16  H1  UNL     1      -8.050   7.581  65.689  1.00  0.00     0.000 HD 
HETATM   17  C   UNL     1     -10.379   9.871  66.366  1.00  0.00    -0.246 C  
HETATM   18  N   UNL     1     -11.788  11.707  67.225  1.00  0.00    -0.626 NA 
HETATM   19  N   UNL     1      -8.901   8.118  65.520  1.00  0.00    -0.134 NA 
HETATM   20  H1  UNL     1     -11.704  12.176  66.323  1.00  0.00     0.000 HD 
HETATM   21  H2  UNL     1     -11.973  12.363  67.984  1.00  0.00     0.000 HD 
HETATM   22  C   UNL     1      -9.100   9.064  66.622  1.00  0.00    -0.160 C  
HETATM   23  C   UNL     1     -10.584  10.896  67.473  1.00  0.00    -0.230 C  
HETATM   24  C   UNL     1      -9.122   8.336  68.010  1.00  0.00    -0.137 C  
BRANCH  24  25
HETATM   25  O   UNL     1      -7.928   7.560  68.295  1.00  0.00    -0.119 OA 
BRANCH  25  26
HETATM   26  C   UNL     1      -8.119   6.320  68.989  1.00  0.00    -0.110 C  
HETATM   27  O   UNL     1      -9.172   5.555  68.398  1.00  0.00    -0.110 OA 
HETATM   28  C   UNL     1      -8.870   5.130  67.061  1.00  0.00    -0.109 C  
HETATM   29  C   UNL     1      -7.687   4.153  67.081  1.00  0.00    -0.088 C  
HETATM   30  H2  UNL     1      -5.857   6.570  70.527  1.00  0.00     0.000 HD 
HETATM   31  C   UNL     1      -6.476   4.858  67.693  1.00  0.00    -0.045 C  
HETATM   32  O   UNL     1      -7.289   3.709  65.776  1.00  0.00    -0.073 OA 
HETATM   33  H1  UNL     1      -4.787   5.618  69.661  1.00  0.00     0.000 HD 
HETATM   34  H   UNL     1      -6.557   3.104  65.788  1.00  0.00     0.000 HD 
HETATM   35  H   UNL     1      -4.646   4.351  68.209  1.00  0.00     0.000 HD 
HETATM   36  N   UNL     1      -5.639   6.177  69.612  1.00  0.00    -0.012 NA 
HETATM   37  O   UNL     1      -5.398   3.913  67.829  1.00  0.00    -0.014 OA 
HETATM   38  C   UNL     1      -6.816   5.464  69.064  1.00  0.00    -0.055 C  
BRANCH  28  39
HETATM   39  C   UNL     1     -10.157   4.538  66.463  1.00  0.00    -0.228 C  
HETATM   40  H2  UNL     1     -10.674   6.189  65.341  1.00  0.00     0.000 HD 
HETATM   41  N   UNL     1     -11.117   5.550  66.001  1.00  0.00    -0.762 NA 
HETATM   42  H1  UNL     1     -11.970   5.156  65.604  1.00  0.00     0.000 HD 
ENDBRANCH  28  39
ENDBRANCH  25  26
ENDBRANCH  24  25
ENDBRANCH  10  11
ENDBRANCH   1  10
BRANCH   5  43
HETATM   43  C   UNL     1      -9.296   7.494  73.502  1.00  0.00    -0.263 C  
HETATM   44  O   UNL     1      -8.877   6.127  73.413  1.00  0.00    -0.126 OA 
HETATM   45  H   UNL     1      -7.956   6.063  73.635  1.00  0.00     0.000 HD 
ENDBRANCH   5  43
TORSDOF 6
ENDMDL
MODEL      180
REMARK 921   NORMALIZED FREE ENERGY PREDICTED BY IDOCK:   -4.69 KCAL/MOL
REMARK 922        TOTAL FREE ENERGY PREDICTED BY IDOCK:   -7.98 KCAL/MOL
REMARK 923 INTER-LIGAND FREE ENERGY PREDICTED BY IDOCK:   -6.51 KCAL/MOL
REMARK 924 INTRA-LIGAND FREE ENERGY PREDICTED BY IDOCK:   -1.46 KCAL/MOL
REMARK 927      BINDING AFFINITY PREDICTED BY RF-SCORE:    0.00 PKD
ROOT
HETATM    1  C   UNL     1      -8.196   9.105  69.202  1.00  0.00    -0.117 C  
HETATM    2  O   UNL     1      -5.494   8.040  70.819  1.00  0.00    -0.029 OA 
HETATM    3  O   UNL     1      -7.486   8.137  68.416  1.00  0.00    -0.095 OA 
HETATM    4  H   UNL     1      -6.681   9.904  72.040  1.00  0.00     0.000 HD 
HETATM    5  C   UNL     1      -7.111   7.036  69.265  1.00  0.00    -0.083 C  
HETATM    6  H   UNL     1      -5.343   8.420  71.677  1.00  0.00     0.000 HD 
HETATM    7  C   UNL     1      -6.868   7.647  70.638  1.00  0.00    -0.046 C  
HETATM    8  O   UNL     1      -6.963  10.024  71.142  1.00  0.00    -0.320 OA 
HETATM    9  C   UNL     1      -7.735   8.909  70.665  1.00  0.00    -0.107 C  
ENDROOT
BRANCH   1  10
HETATM   10  O   UNL     1      -9.605   8.880  69.116  1.00  0.00    -0.158 OA 
BRANCH  10  11
HETATM   11  C   UNL     1     -10.461   9.512  70.107  1.00  0.00    -0.255 C  
HETATM   12  O   UNL     1     -10.762   7.452  71.356  1.00  0.00    -0.220 OA 
HETATM   13  H2  UNL     1     -13.523  12.933  70.878  1.00  0.00     0.000 HD 
HETATM   14  H   UNL     1     -11.385   6.842  71.733  1.00  0.00     0.000 HD 
HETATM   15  C   UNL     1     -11.468   8.524  70.717  1.00  0.00    -0.253 C  
HETATM   16  H1  UNL     1     -12.211  13.261  69.857  1.00  0.00     0.000 HD 
HETATM   17  C   UNL     1     -13.115  10.347  71.206  1.00  0.00    -0.494 C  
HETATM   18  N   UNL     1     -13.301   8.148  72.310  1.00  0.00    -0.532 NA 
HETATM   19  N   UNL     1     -12.870  12.558  70.191  1.00  0.00     0.303 NA 
HETATM   20  H1  UNL     1     -13.897   8.569  73.022  1.00  0.00     0.000 HD 
HETATM   21  H2  UNL     1     -12.818   7.318  72.655  1.00  0.00     0.000 HD 
HETATM   22  C   UNL     1     -12.124  11.404  70.703  1.00  0.00    -0.372 C  
HETATM   23  C   UNL     1     -12.365   9.158  71.788  1.00  0.00    -0.372 C  
HETATM   24  C   UNL     1     -11.136  10.833  69.629  1.00  0.00    -0.279 C  
BRANCH  24  25
HETATM   25  O   UNL     1     -10.177  11.801  69.126  1.00  0.00    -0.083 OA 
BRANCH  25  26
HETATM   26  C   UNL     1      -9.877  11.740  67.726  1.00  0.00    -0.181 C  
HETATM   27  O   UNL     1     -11.004  12.132  66.939  1.00  0.00    -0.245 OA 
HETATM   28  C   UNL     1     -11.365  13.508  67.129  1.00  0.00    -0.321 C  
HETATM   29  C   UNL     1     -10.239  14.415  66.616  1.00  0.00    -0.277 C  
HETATM   30  H2  UNL     1      -7.187  11.319  68.087  1.00  0.00     0.000 HD 
HETATM   31  C   UNL     1      -8.959  14.098  67.390  1.00  0.00    -0.202 C  
HETATM   32  O   UNL     1     -10.499  15.814  66.807  1.00  0.00    -0.295 OA 
HETATM   33  H1  UNL     1      -6.600  12.872  67.877  1.00  0.00     0.000 HD 
HETATM   34  H   UNL     1      -9.801  16.376  66.489  1.00  0.00     0.000 HD 
HETATM   35  H   UNL     1      -7.074  14.659  67.314  1.00  0.00     0.000 HD 
HETATM   36  N   UNL     1      -7.414  12.312  68.131  1.00  0.00    -0.103 NA 
HETATM   37  O   UNL     1      -7.870  14.856  66.833  1.00  0.00    -0.155 OA 
HETATM   38  C   UNL     1      -8.632  12.597  67.337  1.00  0.00    -0.189 C  
BRANCH  28  39
HETATM   39  C   UNL     1     -12.715  13.733  66.426  1.00  0.00    -0.122 C  
HETATM   40  H2  UNL     1     -12.303  12.588  64.761  1.00  0.00     0.000 HD 
HETATM   41  N   UNL     1     -12.670  13.515  64.974  1.00  0.00    -0.681 NA 
HETATM   42  H1  UNL     1     -13.565  13.664  64.508  1.00  0.00     0.000 HD 
ENDBRANCH  28  39
ENDBRANCH  25  26
ENDBRANCH  24  25
ENDBRANCH  10  11
ENDBRANCH   1  10
BRANCH   5  43
HETATM   43  C   UNL     1      -8.184   5.940  69.300  1.00  0.00    -0.113 C  
HETATM   44  O   UNL     1      -8.418   5.544  70.656  1.00  0.00    -0.117 OA 
HETATM   45  H   UNL     1      -9.082   4.865  70.678  1.00  0.00     0.000 HD 
ENDBRANCH   5  43
TORSDOF 6
ENDMDL
MODEL      181
REMARK 921   NORMALIZED FREE ENERGY PREDICTED BY IDOCK:   -4.68 KCAL/MOL
REMARK 922        TOTAL FREE ENERGY PREDICTED BY IDOCK:   -7.97 KCAL/MOL
REMARK 923 INTER-LIGAND FREE ENERGY PREDICTED BY IDOCK:   -7.06 KCAL/MOL
REMARK 924 INTRA-LIGAND FREE ENERGY PREDICTED BY IDOCK:   -0.91 KCAL/MOL
REMARK 927      BINDING AFFINITY PREDICTED BY RF-SCORE:    0.00 PKD
ROOT
HETATM    1  C   UNL     1     -10.495   7.865  69.705  1.00  0.00    -0.226 C  
HETATM    2  O   UNL     1      -9.083   8.446  72.658  1.00  0.00    -0.234 OA 
HETATM    3  O   UNL     1     -11.495   8.004  70.724  1.00  0.00    -0.279 OA 
HETATM    4  H   UNL     1      -7.385   7.973  70.850  1.00  0.00     0.000 HD 
HETATM    5  C   UNL     1     -11.163   9.138  71.546  1.00  0.00    -0.360 C  
HETATM    6  H   UNL     1      -8.134   8.483  72.667  1.00  0.00     0.000 HD 
HETATM    7  C   UNL     1      -9.642   9.196  71.562  1.00  0.00    -0.208 C  
HETATM    8  O   UNL     1      -8.174   7.566  70.513  1.00  0.00    -0.115 OA 
HETATM    9  C   UNL     1      -9.210   8.528  70.254  1.00  0.00    -0.158 C  
ENDROOT
BRANCH   1  10
HETATM   10  O   UNL     1     -10.901   8.539  68.511  1.00  0.00    -0.085 OA 
BRANCH  10  11
HETATM   11  C   UNL     1     -10.293   8.133  67.254  1.00  0.00    -0.303 C  
HETATM   12  O   UNL     1     -10.706   5.776  67.662  1.00  0.00    -0.251 OA 
HETATM   13  H2  UNL     1      -7.106   9.208  64.035  1.00  0.00     0.000 HD 
HETATM   14  H   UNL     1     -10.329   4.905  67.711  1.00  0.00     0.000 HD 
HETATM   15  C   UNL     1      -9.683   6.725  67.334  1.00  0.00    -0.133 C  
HETATM   16  H1  UNL     1      -7.984  10.478  64.734  1.00  0.00     0.000 HD 
HETATM   17  C   UNL     1      -7.993   7.246  65.560  1.00  0.00    -0.122 C  
HETATM   18  N   UNL     1      -8.493   4.910  66.180  1.00  0.00    -0.112 NA 
HETATM   19  N   UNL     1      -7.573   9.554  64.872  1.00  0.00    -0.107 NA 
HETATM   20  H1  UNL     1      -8.079   4.601  65.301  1.00  0.00     0.000 HD 
HETATM   21  H2  UNL     1      -9.181   4.246  66.536  1.00  0.00     0.000 HD 
HETATM   22  C   UNL     1      -8.610   8.635  65.352  1.00  0.00    -0.181 C  
HETATM   23  C   UNL     1      -9.060   6.259  66.012  1.00  0.00    -0.109 C  
HETATM   24  C   UNL     1      -9.307   9.177  66.647  1.00  0.00    -0.177 C  
BRANCH  24  25
HETATM   25  O   UNL     1      -9.909  10.491  66.495  1.00  0.00    -0.191 OA 
BRANCH  25  26
HETATM   26  C   UNL     1     -10.149  11.230  67.699  1.00  0.00    -0.179 C  
HETATM   27  O   UNL     1      -8.925  11.529  68.375  1.00  0.00    -0.167 OA 
HETATM   28  C   UNL     1      -8.075  12.408  67.624  1.00  0.00    -0.168 C  
HETATM   29  C   UNL     1      -8.747  13.780  67.479  1.00  0.00    -0.194 C  
HETATM   30  H2  UNL     1     -12.809  11.666  67.171  1.00  0.00     0.000 HD 
HETATM   31  C   UNL     1     -10.083  13.601  66.757  1.00  0.00    -0.269 C  
HETATM   32  O   UNL     1      -7.981  14.713  66.702  1.00  0.00    -0.325 OA 
HETATM   33  H1  UNL     1     -12.749  13.216  66.543  1.00  0.00     0.000 HD 
HETATM   34  H   UNL     1      -8.397  15.563  66.612  1.00  0.00     0.000 HD 
HETATM   35  H   UNL     1     -11.606  14.751  66.276  1.00  0.00     0.000 HD 
HETATM   36  N   UNL     1     -12.223  12.358  66.706  1.00  0.00    -0.481 NA 
HETATM   37  O   UNL     1     -10.776  14.862  66.724  1.00  0.00    -0.299 OA 
HETATM   38  C   UNL     1     -10.955  12.543  67.450  1.00  0.00    -0.259 C  
BRANCH  28  39
HETATM   39  C   UNL     1      -6.713  12.455  68.338  1.00  0.00    -0.069 C  
HETATM   40  H2  UNL     1      -7.328  11.524  70.072  1.00  0.00     0.000 HD 
HETATM   41  N   UNL     1      -6.807  12.358  69.800  1.00  0.00    -0.350 NA 
HETATM   42  H1  UNL     1      -5.904  12.388  70.273  1.00  0.00     0.000 HD 
ENDBRANCH  28  39
ENDBRANCH  25  26
ENDBRANCH  24  25
ENDBRANCH  10  11
ENDBRANCH   1  10
BRANCH   5  43
HETATM   43  C   UNL     1     -11.787  10.437  71.022  1.00  0.00    -0.361 C  
HETATM   44  O   UNL     1     -12.972  10.132  70.278  1.00  0.00    -0.584 OA 
HETATM   45  H   UNL     1     -13.358  10.937  69.953  1.00  0.00     0.000 HD 
ENDBRANCH   5  43
TORSDOF 6
ENDMDL
MODEL      182
REMARK 921   NORMALIZED FREE ENERGY PREDICTED BY IDOCK:   -4.68 KCAL/MOL
REMARK 922        TOTAL FREE ENERGY PREDICTED BY IDOCK:   -7.96 KCAL/MOL
REMARK 923 INTER-LIGAND FREE ENERGY PREDICTED BY IDOCK:   -6.20 KCAL/MOL
REMARK 924 INTRA-LIGAND FREE ENERGY PREDICTED BY IDOCK:   -1.76 KCAL/MOL
REMARK 927      BINDING AFFINITY PREDICTED BY RF-SCORE:    0.00 PKD
ROOT
HETATM    1  C   UNL     1      -9.816  11.180  66.885  1.00  0.00    -0.194 C  
HETATM    2  O   UNL     1     -11.906  13.707  67.432  1.00  0.00    -0.359 OA 
HETATM    3  O   UNL     1      -9.414  12.338  66.139  1.00  0.00    -0.239 OA 
HETATM    4  H   UNL     1     -12.665  11.567  68.536  1.00  0.00     0.000 HD 
HETATM    5  C   UNL     1      -9.497  13.492  66.996  1.00  0.00    -0.251 C  
HETATM    6  H   UNL     1     -12.628  13.532  68.024  1.00  0.00     0.000 HD 
HETATM    7  C   UNL     1     -10.654  13.211  67.945  1.00  0.00    -0.234 C  
HETATM    8  O   UNL     1     -12.099  11.258  67.839  1.00  0.00    -0.634 OA 
HETATM    9  C   UNL     1     -10.738  11.684  68.020  1.00  0.00    -0.208 C  
ENDROOT
BRANCH   1  10
HETATM   10  O   UNL     1      -8.676  10.533  67.455  1.00  0.00    -0.126 OA 
BRANCH  10  11
HETATM   11  C   UNL     1      -8.094   9.411  66.735  1.00  0.00    -0.109 C  
HETATM   12  O   UNL     1      -6.630  10.838  65.426  1.00  0.00    -0.314 OA 
HETATM   13  H2  UNL     1      -8.838   5.098  65.149  1.00  0.00     0.000 HD 
HETATM   14  H   UNL     1      -6.339  11.083  64.556  1.00  0.00     0.000 HD 
HETATM   15  C   UNL     1      -7.622   9.807  65.327  1.00  0.00    -0.119 C  
HETATM   16  H1  UNL     1      -9.493   5.510  66.656  1.00  0.00     0.000 HD 
HETATM   17  C   UNL     1      -7.950   7.483  64.453  1.00  0.00    -0.117 C  
HETATM   18  N   UNL     1      -6.565   9.113  63.221  1.00  0.00    -0.090 NA 
HETATM   19  N   UNL     1      -9.236   5.839  65.725  1.00  0.00    -0.117 NA 
HETATM   20  H1  UNL     1      -6.136   8.343  62.709  1.00  0.00     0.000 HD 
HETATM   21  H2  UNL     1      -5.956   9.930  63.268  1.00  0.00     0.000 HD 
HETATM   22  C   UNL     1      -8.337   6.990  65.853  1.00  0.00    -0.141 C  
HETATM   23  C   UNL     1      -6.977   8.650  64.557  1.00  0.00    -0.081 C  
HETATM   24  C   UNL     1      -8.971   8.123  66.730  1.00  0.00    -0.146 C  
BRANCH  24  25
HETATM   25  O   UNL     1      -9.351   7.699  68.067  1.00  0.00    -0.140 OA 
BRANCH  25  26
HETATM   26  C   UNL     1      -8.381   6.942  68.800  1.00  0.00    -0.121 C  
HETATM   27  O   UNL     1      -7.363   7.790  69.339  1.00  0.00    -0.081 OA 
HETATM   28  C   UNL     1      -7.866   8.705  70.324  1.00  0.00    -0.097 C  
HETATM   29  C   UNL     1      -8.367   7.927  71.548  1.00  0.00    -0.113 C  
HETATM   30  H2  UNL     1      -9.821   4.604  68.736  1.00  0.00     0.000 HD 
HETATM   31  C   UNL     1      -9.478   6.974  71.105  1.00  0.00    -0.165 C  
HETATM   32  O   UNL     1      -8.928   8.766  72.569  1.00  0.00    -0.386 OA 
HETATM   33  H1  UNL     1     -10.543   4.644  70.245  1.00  0.00     0.000 HD 
HETATM   34  H   UNL     1      -9.238   8.284  73.327  1.00  0.00     0.000 HD 
HETATM   35  H   UNL     1     -10.559   5.561  71.946  1.00  0.00     0.000 HD 
HETATM   36  N   UNL     1     -10.126   5.204  69.501  1.00  0.00    -0.231 NA 
HETATM   37  O   UNL     1      -9.869   6.154  72.221  1.00  0.00    -0.160 OA 
HETATM   38  C   UNL     1      -9.018   6.085  69.938  1.00  0.00    -0.141 C  
BRANCH  28  39
HETATM   39  C   UNL     1      -6.741   9.706  70.640  1.00  0.00    -0.116 C  
HETATM   40  H2  UNL     1      -7.909  11.403  70.555  1.00  0.00     0.000 HD 
HETATM   41  N   UNL     1      -7.019  11.074  70.182  1.00  0.00    -0.461 NA 
HETATM   42  H1  UNL     1      -6.273  11.737  70.392  1.00  0.00     0.000 HD 
ENDBRANCH  28  39
ENDBRANCH  25  26
ENDBRANCH  24  25
ENDBRANCH  10  11
ENDBRANCH   1  10
BRANCH   5  43
HETATM   43  C   UNL     1      -8.184  13.753  67.746  1.00  0.00    -0.174 C  
HETATM   44  O   UNL     1      -8.398  13.596  69.153  1.00  0.00    -0.335 OA 
HETATM   45  H   UNL     1      -7.586  13.758  69.618  1.00  0.00     0.000 HD 
ENDBRANCH   5  43
TORSDOF 6
ENDMDL
MODEL      183
REMARK 921   NORMALIZED FREE ENERGY PREDICTED BY IDOCK:   -4.67 KCAL/MOL
REMARK 922        TOTAL FREE ENERGY PREDICTED BY IDOCK:   -7.96 KCAL/MOL
REMARK 923 INTER-LIGAND FREE ENERGY PREDICTED BY IDOCK:   -6.46 KCAL/MOL
REMARK 924 INTRA-LIGAND FREE ENERGY PREDICTED BY IDOCK:   -1.50 KCAL/MOL
REMARK 927      BINDING AFFINITY PREDICTED BY RF-SCORE:    0.00 PKD
ROOT
HETATM    1  C   UNL     1      -8.139   6.615  66.219  1.00  0.00    -0.115 C  
HETATM    2  O   UNL     1      -7.167   3.436  66.159  1.00  0.00    -0.065 OA 
HETATM    3  O   UNL     1      -8.740   5.924  65.115  1.00  0.00    -0.129 OA 
HETATM    4  H   UNL     1      -5.986   4.776  67.943  1.00  0.00     0.000 HD 
HETATM    5  C   UNL     1      -9.224   4.648  65.574  1.00  0.00    -0.153 C  
HETATM    6  H   UNL     1      -6.567   3.170  66.845  1.00  0.00     0.000 HD 
HETATM    7  C   UNL     1      -8.261   4.221  66.673  1.00  0.00    -0.102 C  
HETATM    8  O   UNL     1      -6.261   5.441  67.324  1.00  0.00    -0.029 OA 
HETATM    9  C   UNL     1      -7.692   5.530  67.227  1.00  0.00    -0.100 C  
ENDROOT
BRANCH   1  10
HETATM   10  O   UNL     1      -9.092   7.477  66.846  1.00  0.00    -0.130 OA 
BRANCH  10  11
HETATM   11  C   UNL     1      -8.632   8.770  67.329  1.00  0.00    -0.121 C  
HETATM   12  O   UNL     1      -8.109   9.567  65.097  1.00  0.00    -0.117 OA 
HETATM   13  H2  UNL     1      -6.700  11.038  70.906  1.00  0.00     0.000 HD 
HETATM   14  H   UNL     1      -7.448   9.948  64.529  1.00  0.00     0.000 HD 
HETATM   15  C   UNL     1      -7.564   9.385  66.411  1.00  0.00    -0.097 C  
HETATM   16  H1  UNL     1      -7.816   9.812  71.257  1.00  0.00     0.000 HD 
HETATM   17  C   UNL     1      -6.535  10.670  68.298  1.00  0.00    -0.058 C  
HETATM   18  N   UNL     1      -6.059  11.272  65.953  1.00  0.00    -0.384 NA 
HETATM   19  N   UNL     1      -7.090  10.141  70.620  1.00  0.00    -0.321 NA 
HETATM   20  H1  UNL     1      -5.738  12.188  66.266  1.00  0.00     0.000 HD 
HETATM   21  H2  UNL     1      -6.388  11.289  64.988  1.00  0.00     0.000 HD 
HETATM   22  C   UNL     1      -7.627  10.176  69.256  1.00  0.00    -0.117 C  
HETATM   23  C   UNL     1      -7.082  10.763  66.881  1.00  0.00    -0.114 C  
HETATM   24  C   UNL     1      -8.209   8.785  68.829  1.00  0.00    -0.116 C  
BRANCH  24  25
HETATM   25  O   UNL     1      -9.249   8.279  69.709  1.00  0.00    -0.153 OA 
BRANCH  25  26
HETATM   26  C   UNL     1      -9.105   6.926  70.161  1.00  0.00    -0.152 C  
HETATM   27  O   UNL     1      -8.282   6.857  71.327  1.00  0.00    -0.112 OA 
HETATM   28  C   UNL     1      -8.867   7.513  72.462  1.00  0.00    -0.132 C  
HETATM   29  C   UNL     1     -10.146   6.778  72.883  1.00  0.00    -0.181 C  
HETATM   30  H2  UNL     1     -11.009   5.914  68.459  1.00  0.00     0.000 HD 
HETATM   31  C   UNL     1     -11.128   6.785  71.711  1.00  0.00    -0.242 C  
HETATM   32  O   UNL     1     -10.822   7.394  73.990  1.00  0.00    -0.558 OA 
HETATM   33  H1  UNL     1     -12.330   5.838  69.484  1.00  0.00     0.000 HD 
HETATM   34  H   UNL     1     -11.614   6.939  74.251  1.00  0.00     0.000 HD 
HETATM   35  H   UNL     1     -12.890   5.997  71.326  1.00  0.00     0.000 HD 
HETATM   36  N   UNL     1     -11.434   6.292  69.305  1.00  0.00    -0.357 NA 
HETATM   37  O   UNL     1     -12.280   5.993  72.055  1.00  0.00    -0.257 OA 
HETATM   38  C   UNL     1     -10.476   6.232  70.434  1.00  0.00    -0.222 C  
BRANCH  28  39
HETATM   39  C   UNL     1      -7.794   7.576  73.562  1.00  0.00    -0.118 C  
HETATM   40  H2  UNL     1      -8.906   8.675  74.908  1.00  0.00     0.000 HD 
HETATM   41  N   UNL     1      -7.972   8.694  74.499  1.00  0.00    -0.448 NA 
HETATM   42  H1  UNL     1      -7.260   8.736  75.229  1.00  0.00     0.000 HD 
ENDBRANCH  28  39
ENDBRANCH  25  26
ENDBRANCH  24  25
ENDBRANCH  10  11
ENDBRANCH   1  10
BRANCH   5  43
HETATM   43  C   UNL     1     -10.673   4.722  66.071  1.00  0.00    -0.158 C  
HETATM   44  O   UNL     1     -11.567   4.527  64.969  1.00  0.00    -1.101 OA 
HETATM   45  H   UNL     1     -12.464   4.572  65.277  1.00  0.00     0.000 HD 
ENDBRANCH   5  43
TORSDOF 6
ENDMDL
MODEL      184
REMARK 921   NORMALIZED FREE ENERGY PREDICTED BY IDOCK:   -4.64 KCAL/MOL
REMARK 922        TOTAL FREE ENERGY PREDICTED BY IDOCK:   -7.91 KCAL/MOL
REMARK 923 INTER-LIGAND FREE ENERGY PREDICTED BY IDOCK:   -6.60 KCAL/MOL
REMARK 924 INTRA-LIGAND FREE ENERGY PREDICTED BY IDOCK:   -1.30 KCAL/MOL
REMARK 927      BINDING AFFINITY PREDICTED BY RF-SCORE:    0.00 PKD
ROOT
HETATM    1  C   UNL     1      -7.715  13.428  68.554  1.00  0.00    -0.124 C  
HETATM    2  O   UNL     1      -5.917  15.608  70.305  1.00  0.00    -0.157 OA 
HETATM    3  O   UNL     1      -8.422  14.668  68.695  1.00  0.00    -0.155 OA 
HETATM    4  H   UNL     1      -4.837  13.328  70.198  1.00  0.00     0.000 HD 
HETATM    5  C   UNL     1      -7.510  15.752  68.440  1.00  0.00    -0.121 C  
HETATM    6  H   UNL     1      -5.069  15.303  70.608  1.00  0.00     0.000 HD 
HETATM    7  C   UNL     1      -6.153  15.264  68.926  1.00  0.00    -0.093 C  
HETATM    8  O   UNL     1      -5.753  13.138  70.036  1.00  0.00    -0.109 OA 
HETATM    9  C   UNL     1      -6.223  13.738  68.818  1.00  0.00    -0.089 C  
ENDROOT
BRANCH   1  10
HETATM   10  O   UNL     1      -7.864  12.916  67.228  1.00  0.00    -0.167 OA 
BRANCH  10  11
HETATM   11  C   UNL     1      -7.804  11.476  67.038  1.00  0.00    -0.161 C  
HETATM   12  O   UNL     1      -5.612  11.571  65.998  1.00  0.00    -0.437 OA 
HETATM   13  H2  UNL     1     -10.306   7.605  66.378  1.00  0.00     0.000 HD 
HETATM   14  H   UNL     1      -5.085  11.330  65.245  1.00  0.00     0.000 HD 
HETATM   15  C   UNL     1      -6.950  11.087  65.821  1.00  0.00     0.094 C  
HETATM   16  H1  UNL     1     -10.928   8.779  67.429  1.00  0.00     0.000 HD 
HETATM   17  C   UNL     1      -8.233   8.964  65.471  1.00  0.00    -0.130 C  
HETATM   18  N   UNL     1      -6.021   9.289  64.427  1.00  0.00    -0.070 NA 
HETATM   19  N   UNL     1     -10.376   8.600  66.590  1.00  0.00    -0.275 NA 
HETATM   20  H1  UNL     1      -5.951   8.281  64.290  1.00  0.00     0.000 HD 
HETATM   21  H2  UNL     1      -5.104   9.735  64.479  1.00  0.00     0.000 HD 
HETATM   22  C   UNL     1      -9.062   9.234  66.734  1.00  0.00    -0.140 C  
HETATM   23  C   UNL     1      -6.844   9.571  65.615  1.00  0.00    -0.087 C  
HETATM   24  C   UNL     1      -9.190  10.764  67.046  1.00  0.00    -0.152 C  
BRANCH  24  25
HETATM   25  O   UNL     1      -9.967  11.066  68.237  1.00  0.00    -0.168 OA 
BRANCH  25  26
HETATM   26  C   UNL     1     -11.378  11.241  68.055  1.00  0.00    -0.304 C  
HETATM   27  O   UNL     1     -12.114  10.650  69.129  1.00  0.00    -0.288 OA 
HETATM   28  C   UNL     1     -11.872  11.292  70.389  1.00  0.00    -0.350 C  
HETATM   29  C   UNL     1     -12.396  12.734  70.347  1.00  0.00    -0.247 C  
HETATM   30  H2  UNL     1     -11.121  12.981  65.945  1.00  0.00     0.000 HD 
HETATM   31  C   UNL     1     -11.676  13.488  69.229  1.00  0.00    -0.330 C  
HETATM   32  O   UNL     1     -12.156  13.466  71.559  1.00  0.00    -0.242 OA 
HETATM   33  H1  UNL     1     -11.307  14.448  66.730  1.00  0.00     0.000 HD 
HETATM   34  H   UNL     1     -12.481  14.358  71.532  1.00  0.00     0.000 HD 
HETATM   35  H   UNL     1     -11.801  15.271  68.406  1.00  0.00     0.000 HD 
HETATM   36  N   UNL     1     -11.041  13.469  66.837  1.00  0.00    -0.292 NA 
HETATM   37  O   UNL     1     -12.248  14.803  69.102  1.00  0.00    -0.262 OA 
HETATM   38  C   UNL     1     -11.784  12.739  67.891  1.00  0.00    -0.357 C  
BRANCH  28  39
HETATM   39  C   UNL     1     -12.521  10.425  71.482  1.00  0.00    -0.404 C  
HETATM   40  H2  UNL     1     -14.327  11.420  71.526  1.00  0.00     0.000 HD 
HETATM   41  N   UNL     1     -13.625  11.089  72.187  1.00  0.00    -0.449 NA 
HETATM   42  H1  UNL     1     -14.055  10.514  72.911  1.00  0.00     0.000 HD 
ENDBRANCH  28  39
ENDBRANCH  25  26
ENDBRANCH  24  25
ENDBRANCH  10  11
ENDBRANCH   1  10
BRANCH   5  43
HETATM   43  C   UNL     1      -7.485  16.153  66.959  1.00  0.00    -0.229 C  
HETATM   44  O   UNL     1      -6.150  16.507  66.582  1.00  0.00    -0.307 OA 
HETATM   45  H   UNL     1      -6.134  16.756  65.666  1.00  0.00     0.000 HD 
ENDBRANCH   5  43
TORSDOF 6
ENDMDL
MODEL      185
REMARK 921   NORMALIZED FREE ENERGY PREDICTED BY IDOCK:   -4.63 KCAL/MOL
REMARK 922        TOTAL FREE ENERGY PREDICTED BY IDOCK:   -7.90 KCAL/MOL
REMARK 923 INTER-LIGAND FREE ENERGY PREDICTED BY IDOCK:   -6.64 KCAL/MOL
REMARK 924 INTRA-LIGAND FREE ENERGY PREDICTED BY IDOCK:   -1.26 KCAL/MOL
REMARK 927      BINDING AFFINITY PREDICTED BY RF-SCORE:    0.00 PKD
ROOT
HETATM    1  C   UNL     1     -10.351  12.155  67.761  1.00  0.00    -0.206 C  
HETATM    2  O   UNL     1     -11.372  14.571  65.719  1.00  0.00    -0.328 OA 
HETATM    3  O   UNL     1      -9.313  13.127  67.571  1.00  0.00    -0.193 OA 
HETATM    4  H   UNL     1     -13.062  12.708  65.934  1.00  0.00     0.000 HD 
HETATM    5  C   UNL     1      -9.887  14.443  67.673  1.00  0.00    -0.224 C  
HETATM    6  H   UNL     1     -12.257  14.489  65.383  1.00  0.00     0.000 HD 
HETATM    7  C   UNL     1     -11.305  14.311  67.135  1.00  0.00    -0.337 C  
HETATM    8  O   UNL     1     -12.247  12.285  66.175  1.00  0.00    -0.647 OA 
HETATM    9  C   UNL     1     -11.679  12.845  67.370  1.00  0.00    -0.372 C  
ENDROOT
BRANCH   1  10
HETATM   10  O   UNL     1     -10.413  11.754  69.132  1.00  0.00    -0.147 OA 
BRANCH  10  11
HETATM   11  C   UNL     1     -11.220  10.592  69.470  1.00  0.00    -0.271 C  
HETATM   12  O   UNL     1     -12.883  11.920  70.637  1.00  0.00    -0.129 OA 
HETATM   13  H2  UNL     1     -11.147   6.021  70.352  1.00  0.00     0.000 HD 
HETATM   14  H   UNL     1     -13.370  12.044  71.443  1.00  0.00     0.000 HD 
HETATM   15  C   UNL     1     -12.008  10.793  70.774  1.00  0.00    -0.362 C  
HETATM   16  H1  UNL     1     -10.110   6.611  69.148  1.00  0.00     0.000 HD 
HETATM   17  C   UNL     1     -12.044   8.334  71.251  1.00  0.00    -0.307 C  
HETATM   18  N   UNL     1     -13.600   9.866  72.401  1.00  0.00    -0.623 NA 
HETATM   19  N   UNL     1     -10.574   6.803  70.036  1.00  0.00    -0.210 NA 
HETATM   20  H1  UNL     1     -14.187   9.069  72.643  1.00  0.00     0.000 HD 
HETATM   21  H2  UNL     1     -14.130  10.737  72.364  1.00  0.00     0.000 HD 
HETATM   22  C   UNL     1     -11.346   8.045  69.916  1.00  0.00     0.056 C  
HETATM   23  C   UNL     1     -12.891   9.594  71.139  1.00  0.00    -0.316 C  
HETATM   24  C   UNL     1     -10.447   9.238  69.442  1.00  0.00    -0.219 C  
BRANCH  24  25
HETATM   25  O   UNL     1      -9.767   9.008  68.179  1.00  0.00    -0.146 OA 
BRANCH  25  26
HETATM   26  C   UNL     1      -8.378   9.354  68.126  1.00  0.00    -0.119 C  
HETATM   27  O   UNL     1      -7.606   8.528  69.000  1.00  0.00    -0.090 OA 
HETATM   28  C   UNL     1      -7.607   7.147  68.606  1.00  0.00    -0.111 C  
HETATM   29  C   UNL     1      -6.901   6.993  67.252  1.00  0.00    -0.069 C  
HETATM   30  H2  UNL     1      -8.646  11.041  65.975  1.00  0.00     0.000 HD 
HETATM   31  C   UNL     1      -7.640   7.835  66.212  1.00  0.00    -0.087 C  
HETATM   32  O   UNL     1      -6.894   5.644  66.761  1.00  0.00    -0.060 OA 
HETATM   33  H1  UNL     1      -8.171  10.030  64.728  1.00  0.00     0.000 HD 
HETATM   34  H   UNL     1      -6.456   5.549  65.923  1.00  0.00     0.000 HD 
HETATM   35  H   UNL     1      -7.374   8.317  64.323  1.00  0.00     0.000 HD 
HETATM   36  N   UNL     1      -8.552  10.072  65.673  1.00  0.00    -0.149 NA 
HETATM   37  O   UNL     1      -6.915   7.794  64.969  1.00  0.00    -0.057 OA 
HETATM   38  C   UNL     1      -7.795   9.291  66.679  1.00  0.00    -0.104 C  
BRANCH  28  39
HETATM   39  C   UNL     1      -6.956   6.342  69.744  1.00  0.00    -0.070 C  
HETATM   40  H2  UNL     1      -8.410   4.884  69.859  1.00  0.00     0.000 HD 
HETATM   41  N   UNL     1      -7.901   5.502  70.491  1.00  0.00    -0.095 NA 
HETATM   42  H1  UNL     1      -7.469   4.967  71.245  1.00  0.00     0.000 HD 
ENDBRANCH  28  39
ENDBRANCH  25  26
ENDBRANCH  24  25
ENDBRANCH  10  11
ENDBRANCH   1  10
BRANCH   5  43
HETATM   43  C   UNL     1      -9.862  14.977  69.112  1.00  0.00    -0.223 C  
HETATM   44  O   UNL     1      -8.522  14.933  69.614  1.00  0.00    -0.427 OA 
HETATM   45  H   UNL     1      -8.506  15.263  70.504  1.00  0.00     0.000 HD 
ENDBRANCH   5  43
TORSDOF 6
ENDMDL
MODEL      186
REMARK 921   NORMALIZED FREE ENERGY PREDICTED BY IDOCK:   -4.63 KCAL/MOL
REMARK 922        TOTAL FREE ENERGY PREDICTED BY IDOCK:   -7.90 KCAL/MOL
REMARK 923 INTER-LIGAND FREE ENERGY PREDICTED BY IDOCK:   -7.38 KCAL/MOL
REMARK 924 INTRA-LIGAND FREE ENERGY PREDICTED BY IDOCK:   -0.51 KCAL/MOL
REMARK 927      BINDING AFFINITY PREDICTED BY RF-SCORE:    0.00 PKD
ROOT
HETATM    1  C   UNL     1     -11.716  14.185  69.723  1.00  0.00    -0.311 C  
HETATM    2  O   UNL     1     -13.152  14.027  72.717  1.00  0.00    -0.478 OA 
HETATM    3  O   UNL     1     -11.305  12.999  70.418  1.00  0.00     0.146 OA 
HETATM    4  H   UNL     1     -13.653  16.191  71.517  1.00  0.00     0.000 HD 
HETATM    5  C   UNL     1     -12.463  12.390  71.018  1.00  0.00    -0.256 C  
HETATM    6  H   UNL     1     -13.729  14.746  72.942  1.00  0.00     0.000 HD 
HETATM    7  C   UNL     1     -13.387  13.543  71.380  1.00  0.00    -0.221 C  
HETATM    8  O   UNL     1     -12.849  15.898  71.103  1.00  0.00    -0.467 OA 
HETATM    9  C   UNL     1     -13.025  14.660  70.397  1.00  0.00    -0.200 C  
ENDROOT
BRANCH   1  10
HETATM   10  O   UNL     1     -11.972  13.893  68.347  1.00  0.00    -0.354 OA 
BRANCH  10  11
HETATM   11  C   UNL     1     -10.859  13.452  67.521  1.00  0.00    -0.263 C  
HETATM   12  O   UNL     1     -12.186  11.754  66.405  1.00  0.00    -0.341 OA 
HETATM   13  H2  UNL     1      -6.228  13.046  67.261  1.00  0.00     0.000 HD 
HETATM   14  H   UNL     1     -12.256  10.836  66.169  1.00  0.00     0.000 HD 
HETATM   15  C   UNL     1     -10.973  11.968  67.139  1.00  0.00    -0.270 C  
HETATM   16  H1  UNL     1      -6.860  14.431  68.005  1.00  0.00     0.000 HD 
HETATM   17  C   UNL     1      -8.489  11.727  66.927  1.00  0.00    -0.174 C  
HETATM   18  N   UNL     1     -10.009  10.056  65.934  1.00  0.00    -0.265 NA 
HETATM   19  N   UNL     1      -6.986  13.436  67.821  1.00  0.00    -0.141 NA 
HETATM   20  H1  UNL     1      -9.247   9.734  65.338  1.00  0.00     0.000 HD 
HETATM   21  H2  UNL     1     -10.924   9.864  65.525  1.00  0.00     0.000 HD 
HETATM   22  C   UNL     1      -8.300  13.223  67.205  1.00  0.00    -0.135 C  
HETATM   23  C   UNL     1      -9.826  11.484  66.243  1.00  0.00    -0.217 C  
HETATM   24  C   UNL     1      -9.452  13.816  68.086  1.00  0.00    -0.212 C  
BRANCH  24  25
HETATM   25  O   UNL     1      -9.314  15.235  68.372  1.00  0.00    -0.186 OA 
BRANCH  25  26
HETATM   26  C   UNL     1      -8.464  15.986  67.498  1.00  0.00    -0.163 C  
HETATM   27  O   UNL     1      -9.207  16.556  66.418  1.00  0.00    -0.254 OA 
HETATM   28  C   UNL     1     -10.162  17.534  66.854  1.00  0.00    -0.329 C  
HETATM   29  C   UNL     1      -9.430  18.740  67.459  1.00  0.00    -0.298 C  
HETATM   30  H2  UNL     1      -6.275  15.869  69.153  1.00  0.00     0.000 HD 
HETATM   31  C   UNL     1      -8.590  18.263  68.644  1.00  0.00    -0.283 C  
HETATM   32  O   UNL     1     -10.314  19.753  67.962  1.00  0.00    -0.427 OA 
HETATM   33  H1  UNL     1      -6.377  17.360  69.906  1.00  0.00     0.000 HD 
HETATM   34  H   UNL     1      -9.860  20.499  68.337  1.00  0.00     0.000 HD 
HETATM   35  H   UNL     1      -7.283  19.066  69.878  1.00  0.00     0.000 HD 
HETATM   36  N   UNL     1      -6.898  16.631  69.419  1.00  0.00    -0.235 NA 
HETATM   37  O   UNL     1      -7.806  19.363  69.141  1.00  0.00    -0.336 OA 
HETATM   38  C   UNL     1      -7.667  17.101  68.243  1.00  0.00    -0.220 C  
BRANCH  28  39
HETATM   39  C   UNL     1     -11.048  17.886  65.647  1.00  0.00     0.496 C  
HETATM   40  H2  UNL     1     -11.580  15.949  65.177  1.00  0.00     0.000 HD 
HETATM   41  N   UNL     1     -11.225  16.777  64.699  1.00  0.00    -0.914 NA 
HETATM   42  H1  UNL     1     -11.813  17.010  63.899  1.00  0.00     0.000 HD 
ENDBRANCH  28  39
ENDBRANCH  25  26
ENDBRANCH  24  25
ENDBRANCH  10  11
ENDBRANCH   1  10
BRANCH   5  43
HETATM   43  C   UNL     1     -13.138  11.378  70.082  1.00  0.00     0.447 C  
HETATM   44  O   UNL     1     -13.374  10.156  70.790  1.00  0.00    -0.524 OA 
HETATM   45  H   UNL     1     -13.791   9.530  70.210  1.00  0.00     0.000 HD 
ENDBRANCH   5  43
TORSDOF 6
ENDMDL
MODEL      187
REMARK 921   NORMALIZED FREE ENERGY PREDICTED BY IDOCK:   -4.62 KCAL/MOL
REMARK 922        TOTAL FREE ENERGY PREDICTED BY IDOCK:   -7.89 KCAL/MOL
REMARK 923 INTER-LIGAND FREE ENERGY PREDICTED BY IDOCK:   -7.71 KCAL/MOL
REMARK 924 INTRA-LIGAND FREE ENERGY PREDICTED BY IDOCK:   -0.18 KCAL/MOL
REMARK 927      BINDING AFFINITY PREDICTED BY RF-SCORE:    0.00 PKD
ROOT
HETATM    1  C   UNL     1      -7.671  10.815  66.344  1.00  0.00    -0.145 C  
HETATM    2  O   UNL     1      -5.278  11.277  64.083  1.00  0.00    -0.467 OA 
HETATM    3  O   UNL     1      -8.224  10.830  65.020  1.00  0.00    -0.121 OA 
HETATM    4  H   UNL     1      -4.420  11.456  66.451  1.00  0.00     0.000 HD 
HETATM    5  C   UNL     1      -7.392  10.026  64.163  1.00  0.00    -0.132 C  
HETATM    6  H   UNL     1      -4.396  11.373  64.422  1.00  0.00     0.000 HD 
HETATM    7  C   UNL     1      -5.979  10.182  64.706  1.00  0.00    -0.123 C  
HETATM    8  O   UNL     1      -5.346  11.641  66.545  1.00  0.00    -0.196 OA 
HETATM    9  C   UNL     1      -6.162  10.513  66.189  1.00  0.00    -0.111 C  
ENDROOT
BRANCH   1  10
HETATM   10  O   UNL     1      -8.281   9.787  67.128  1.00  0.00    -0.119 OA 
BRANCH  10  11
HETATM   11  C   UNL     1      -8.988  10.176  68.338  1.00  0.00    -0.123 C  
HETATM   12  O   UNL     1      -7.554   8.834  69.766  1.00  0.00    -0.068 OA 
HETATM   13  H2  UNL     1     -13.079  11.529  70.101  1.00  0.00     0.000 HD 
HETATM   14  H   UNL     1      -7.515   8.162  70.436  1.00  0.00     0.000 HD 
HETATM   15  C   UNL     1      -8.923   9.089  69.422  1.00  0.00    -0.145 C  
HETATM   16  H1  UNL     1     -12.643  12.118  68.573  1.00  0.00     0.000 HD 
HETATM   17  C   UNL     1     -11.091   9.827  70.437  1.00  0.00    -0.367 C  
HETATM   18  N   UNL     1      -9.532   8.387  71.697  1.00  0.00    -0.191 NA 
HETATM   19  N   UNL     1     -12.586  11.339  69.229  1.00  0.00    -0.221 NA 
HETATM   20  H1  UNL     1     -10.006   8.651  72.560  1.00  0.00     0.000 HD 
HETATM   21  H2  UNL     1      -8.565   8.105  71.859  1.00  0.00     0.000 HD 
HETATM   22  C   UNL     1     -11.176  10.998  69.450  1.00  0.00    -0.268 C  
HETATM   23  C   UNL     1      -9.635   9.485  70.721  1.00  0.00    -0.192 C  
HETATM   24  C   UNL     1     -10.438  10.697  68.101  1.00  0.00    -0.185 C  
BRANCH  24  25
HETATM   25  O   UNL     1     -10.492  11.781  67.136  1.00  0.00    -0.211 OA 
BRANCH  25  26
HETATM   26  C   UNL     1     -11.444  12.821  67.392  1.00  0.00    -0.340 C  
HETATM   27  O   UNL     1     -10.858  13.884  68.146  1.00  0.00    -0.239 OA 
HETATM   28  C   UNL     1      -9.821  14.570  67.429  1.00  0.00    -0.227 C  
HETATM   29  C   UNL     1     -10.418  15.285  66.210  1.00  0.00    -0.307 C  
HETATM   30  H2  UNL     1     -13.358  11.796  65.709  1.00  0.00     0.000 HD 
HETATM   31  C   UNL     1     -11.081  14.246  65.305  1.00  0.00    -0.335 C  
HETATM   32  O   UNL     1      -9.440  15.964  65.408  1.00  0.00    -0.355 OA 
HETATM   33  H1  UNL     1     -13.101  12.728  64.343  1.00  0.00     0.000 HD 
HETATM   34  H   UNL     1      -9.810  16.406  64.653  1.00  0.00     0.000 HD 
HETATM   35  H   UNL     1     -12.162  14.273  63.660  1.00  0.00     0.000 HD 
HETATM   36  N   UNL     1     -12.681  12.360  65.197  1.00  0.00    -0.562 NA 
HETATM   37  O   UNL     1     -11.749  14.919  64.222  1.00  0.00    -0.343 OA 
HETATM   38  C   UNL     1     -12.087  13.385  66.086  1.00  0.00    -0.429 C  
BRANCH  28  39
HETATM   39  C   UNL     1      -9.119  15.513  68.422  1.00  0.00    -0.190 C  
HETATM   40  H2  UNL     1      -9.106  14.205  70.016  1.00  0.00     0.000 HD 
HETATM   41  N   UNL     1      -9.360  15.175  69.831  1.00  0.00    -0.457 NA 
HETATM   42  H1  UNL     1      -8.894  15.800  70.489  1.00  0.00     0.000 HD 
ENDBRANCH  28  39
ENDBRANCH  25  26
ENDBRANCH  24  25
ENDBRANCH  10  11
ENDBRANCH   1  10
BRANCH   5  43
HETATM   43  C   UNL     1      -7.841   8.559  64.130  1.00  0.00    -0.144 C  
HETATM   44  O   UNL     1      -9.129   8.439  64.745  1.00  0.00    -0.397 OA 
HETATM   45  H   UNL     1      -9.406   7.531  64.724  1.00  0.00     0.000 HD 
ENDBRANCH   5  43
TORSDOF 6
ENDMDL
MODEL      188
REMARK 921   NORMALIZED FREE ENERGY PREDICTED BY IDOCK:   -4.62 KCAL/MOL
REMARK 922        TOTAL FREE ENERGY PREDICTED BY IDOCK:   -7.88 KCAL/MOL
REMARK 923 INTER-LIGAND FREE ENERGY PREDICTED BY IDOCK:   -6.92 KCAL/MOL
REMARK 924 INTRA-LIGAND FREE ENERGY PREDICTED BY IDOCK:   -0.96 KCAL/MOL
REMARK 927      BINDING AFFINITY PREDICTED BY RF-SCORE:    0.00 PKD
ROOT
HETATM    1  C   UNL     1      -9.687   9.534  67.099  1.00  0.00    -0.171 C  
HETATM    2  O   UNL     1      -8.888   7.639  64.487  1.00  0.00    -0.294 OA 
HETATM    3  O   UNL     1      -9.895   8.147  67.400  1.00  0.00    -0.157 OA 
HETATM    4  H   UNL     1      -8.758  10.106  63.968  1.00  0.00     0.000 HD 
HETATM    5  C   UNL     1      -8.760   7.396  66.929  1.00  0.00    -0.126 C  
HETATM    6  H   UNL     1      -8.582   8.099  63.714  1.00  0.00     0.000 HD 
HETATM    7  C   UNL     1      -8.270   8.134  65.691  1.00  0.00    -0.133 C  
HETATM    8  O   UNL     1      -9.354  10.075  64.706  1.00  0.00    -0.230 OA 
HETATM    9  C   UNL     1      -8.715   9.584  65.896  1.00  0.00    -0.147 C  
ENDROOT
BRANCH   1  10
HETATM   10  O   UNL     1      -9.093  10.203  68.214  1.00  0.00    -0.120 OA 
BRANCH  10  11
HETATM   11  C   UNL     1      -9.975  10.763  69.226  1.00  0.00    -0.159 C  
HETATM   12  O   UNL     1     -10.379   8.605  70.260  1.00  0.00    -0.190 OA 
HETATM   13  H2  UNL     1     -12.981  14.183  70.195  1.00  0.00     0.000 HD 
HETATM   14  H   UNL     1     -11.032   7.979  70.553  1.00  0.00     0.000 HD 
HETATM   15  C   UNL     1     -11.031   9.752  69.699  1.00  0.00    -0.241 C  
HETATM   16  H1  UNL     1     -11.620  14.568  69.263  1.00  0.00     0.000 HD 
HETATM   17  C   UNL     1     -12.652  11.567  70.292  1.00  0.00    -0.193 C  
HETATM   18  N   UNL     1     -12.938   9.280  71.174  1.00  0.00    -0.496 NA 
HETATM   19  N   UNL     1     -12.310  13.855  69.502  1.00  0.00    -0.299 NA 
HETATM   20  H1  UNL     1     -13.554   9.650  71.898  1.00  0.00     0.000 HD 
HETATM   21  H2  UNL     1     -12.492   8.408  71.458  1.00  0.00     0.000 HD 
HETATM   22  C   UNL     1     -11.614  12.638  69.932  1.00  0.00    -0.177 C  
HETATM   23  C   UNL     1     -11.956  10.307  70.788  1.00  0.00    -0.360 C  
HETATM   24  C   UNL     1     -10.596  12.142  68.849  1.00  0.00    -0.146 C  
BRANCH  24  25
HETATM   25  O   UNL     1      -9.592  13.126  68.479  1.00  0.00    -0.200 OA 
BRANCH  25  26
HETATM   26  C   UNL     1      -8.979  12.964  67.194  1.00  0.00    -0.219 C  
HETATM   27  O   UNL     1      -9.962  12.807  66.168  1.00  0.00    -0.258 OA 
HETATM   28  C   UNL     1     -10.773  13.978  65.990  1.00  0.00    -0.294 C  
HETATM   29  C   UNL     1      -9.906  15.137  65.480  1.00  0.00    -0.321 C  
HETATM   30  H2  UNL     1      -6.450  13.583  68.070  1.00  0.00     0.000 HD 
HETATM   31  C   UNL     1      -8.802  15.415  66.502  1.00  0.00    -0.312 C  
HETATM   32  O   UNL     1     -10.631  16.365  65.315  1.00  0.00    -0.548 OA 
HETATM   33  H1  UNL     1      -6.353  15.192  67.622  1.00  0.00     0.000 HD 
HETATM   34  H   UNL     1     -10.094  17.082  64.999  1.00  0.00     0.000 HD 
HETATM   35  H   UNL     1      -7.227  16.588  66.612  1.00  0.00     0.000 HD 
HETATM   36  N   UNL     1      -6.983  14.426  67.857  1.00  0.00    -0.146 NA 
HETATM   37  O   UNL     1      -7.913  16.416  65.977  1.00  0.00    -0.214 OA 
HETATM   38  C   UNL     1      -8.015  14.137  66.834  1.00  0.00     0.187 C  
BRANCH  28  39
HETATM   39  C   UNL     1     -11.927  13.602  65.046  1.00  0.00    -0.378 C  
HETATM   40  H2  UNL     1     -11.674  11.559  65.172  1.00  0.00     0.000 HD 
HETATM   41  N   UNL     1     -11.791  12.267  64.447  1.00  0.00    -0.379 NA 
HETATM   42  H1  UNL     1     -12.557  12.017  63.821  1.00  0.00     0.000 HD 
ENDBRANCH  28  39
ENDBRANCH  25  26
ENDBRANCH  24  25
ENDBRANCH  10  11
ENDBRANCH   1  10
BRANCH   5  43
HETATM   43  C   UNL     1      -7.666   7.268  67.997  1.00  0.00    -0.117 C  
HETATM   44  O   UNL     1      -7.624   5.921  68.480  1.00  0.00    -0.087 OA 
HETATM   45  H   UNL     1      -6.947   5.842  69.141  1.00  0.00     0.000 HD 
ENDBRANCH   5  43
TORSDOF 6
ENDMDL
MODEL      189
REMARK 921   NORMALIZED FREE ENERGY PREDICTED BY IDOCK:   -4.61 KCAL/MOL
REMARK 922        TOTAL FREE ENERGY PREDICTED BY IDOCK:   -7.88 KCAL/MOL
REMARK 923 INTER-LIGAND FREE ENERGY PREDICTED BY IDOCK:   -6.63 KCAL/MOL
REMARK 924 INTRA-LIGAND FREE ENERGY PREDICTED BY IDOCK:   -1.25 KCAL/MOL
REMARK 927      BINDING AFFINITY PREDICTED BY RF-SCORE:    0.00 PKD
ROOT
HETATM    1  C   UNL     1     -11.814  12.891  68.146  1.00  0.00    -0.336 C  
HETATM    2  O   UNL     1     -13.417  12.671  71.050  1.00  0.00     0.192 OA 
HETATM    3  O   UNL     1     -12.666  14.029  68.339  1.00  0.00     0.326 OA 
HETATM    4  H   UNL     1     -12.062  10.604  70.534  1.00  0.00     0.000 HD 
HETATM    5  C   UNL     1     -12.506  14.503  69.689  1.00  0.00    -0.168 C  
HETATM    6  H   UNL     1     -13.234  11.897  71.570  1.00  0.00     0.000 HD 
HETATM    7  C   UNL     1     -12.214  13.264  70.523  1.00  0.00    -0.340 C  
HETATM    8  O   UNL     1     -12.205  10.985  69.675  1.00  0.00    -0.330 OA 
HETATM    9  C   UNL     1     -11.580  12.272  69.544  1.00  0.00    -0.298 C  
ENDROOT
BRANCH   1  10
HETATM   10  O   UNL     1     -10.559  13.297  67.593  1.00  0.00    -0.232 OA 
BRANCH  10  11
HETATM   11  C   UNL     1     -10.481  13.512  66.157  1.00  0.00    -0.296 C  
HETATM   12  O   UNL     1     -10.365  15.925  66.391  1.00  0.00    -0.286 OA 
HETATM   13  H2  UNL     1     -11.660  11.834  61.977  1.00  0.00     0.000 HD 
HETATM   14  H   UNL     1     -10.734  16.762  66.133  1.00  0.00     0.000 HD 
HETATM   15  C   UNL     1     -11.078  14.865  65.740  1.00  0.00    -0.342 C  
HETATM   16  H1  UNL     1     -11.214  10.725  63.177  1.00  0.00     0.000 HD 
HETATM   17  C   UNL     1     -11.672  14.017  63.460  1.00  0.00     0.272 C  
HETATM   18  N   UNL     1     -11.584  16.440  63.923  1.00  0.00    -1.602 NA 
HETATM   19  N   UNL     1     -11.657  11.621  62.974  1.00  0.00     0.000 NA 
HETATM   20  H1  UNL     1     -11.520  16.617  62.921  1.00  0.00     0.000 HD 
HETATM   21  H2  UNL     1     -11.172  17.193  64.473  1.00  0.00     0.000 HD 
HETATM   22  C   UNL     1     -11.006  12.670  63.766  1.00  0.00    -0.435 C  
HETATM   23  C   UNL     1     -10.982  15.132  64.234  1.00  0.00     0.195 C  
HETATM   24  C   UNL     1     -11.022  12.331  65.296  1.00  0.00    -0.307 C  
BRANCH  24  25
HETATM   25  O   UNL     1     -10.399  11.062  65.633  1.00  0.00    -0.246 OA 
BRANCH  25  26
HETATM   26  C   UNL     1      -8.980  10.975  65.449  1.00  0.00    -0.178 C  
HETATM   27  O   UNL     1      -8.297  10.967  66.704  1.00  0.00    -0.144 OA 
HETATM   28  C   UNL     1      -8.589   9.802  67.490  1.00  0.00    -0.125 C  
HETATM   29  C   UNL     1      -8.053   8.551  66.783  1.00  0.00    -0.098 C  
HETATM   30  H2  UNL     1      -9.131  10.466  62.754  1.00  0.00     0.000 HD 
HETATM   31  C   UNL     1      -8.717   8.436  65.411  1.00  0.00    -0.141 C  
HETATM   32  O   UNL     1      -8.340   7.331  67.483  1.00  0.00    -0.115 OA 
HETATM   33  H1  UNL     1      -8.969   8.800  62.745  1.00  0.00     0.000 HD 
HETATM   34  H   UNL     1      -8.008   6.556  67.045  1.00  0.00     0.000 HD 
HETATM   35  H   UNL     1      -8.543   7.265  63.839  1.00  0.00     0.000 HD 
HETATM   36  N   UNL     1      -9.247   9.611  63.298  1.00  0.00    -0.194 NA 
HETATM   37  O   UNL     1      -8.130   7.336  64.692  1.00  0.00    -0.127 OA 
HETATM   38  C   UNL     1      -8.557   9.734  64.603  1.00  0.00    -0.184 C  
BRANCH  28  39
HETATM   39  C   UNL     1      -7.995  10.029  68.891  1.00  0.00    -0.101 C  
HETATM   40  H2  UNL     1      -9.774   9.885  69.924  1.00  0.00     0.000 HD 
HETATM   41  N   UNL     1      -8.971  10.512  69.877  1.00  0.00    -0.343 NA 
HETATM   42  H1  UNL     1      -8.577  10.662  70.806  1.00  0.00     0.000 HD 
ENDBRANCH  28  39
ENDBRANCH  25  26
ENDBRANCH  24  25
ENDBRANCH  10  11
ENDBRANCH   1  10
BRANCH   5  43
HETATM   43  C   UNL     1     -11.394  15.555  69.806  1.00  0.00    -0.319 C  
HETATM   44  O   UNL     1     -10.949  15.630  71.164  1.00  0.00    -0.326 OA 
HETATM   45  H   UNL     1     -10.261  16.280  71.237  1.00  0.00     0.000 HD 
ENDBRANCH   5  43
TORSDOF 6
ENDMDL
MODEL      190
REMARK 921   NORMALIZED FREE ENERGY PREDICTED BY IDOCK:   -4.61 KCAL/MOL
REMARK 922        TOTAL FREE ENERGY PREDICTED BY IDOCK:   -7.88 KCAL/MOL
REMARK 923 INTER-LIGAND FREE ENERGY PREDICTED BY IDOCK:   -7.14 KCAL/MOL
REMARK 924 INTRA-LIGAND FREE ENERGY PREDICTED BY IDOCK:   -0.74 KCAL/MOL
REMARK 927      BINDING AFFINITY PREDICTED BY RF-SCORE:    0.00 PKD
ROOT
HETATM    1  C   UNL     1     -10.821  12.444  67.473  1.00  0.00    -0.236 C  
HETATM    2  O   UNL     1     -11.036  14.521  64.886  1.00  0.00    -0.357 OA 
HETATM    3  O   UNL     1      -9.530  12.651  66.883  1.00  0.00    -0.215 OA 
HETATM    4  H   UNL     1     -13.296  13.933  65.845  1.00  0.00     0.000 HD 
HETATM    5  C   UNL     1      -9.360  14.057  66.623  1.00  0.00    -0.277 C  
HETATM    6  H   UNL     1     -11.905  14.848  64.683  1.00  0.00     0.000 HD 
HETATM    7  C   UNL     1     -10.752  14.580  66.298  1.00  0.00    -0.309 C  
HETATM    8  O   UNL     1     -12.751  13.207  66.123  1.00  0.00    -0.347 OA 
HETATM    9  C   UNL     1     -11.709  13.627  67.019  1.00  0.00    -0.384 C  
ENDROOT
BRANCH   1  10
HETATM   10  O   UNL     1     -10.724  12.446  68.899  1.00  0.00    -0.222 OA 
BRANCH  10  11
HETATM   11  C   UNL     1     -11.856  11.944  69.663  1.00  0.00    -0.337 C  
HETATM   12  O   UNL     1     -12.505  14.161  70.409  1.00  0.00    -0.333 OA 
HETATM   13  H2  UNL     1     -13.544   8.319  72.046  1.00  0.00     0.000 HD 
HETATM   14  H   UNL     1     -12.709  14.716  71.153  1.00  0.00     0.000 HD 
HETATM   15  C   UNL     1     -12.185  12.841  70.867  1.00  0.00    -0.191 C  
HETATM   16  H1  UNL     1     -12.639   7.995  70.651  1.00  0.00     0.000 HD 
HETATM   17  C   UNL     1     -13.159  10.927  72.156  1.00  0.00    -0.325 C  
HETATM   18  N   UNL     1     -13.631  13.260  72.809  1.00  0.00    -0.646 NA 
HETATM   19  N   UNL     1     -12.776   8.619  71.447  1.00  0.00    -0.302 NA 
HETATM   20  H1  UNL     1     -14.435  12.934  73.345  1.00  0.00     0.000 HD 
HETATM   21  H2  UNL     1     -13.736  14.230  72.510  1.00  0.00     0.000 HD 
HETATM   22  C   UNL     1     -12.953   9.990  70.959  1.00  0.00    -0.360 C  
HETATM   23  C   UNL     1     -13.393  12.352  71.674  1.00  0.00    -0.176 C  
HETATM   24  C   UNL     1     -11.756  10.438  70.051  1.00  0.00    -0.286 C  
BRANCH  24  25
HETATM   25  O   UNL     1     -11.526   9.579  68.901  1.00  0.00     0.100 OA 
BRANCH  25  26
HETATM   26  C   UNL     1     -10.508   8.580  69.041  1.00  0.00    -0.200 C  
HETATM   27  O   UNL     1     -10.033   8.144  67.765  1.00  0.00    -0.162 OA 
HETATM   28  C   UNL     1      -9.364   9.184  67.036  1.00  0.00    -0.148 C  
HETATM   29  C   UNL     1      -8.082   9.593  67.774  1.00  0.00    -0.113 C  
HETATM   30  H2  UNL     1     -10.251   8.896  71.758  1.00  0.00     0.000 HD 
HETATM   31  C   UNL     1      -8.454  10.090  69.171  1.00  0.00    -0.156 C  
HETATM   32  O   UNL     1      -7.369  10.661  67.133  1.00  0.00    -0.092 OA 
HETATM   33  H1  UNL     1      -8.911   9.896  71.827  1.00  0.00     0.000 HD 
HETATM   34  H   UNL     1      -6.575  10.914  67.590  1.00  0.00     0.000 HD 
HETATM   35  H   UNL     1      -7.482  10.669  70.781  1.00  0.00     0.000 HD 
HETATM   36  N   UNL     1      -9.693   9.584  71.252  1.00  0.00    -0.175 NA 
HETATM   37  O   UNL     1      -7.251  10.360  69.913  1.00  0.00    -0.142 OA 
HETATM   38  C   UNL     1      -9.311   9.058  69.921  1.00  0.00    -0.173 C  
BRANCH  28  39
HETATM   39  C   UNL     1      -9.122   8.664  65.608  1.00  0.00    -0.164 C  
HETATM   40  H2  UNL     1      -7.677   7.279  66.107  1.00  0.00     0.000 HD 
HETATM   41  N   UNL     1      -7.811   8.025  65.425  1.00  0.00    -0.099 NA 
HETATM   42  H1  UNL     1      -7.651   7.680  64.478  1.00  0.00     0.000 HD 
ENDBRANCH  28  39
ENDBRANCH  25  26
ENDBRANCH  24  25
ENDBRANCH  10  11
ENDBRANCH   1  10
BRANCH   5  43
HETATM   43  C   UNL     1      -8.727  14.795  67.810  1.00  0.00    -0.172 C  
HETATM   44  O   UNL     1      -7.918  13.884  68.562  1.00  0.00    -0.137 OA 
HETATM   45  H   UNL     1      -7.526  14.340  69.297  1.00  0.00     0.000 HD 
ENDBRANCH   5  43
TORSDOF 6
ENDMDL
MODEL      191
REMARK 921   NORMALIZED FREE ENERGY PREDICTED BY IDOCK:   -4.59 KCAL/MOL
REMARK 922        TOTAL FREE ENERGY PREDICTED BY IDOCK:   -7.85 KCAL/MOL
REMARK 923 INTER-LIGAND FREE ENERGY PREDICTED BY IDOCK:   -6.91 KCAL/MOL
REMARK 924 INTRA-LIGAND FREE ENERGY PREDICTED BY IDOCK:   -0.94 KCAL/MOL
REMARK 927      BINDING AFFINITY PREDICTED BY RF-SCORE:    0.00 PKD
ROOT
HETATM    1  C   UNL     1      -8.016   8.814  66.714  1.00  0.00    -0.097 C  
HETATM    2  O   UNL     1      -6.496  10.552  64.322  1.00  0.00    -0.323 OA 
HETATM    3  O   UNL     1      -8.407  10.193  66.767  1.00  0.00    -0.121 OA 
HETATM    4  H   UNL     1      -5.697   8.160  64.436  1.00  0.00     0.000 HD 
HETATM    5  C   UNL     1      -8.689  10.645  65.429  1.00  0.00    -0.185 C  
HETATM    6  H   UNL     1      -5.908  10.063  63.759  1.00  0.00     0.000 HD 
HETATM    7  C   UNL     1      -7.745   9.862  64.528  1.00  0.00    -0.142 C  
HETATM    8  O   UNL     1      -6.042   8.312  65.308  1.00  0.00    -0.045 OA 
HETATM    9  C   UNL     1      -7.455   8.568  65.293  1.00  0.00    -0.086 C  
ENDROOT
BRANCH   1  10
HETATM   10  O   UNL     1      -9.147   7.966  66.929  1.00  0.00    -0.131 OA 
BRANCH  10  11
HETATM   11  C   UNL     1      -8.904   6.578  67.292  1.00  0.00    -0.112 C  
HETATM   12  O   UNL     1      -9.095   5.806  64.998  1.00  0.00    -0.364 OA 
HETATM   13  H2  UNL     1      -9.321   3.385  70.654  1.00  0.00     0.000 HD 
HETATM   14  H   UNL     1      -9.520   5.200  64.402  1.00  0.00     0.000 HD 
HETATM   15  C   UNL     1      -9.591   5.598  66.328  1.00  0.00    -0.147 C  
HETATM   16  H1  UNL     1      -8.914   4.965  71.110  1.00  0.00     0.000 HD 
HETATM   17  C   UNL     1      -9.777   3.832  68.093  1.00  0.00    -0.113 C  
HETATM   18  N   UNL     1     -10.027   3.262  65.705  1.00  0.00    -0.382 NA 
HETATM   19  N   UNL     1      -9.425   4.379  70.450  1.00  0.00    -0.157 NA 
HETATM   20  H1  UNL     1      -9.852   2.283  65.933  1.00  0.00     0.000 HD 
HETATM   21  H2  UNL     1      -9.780   3.482  64.740  1.00  0.00     0.000 HD 
HETATM   22  C   UNL     1      -9.008   4.715  69.085  1.00  0.00    -0.098 C  
HETATM   23  C   UNL     1      -9.327   4.127  66.669  1.00  0.00    -0.177 C  
HETATM   24  C   UNL     1      -9.189   6.243  68.787  1.00  0.00    -0.125 C  
BRANCH  24  25
HETATM   25  O   UNL     1      -8.475   7.117  69.702  1.00  0.00    -0.131 OA 
BRANCH  25  26
HETATM   26  C   UNL     1      -9.136   8.334  70.072  1.00  0.00    -0.150 C  
HETATM   27  O   UNL     1     -10.546   8.138  70.203  1.00  0.00    -0.228 OA 
HETATM   28  C   UNL     1     -10.887   7.249  71.277  1.00  0.00    -0.235 C  
HETATM   29  C   UNL     1     -10.488   7.879  72.618  1.00  0.00    -0.320 C  
HETATM   30  H2  UNL     1      -6.812   9.711  70.571  1.00  0.00     0.000 HD 
HETATM   31  C   UNL     1      -8.981   8.139  72.613  1.00  0.00    -0.232 C  
HETATM   32  O   UNL     1     -10.756   7.035  73.749  1.00  0.00    -0.488 OA 
HETATM   33  H1  UNL     1      -6.717   9.564  72.236  1.00  0.00     0.000 HD 
HETATM   34  H   UNL     1     -10.509   7.425  74.579  1.00  0.00     0.000 HD 
HETATM   35  H   UNL     1      -7.682   9.002  73.812  1.00  0.00     0.000 HD 
HETATM   36  N   UNL     1      -7.093   9.157  71.380  1.00  0.00    -0.272 NA 
HETATM   37  O   UNL     1      -8.618   8.840  73.816  1.00  0.00    -0.234 OA 
HETATM   38  C   UNL     1      -8.561   8.958  71.382  1.00  0.00    -0.172 C  
BRANCH  28  39
HETATM   39  C   UNL     1     -12.388   6.936  71.158  1.00  0.00    -0.370 C  
HETATM   40  H2  UNL     1     -13.043   8.476  72.362  1.00  0.00     0.000 HD 
HETATM   41  N   UNL     1     -13.195   7.473  72.262  1.00  0.00    -0.499 NA 
HETATM   42  H1  UNL     1     -14.190   7.265  72.183  1.00  0.00     0.000 HD 
ENDBRANCH  28  39
ENDBRANCH  25  26
ENDBRANCH  24  25
ENDBRANCH  10  11
ENDBRANCH   1  10
BRANCH   5  43
HETATM   43  C   UNL     1     -10.160  10.440  65.045  1.00  0.00    -0.309 C  
HETATM   44  O   UNL     1     -10.271  10.329  63.622  1.00  0.00    -0.468 OA 
HETATM   45  H   UNL     1     -11.181  10.202  63.384  1.00  0.00     0.000 HD 
ENDBRANCH   5  43
TORSDOF 6
ENDMDL
MODEL      192
REMARK 921   NORMALIZED FREE ENERGY PREDICTED BY IDOCK:   -4.56 KCAL/MOL
REMARK 922        TOTAL FREE ENERGY PREDICTED BY IDOCK:   -7.80 KCAL/MOL
REMARK 923 INTER-LIGAND FREE ENERGY PREDICTED BY IDOCK:   -6.99 KCAL/MOL
REMARK 924 INTRA-LIGAND FREE ENERGY PREDICTED BY IDOCK:   -0.81 KCAL/MOL
REMARK 927      BINDING AFFINITY PREDICTED BY RF-SCORE:    0.00 PKD
ROOT
HETATM    1  C   UNL     1     -10.028  13.817  67.343  1.00  0.00    -0.237 C  
HETATM    2  O   UNL     1      -9.021  16.532  68.977  1.00  0.00    -0.257 OA 
HETATM    3  O   UNL     1      -8.791  14.302  66.802  1.00  0.00    -0.233 OA 
HETATM    4  H   UNL     1     -11.300  15.742  69.724  1.00  0.00     0.000 HD 
HETATM    5  C   UNL     1      -7.907  14.630  67.890  1.00  0.00    -0.136 C  
HETATM    6  H   UNL     1      -9.585  16.829  69.681  1.00  0.00     0.000 HD 
HETATM    7  C   UNL     1      -8.811  15.106  69.018  1.00  0.00    -0.219 C  
HETATM    8  O   UNL     1     -11.222  15.374  68.852  1.00  0.00    -0.256 OA 
HETATM    9  C   UNL     1     -10.154  14.417  68.763  1.00  0.00    -0.234 C  
ENDROOT
BRANCH   1  10
HETATM   10  O   UNL     1     -10.008  12.390  67.432  1.00  0.00    -0.200 OA 
BRANCH  10  11
HETATM   11  C   UNL     1      -9.393  11.644  66.346  1.00  0.00    -0.213 C  
HETATM   12  O   UNL     1     -10.024  13.293  64.679  1.00  0.00    -0.589 OA 
HETATM   13  H2  UNL     1      -8.219   7.409  64.811  1.00  0.00     0.000 HD 
HETATM   14  H   UNL     1     -10.457  13.449  63.848  1.00  0.00     0.000 HD 
HETATM   15  C   UNL     1     -10.092  11.897  65.001  1.00  0.00    -0.264 C  
HETATM   16  H1  UNL     1      -8.044   7.726  66.466  1.00  0.00     0.000 HD 
HETATM   17  C   UNL     1      -9.425   9.650  64.116  1.00  0.00    -0.044 C  
HETATM   18  N   UNL     1     -10.180  11.436  62.589  1.00  0.00    -0.568 NA 
HETATM   19  N   UNL     1      -8.579   7.917  65.618  1.00  0.00    -0.150 NA 
HETATM   20  H1  UNL     1      -9.750  10.936  61.811  1.00  0.00     0.000 HD 
HETATM   21  H2  UNL     1     -10.252  12.438  62.409  1.00  0.00     0.000 HD 
HETATM   22  C   UNL     1      -8.622   9.365  65.391  1.00  0.00    -0.156 C  
HETATM   23  C   UNL     1      -9.445  11.146  63.831  1.00  0.00    -0.227 C  
HETATM   24  C   UNL     1      -9.191  10.127  66.638  1.00  0.00    -0.155 C  
BRANCH  24  25
HETATM   25  O   UNL     1      -8.458   9.887  67.869  1.00  0.00    -0.120 OA 
BRANCH  25  26
HETATM   26  C   UNL     1      -9.238   9.736  69.061  1.00  0.00    -0.165 C  
HETATM   27  O   UNL     1     -10.332   8.839  68.853  1.00  0.00    -0.207 OA 
HETATM   28  C   UNL     1      -9.906   7.497  68.578  1.00  0.00    -0.165 C  
HETATM   29  C   UNL     1      -9.196   6.914  69.807  1.00  0.00    -0.147 C  
HETATM   30  H2  UNL     1      -7.458  11.074  70.669  1.00  0.00     0.000 HD 
HETATM   31  C   UNL     1      -7.987   7.790  70.139  1.00  0.00    -0.112 C  
HETATM   32  O   UNL     1      -8.698   5.584  69.604  1.00  0.00    -0.106 OA 
HETATM   33  H1  UNL     1      -6.637   9.788  71.359  1.00  0.00     0.000 HD 
HETATM   34  H   UNL     1      -8.258   5.223  70.366  1.00  0.00     0.000 HD 
HETATM   35  H   UNL     1      -6.636   7.867  71.567  1.00  0.00     0.000 HD 
HETATM   36  N   UNL     1      -7.193  10.096  70.560  1.00  0.00    -0.306 NA 
HETATM   37  O   UNL     1      -7.387   7.323  71.361  1.00  0.00    -0.075 OA 
HETATM   38  C   UNL     1      -8.388   9.266  70.283  1.00  0.00    -0.186 C  
BRANCH  28  39
HETATM   39  C   UNL     1     -11.147   6.699  68.139  1.00  0.00    -0.198 C  
HETATM   40  H2  UNL     1     -10.394   6.080  66.321  1.00  0.00     0.000 HD 
HETATM   41  N   UNL     1     -11.245   6.509  66.686  1.00  0.00    -0.694 NA 
HETATM   42  H1  UNL     1     -12.068   5.980  66.396  1.00  0.00     0.000 HD 
ENDBRANCH  28  39
ENDBRANCH  25  26
ENDBRANCH  24  25
ENDBRANCH  10  11
ENDBRANCH   1  10
BRANCH   5  43
HETATM   43  C   UNL     1      -7.037  13.438  68.310  1.00  0.00    -0.109 C  
HETATM   44  O   UNL     1      -7.529  12.898  69.541  1.00  0.00    -0.263 OA 
HETATM   45  H   UNL     1      -6.990  12.160  69.801  1.00  0.00     0.000 HD 
ENDBRANCH   5  43
TORSDOF 6
ENDMDL
MODEL      193
REMARK 921   NORMALIZED FREE ENERGY PREDICTED BY IDOCK:   -4.55 KCAL/MOL
REMARK 922        TOTAL FREE ENERGY PREDICTED BY IDOCK:   -7.79 KCAL/MOL
REMARK 923 INTER-LIGAND FREE ENERGY PREDICTED BY IDOCK:   -6.52 KCAL/MOL
REMARK 924 INTRA-LIGAND FREE ENERGY PREDICTED BY IDOCK:   -1.28 KCAL/MOL
REMARK 927      BINDING AFFINITY PREDICTED BY RF-SCORE:    0.00 PKD
ROOT
HETATM    1  C   UNL     1      -8.808   5.339  66.882  1.00  0.00    -0.110 C  
HETATM    2  O   UNL     1      -9.125   2.772  64.794  1.00  0.00    -0.124 OA 
HETATM    3  O   UNL     1      -7.719   4.419  67.044  1.00  0.00    -0.088 OA 
HETATM    4  H   UNL     1     -11.115   4.325  64.727  1.00  0.00     0.000 HD 
HETATM    5  C   UNL     1      -7.242   4.034  65.741  1.00  0.00    -0.072 C  
HETATM    6  H   UNL     1      -9.890   2.784  64.230  1.00  0.00     0.000 HD 
HETATM    7  C   UNL     1      -8.467   4.053  64.838  1.00  0.00    -0.113 C  
HETATM    8  O   UNL     1     -10.739   4.497  65.582  1.00  0.00    -0.285 OA 
HETATM    9  C   UNL     1      -9.420   5.059  65.489  1.00  0.00    -0.117 C  
ENDROOT
BRANCH   1  10
HETATM   10  O   UNL     1      -8.334   6.687  66.928  1.00  0.00    -0.112 OA 
BRANCH  10  11
HETATM   11  C   UNL     1      -9.277   7.755  66.636  1.00  0.00    -0.177 C  
HETATM   12  O   UNL     1      -8.572   7.922  64.319  1.00  0.00    -0.378 OA 
HETATM   13  H2  UNL     1     -11.631  11.358  68.409  1.00  0.00     0.000 HD 
HETATM   14  H   UNL     1      -8.261   8.496  63.628  1.00  0.00     0.000 HD 
HETATM   15  C   UNL     1      -8.774   8.682  65.518  1.00  0.00    -0.186 C  
HETATM   16  H1  UNL     1     -11.449   9.980  69.378  1.00  0.00     0.000 HD 
HETATM   17  C   UNL     1     -10.076  10.628  66.407  1.00  0.00    -0.279 C  
HETATM   18  N   UNL     1      -9.199  10.643  64.100  1.00  0.00    -0.220 NA 
HETATM   19  N   UNL     1     -11.034  10.569  68.655  1.00  0.00    -0.231 NA 
HETATM   20  H1  UNL     1      -9.856  11.387  63.868  1.00  0.00     0.000 HD 
HETATM   21  H2  UNL     1      -8.930  10.097  63.281  1.00  0.00     0.000 HD 
HETATM   22  C   UNL     1     -10.699   9.741  67.492  1.00  0.00    -0.264 C  
HETATM   23  C   UNL     1      -9.762   9.800  65.168  1.00  0.00    -0.268 C  
HETATM   24  C   UNL     1      -9.770   8.542  67.887  1.00  0.00    -0.162 C  
BRANCH  24  25
HETATM   25  O   UNL     1     -10.322   7.673  68.913  1.00  0.00    -0.206 OA 
BRANCH  25  26
HETATM   26  C   UNL     1      -9.809   7.841  70.241  1.00  0.00    -0.184 C  
HETATM   27  O   UNL     1     -10.668   8.671  71.025  1.00  0.00    -0.210 OA 
HETATM   28  C   UNL     1     -11.956   8.081  71.253  1.00  0.00    -0.296 C  
HETATM   29  C   UNL     1     -11.804   6.815  72.108  1.00  0.00    -0.290 C  
HETATM   30  H2  UNL     1      -7.840   5.946  69.964  1.00  0.00     0.000 HD 
HETATM   31  C   UNL     1     -10.899   5.828  71.370  1.00  0.00    -0.251 C  
HETATM   32  O   UNL     1     -13.045   6.135  72.349  1.00  0.00    -0.473 OA 
HETATM   33  H1  UNL     1      -8.572   4.631  70.696  1.00  0.00     0.000 HD 
HETATM   34  H   UNL     1     -12.950   5.352  72.878  1.00  0.00     0.000 HD 
HETATM   35  H   UNL     1     -10.089   4.077  71.757  1.00  0.00     0.000 HD 
HETATM   36  N   UNL     1      -8.730   5.518  70.219  1.00  0.00    -0.127 NA 
HETATM   37  O   UNL     1     -10.651   4.691  72.216  1.00  0.00    -0.196 OA 
HETATM   38  C   UNL     1      -9.567   6.483  70.970  1.00  0.00    -0.175 C  
BRANCH  28  39
HETATM   39  C   UNL     1     -12.852   9.158  71.890  1.00  0.00    -0.393 C  
HETATM   40  H2  UNL     1     -13.973   9.554  70.204  1.00  0.00     0.000 HD 
HETATM   41  N   UNL     1     -13.459  10.074  70.915  1.00  0.00    -0.496 NA 
HETATM   42  H1  UNL     1     -14.053  10.788  71.338  1.00  0.00     0.000 HD 
ENDBRANCH  28  39
ENDBRANCH  25  26
ENDBRANCH  24  25
ENDBRANCH  10  11
ENDBRANCH   1  10
BRANCH   5  43
HETATM   43  C   UNL     1      -6.133   4.964  65.231  1.00  0.00    -0.030 C  
HETATM   44  O   UNL     1      -5.217   5.244  66.296  1.00  0.00    -0.008 OA 
HETATM   45  H   UNL     1      -4.531   5.819  65.981  1.00  0.00     0.000 HD 
ENDBRANCH   5  43
TORSDOF 6
ENDMDL
MODEL      194
REMARK 921   NORMALIZED FREE ENERGY PREDICTED BY IDOCK:   -4.55 KCAL/MOL
REMARK 922        TOTAL FREE ENERGY PREDICTED BY IDOCK:   -7.79 KCAL/MOL
REMARK 923 INTER-LIGAND FREE ENERGY PREDICTED BY IDOCK:   -6.35 KCAL/MOL
REMARK 924 INTRA-LIGAND FREE ENERGY PREDICTED BY IDOCK:   -1.44 KCAL/MOL
REMARK 927      BINDING AFFINITY PREDICTED BY RF-SCORE:    0.00 PKD
ROOT
HETATM    1  C   UNL     1      -9.540  11.931  67.505  1.00  0.00    -0.175 C  
HETATM    2  O   UNL     1     -11.931  14.239  67.586  1.00  0.00    -0.424 OA 
HETATM    3  O   UNL     1      -9.267  12.974  66.558  1.00  0.00    -0.240 OA 
HETATM    4  H   UNL     1     -12.445  12.260  69.068  1.00  0.00     0.000 HD 
HETATM    5  C   UNL     1      -9.506  14.246  67.189  1.00  0.00    -0.227 C  
HETATM    6  H   UNL     1     -12.637  14.087  68.204  1.00  0.00     0.000 HD 
HETATM    7  C   UNL     1     -10.638  14.003  68.177  1.00  0.00    -0.248 C  
HETATM    8  O   UNL     1     -11.833  11.901  68.437  1.00  0.00    -0.329 OA 
HETATM    9  C   UNL     1     -10.538  12.517  68.531  1.00  0.00    -0.243 C  
ENDROOT
BRANCH   1  10
HETATM   10  O   UNL     1      -8.340  11.544  68.179  1.00  0.00    -0.137 OA 
BRANCH  10  11
HETATM   11  C   UNL     1      -7.410  10.674  67.478  1.00  0.00    -0.091 C  
HETATM   12  O   UNL     1      -6.007  12.524  66.769  1.00  0.00    -0.493 OA 
HETATM   13  H2  UNL     1      -6.938   6.647  65.190  1.00  0.00     0.000 HD 
HETATM   14  H   UNL     1      -5.589  12.962  66.037  1.00  0.00     0.000 HD 
HETATM   15  C   UNL     1      -6.734  11.382  66.294  1.00  0.00     0.060 C  
HETATM   16  H1  UNL     1      -7.969   6.676  66.534  1.00  0.00     0.000 HD 
HETATM   17  C   UNL     1      -6.405   9.228  65.060  1.00  0.00    -0.067 C  
HETATM   18  N   UNL     1      -5.134  11.248  64.434  1.00  0.00    -0.441 NA 
HETATM   19  N   UNL     1      -7.588   7.201  65.747  1.00  0.00    -0.090 NA 
HETATM   20  H1  UNL     1      -4.463  10.659  63.942  1.00  0.00     0.000 HD 
HETATM   21  H2  UNL     1      -4.721  12.130  64.737  1.00  0.00     0.000 HD 
HETATM   22  C   UNL     1      -6.979   8.440  66.244  1.00  0.00    -0.073 C  
HETATM   23  C   UNL     1      -5.725  10.497  65.554  1.00  0.00    -0.132 C  
HETATM   24  C   UNL     1      -7.996   9.284  67.086  1.00  0.00    -0.106 C  
BRANCH  24  25
HETATM   25  O   UNL     1      -8.564   8.576  68.221  1.00  0.00    -0.136 OA 
BRANCH  25  26
HETATM   26  C   UNL     1      -9.980   8.355  68.196  1.00  0.00    -0.191 C  
HETATM   27  O   UNL     1     -10.304   7.163  67.477  1.00  0.00    -0.191 OA 
HETATM   28  C   UNL     1      -9.807   5.977  68.114  1.00  0.00    -0.131 C  
HETATM   29  C   UNL     1     -10.506   5.780  69.466  1.00  0.00    -0.293 C  
HETATM   30  H2  UNL     1     -10.551  10.338  70.009  1.00  0.00     0.000 HD 
HETATM   31  C   UNL     1     -10.231   7.001  70.345  1.00  0.00    -0.196 C  
HETATM   32  O   UNL     1     -10.036   4.635  70.193  1.00  0.00    -0.220 OA 
HETATM   33  H1  UNL     1     -10.700   9.439  71.413  1.00  0.00     0.000 HD 
HETATM   34  H   UNL     1     -10.469   4.514  71.030  1.00  0.00     0.000 HD 
HETATM   35  H   UNL     1     -10.811   7.641  72.113  1.00  0.00     0.000 HD 
HETATM   36  N   UNL     1     -10.290   9.472  70.480  1.00  0.00    -0.268 NA 
HETATM   37  O   UNL     1     -10.982   6.882  71.567  1.00  0.00    -0.232 OA 
HETATM   38  C   UNL     1     -10.607   8.305  69.624  1.00  0.00    -0.222 C  
BRANCH  28  39
HETATM   39  C   UNL     1     -10.007   4.808  67.134  1.00  0.00    -0.190 C  
HETATM   40  H2  UNL     1      -8.817   3.456  68.139  1.00  0.00     0.000 HD 
HETATM   41  N   UNL     1      -8.939   3.801  67.187  1.00  0.00    -0.131 NA 
HETATM   42  H1  UNL     1      -9.072   3.026  66.537  1.00  0.00     0.000 HD 
ENDBRANCH  28  39
ENDBRANCH  25  26
ENDBRANCH  24  25
ENDBRANCH  10  11
ENDBRANCH   1  10
BRANCH   5  43
HETATM   43  C   UNL     1      -8.249  14.799  67.873  1.00  0.00    -0.150 C  
HETATM   44  O   UNL     1      -8.323  14.550  69.281  1.00  0.00    -0.341 OA 
HETATM   45  H   UNL     1      -7.545  14.893  69.705  1.00  0.00     0.000 HD 
ENDBRANCH   5  43
TORSDOF 6
ENDMDL
MODEL      195
REMARK 921   NORMALIZED FREE ENERGY PREDICTED BY IDOCK:   -4.55 KCAL/MOL
REMARK 922        TOTAL FREE ENERGY PREDICTED BY IDOCK:   -7.78 KCAL/MOL
REMARK 923 INTER-LIGAND FREE ENERGY PREDICTED BY IDOCK:   -6.56 KCAL/MOL
REMARK 924 INTRA-LIGAND FREE ENERGY PREDICTED BY IDOCK:   -1.22 KCAL/MOL
REMARK 927      BINDING AFFINITY PREDICTED BY RF-SCORE:    0.00 PKD
ROOT
HETATM    1  C   UNL     1      -8.561  15.503  66.511  1.00  0.00    -0.285 C  
HETATM    2  O   UNL     1     -10.981  17.605  67.393  1.00  0.00    -0.237 OA 
HETATM    3  O   UNL     1      -8.401  16.765  65.846  1.00  0.00    -0.463 OA 
HETATM    4  H   UNL     1     -11.311  15.292  68.351  1.00  0.00     0.000 HD 
HETATM    5  C   UNL     1      -8.605  17.821  66.803  1.00  0.00    -0.252 C  
HETATM    6  H   UNL     1     -11.622  17.270  68.008  1.00  0.00     0.000 HD 
HETATM    7  C   UNL     1      -9.633  17.284  67.788  1.00  0.00    -0.262 C  
HETATM    8  O   UNL     1     -10.754  15.134  67.599  1.00  0.00    -0.272 OA 
HETATM    9  C   UNL     1      -9.469  15.762  67.737  1.00  0.00    -0.212 C  
ENDROOT
BRANCH   1  10
HETATM   10  O   UNL     1      -7.295  15.011  66.957  1.00  0.00    -0.143 OA 
BRANCH  10  11
HETATM   11  C   UNL     1      -7.284  13.944  67.946  1.00  0.00    -0.158 C  
HETATM   12  O   UNL     1      -7.184  15.495  69.811  1.00  0.00    -0.186 OA 
HETATM   13  H2  UNL     1      -6.071   9.528  68.782  1.00  0.00     0.000 HD 
HETATM   14  H   UNL     1      -6.725  15.746  70.605  1.00  0.00     0.000 HD 
HETATM   15  C   UNL     1      -6.543  14.352  69.229  1.00  0.00    -0.122 C  
HETATM   16  H1  UNL     1      -6.675   9.905  67.245  1.00  0.00     0.000 HD 
HETATM   17  C   UNL     1      -5.924  11.980  69.746  1.00  0.00    -0.136 C  
HETATM   18  N   UNL     1      -5.806  13.725  71.488  1.00  0.00    -0.480 NA 
HETATM   19  N   UNL     1      -6.141  10.233  68.049  1.00  0.00    -0.051 NA 
HETATM   20  H1  UNL     1      -5.805  12.996  72.201  1.00  0.00     0.000 HD 
HETATM   21  H2  UNL     1      -6.171  14.609  71.843  1.00  0.00     0.000 HD 
HETATM   22  C   UNL     1      -6.728  11.486  68.536  1.00  0.00    -0.067 C  
HETATM   23  C   UNL     1      -6.542  13.256  70.302  1.00  0.00     0.333 C  
HETATM   24  C   UNL     1      -6.816  12.562  67.400  1.00  0.00    -0.145 C  
BRANCH  24  25
HETATM   25  O   UNL     1      -7.571  12.136  66.233  1.00  0.00     0.293 OA 
BRANCH  25  26
HETATM   26  C   UNL     1      -8.628  11.197  66.461  1.00  0.00    -0.169 C  
HETATM   27  O   UNL     1      -9.908  11.830  66.382  1.00  0.00    -0.204 OA 
HETATM   28  C   UNL     1     -10.201  12.329  65.069  1.00  0.00    -0.285 C  
HETATM   29  C   UNL     1     -10.320  11.160  64.083  1.00  0.00    -0.361 C  
HETATM   30  H2  UNL     1      -6.993   8.991  66.384  1.00  0.00     0.000 HD 
HETATM   31  C   UNL     1      -8.997  10.392  64.067  1.00  0.00    -0.228 C  
HETATM   32  O   UNL     1     -10.571  11.573  62.731  1.00  0.00    -0.624 OA 
HETATM   33  H1  UNL     1      -7.235   8.482  64.809  1.00  0.00     0.000 HD 
HETATM   34  H   UNL     1     -10.645  10.849  62.121  1.00  0.00     0.000 HD 
HETATM   35  H   UNL     1      -8.318   8.746  63.230  1.00  0.00     0.000 HD 
HETATM   36  N   UNL     1      -7.270   9.277  65.446  1.00  0.00    -0.088 NA 
HETATM   37  O   UNL     1      -9.139   9.223  63.239  1.00  0.00    -0.150 OA 
HETATM   38  C   UNL     1      -8.574   9.980  65.486  1.00  0.00    -0.151 C  
BRANCH  28  39
HETATM   39  C   UNL     1     -11.474  13.186  65.175  1.00  0.00    -0.300 C  
HETATM   40  H2  UNL     1     -11.894  13.229  63.156  1.00  0.00     0.000 HD 
HETATM   41  N   UNL     1     -11.821  13.888  63.931  1.00  0.00    -0.662 NA 
HETATM   42  H1  UNL     1     -12.666  14.455  64.002  1.00  0.00     0.000 HD 
ENDBRANCH  28  39
ENDBRANCH  25  26
ENDBRANCH  24  25
ENDBRANCH  10  11
ENDBRANCH   1  10
BRANCH   5  43
HETATM   43  C   UNL     1      -7.301  18.236  67.495  1.00  0.00    -0.210 C  
HETATM   44  O   UNL     1      -7.539  18.413  68.896  1.00  0.00    -0.287 OA 
HETATM   45  H   UNL     1      -6.732  18.670  69.325  1.00  0.00     0.000 HD 
ENDBRANCH   5  43
TORSDOF 6
ENDMDL
MODEL      196
REMARK 921   NORMALIZED FREE ENERGY PREDICTED BY IDOCK:   -4.54 KCAL/MOL
REMARK 922        TOTAL FREE ENERGY PREDICTED BY IDOCK:   -7.78 KCAL/MOL
REMARK 923 INTER-LIGAND FREE ENERGY PREDICTED BY IDOCK:   -6.86 KCAL/MOL
REMARK 924 INTRA-LIGAND FREE ENERGY PREDICTED BY IDOCK:   -0.92 KCAL/MOL
REMARK 927      BINDING AFFINITY PREDICTED BY RF-SCORE:    0.00 PKD
ROOT
HETATM    1  C   UNL     1      -7.721  14.128  68.557  1.00  0.00    -0.138 C  
HETATM    2  O   UNL     1      -6.134  12.480  70.969  1.00  0.00    -0.540 OA 
HETATM    3  O   UNL     1      -7.528  14.971  69.702  1.00  0.00    -0.195 OA 
HETATM    4  H   UNL     1      -6.706  11.003  69.003  1.00  0.00     0.000 HD 
HETATM    5  C   UNL     1      -6.178  14.806  70.176  1.00  0.00    -0.166 C  
HETATM    6  H   UNL     1      -5.907  11.577  70.779  1.00  0.00     0.000 HD 
HETATM    7  C   UNL     1      -5.816  13.359  69.872  1.00  0.00    -0.127 C  
HETATM    8  O   UNL     1      -7.335  11.711  68.928  1.00  0.00    -0.113 OA 
HETATM    9  C   UNL     1      -6.697  12.975  68.680  1.00  0.00    -0.096 C  
ENDROOT
BRANCH   1  10
HETATM   10  O   UNL     1      -7.470  14.857  67.353  1.00  0.00    -0.184 OA 
BRANCH  10  11
HETATM   11  C   UNL     1      -8.612  15.375  66.615  1.00  0.00    -0.283 C  
HETATM   12  O   UNL     1      -7.843  17.672  66.779  1.00  0.00    -0.207 OA 
HETATM   13  H2  UNL     1     -13.095  14.702  65.556  1.00  0.00     0.000 HD 
HETATM   14  H   UNL     1      -8.061  18.561  67.034  1.00  0.00     0.000 HD 
HETATM   15  C   UNL     1      -8.964  16.813  67.028  1.00  0.00    -0.206 C  
HETATM   16  H1  UNL     1     -12.095  13.339  65.665  1.00  0.00     0.000 HD 
HETATM   17  C   UNL     1     -11.372  16.509  66.411  1.00  0.00     0.593 C  
HETATM   18  N   UNL     1     -10.420  18.766  66.708  1.00  0.00    -0.404 NA 
HETATM   19  N   UNL     1     -12.289  14.277  66.014  1.00  0.00    -0.423 NA 
HETATM   20  H1  UNL     1     -11.206  19.153  66.187  1.00  0.00     0.000 HD 
HETATM   21  H2  UNL     1      -9.593  19.362  66.657  1.00  0.00     0.000 HD 
HETATM   22  C   UNL     1     -11.080  15.097  65.886  1.00  0.00    -0.319 C  
HETATM   23  C   UNL     1     -10.146  17.395  66.245  1.00  0.00    -0.322 C  
HETATM   24  C   UNL     1      -9.855  14.435  66.606  1.00  0.00    -0.278 C  
BRANCH  24  25
HETATM   25  O   UNL     1      -9.541  13.096  66.138  1.00  0.00    -0.262 OA 
BRANCH  25  26
HETATM   26  C   UNL     1     -10.653  12.237  65.856  1.00  0.00    -0.256 C  
HETATM   27  O   UNL     1     -10.595  11.740  64.517  1.00  0.00    -0.278 OA 
HETATM   28  C   UNL     1      -9.465  10.885  64.289  1.00  0.00    -0.250 C  
HETATM   29  C   UNL     1      -9.597   9.613  65.137  1.00  0.00    -0.254 C  
HETATM   30  H2  UNL     1     -11.521  12.128  68.460  1.00  0.00     0.000 HD 
HETATM   31  C   UNL     1      -9.665  10.009  66.613  1.00  0.00    -0.194 C  
HETATM   32  O   UNL     1      -8.484   8.717  65.002  1.00  0.00    -0.169 OA 
HETATM   33  H1  UNL     1     -10.857  10.670  68.946  1.00  0.00     0.000 HD 
HETATM   34  H   UNL     1      -8.566   7.929  65.527  1.00  0.00     0.000 HD 
HETATM   35  H   UNL     1      -9.954   9.080  68.323  1.00  0.00     0.000 HD 
HETATM   36  N   UNL     1     -10.782  11.447  68.289  1.00  0.00    -0.192 NA 
HETATM   37  O   UNL     1      -9.912   8.834  67.406  1.00  0.00    -0.176 OA 
HETATM   38  C   UNL     1     -10.768  11.049  66.862  1.00  0.00    -0.274 C  
BRANCH  28  39
HETATM   39  C   UNL     1      -9.385  10.619  62.776  1.00  0.00    -0.327 C  
HETATM   40  H2  UNL     1     -10.170   8.713  62.833  1.00  0.00     0.000 HD 
HETATM   41  N   UNL     1      -9.368   9.193  62.426  1.00  0.00    -0.558 NA 
HETATM   42  H1  UNL     1      -9.315   9.016  61.422  1.00  0.00     0.000 HD 
ENDBRANCH  28  39
ENDBRANCH  25  26
ENDBRANCH  24  25
ENDBRANCH  10  11
ENDBRANCH   1  10
BRANCH   5  43
HETATM   43  C   UNL     1      -5.207  15.796  69.519  1.00  0.00    -0.105 C  
HETATM   44  O   UNL     1      -5.929  16.952  69.080  1.00  0.00    -0.151 OA 
HETATM   45  H   UNL     1      -5.328  17.565  68.673  1.00  0.00     0.000 HD 
ENDBRANCH   5  43
TORSDOF 6
ENDMDL
MODEL      197
REMARK 921   NORMALIZED FREE ENERGY PREDICTED BY IDOCK:   -4.54 KCAL/MOL
REMARK 922        TOTAL FREE ENERGY PREDICTED BY IDOCK:   -7.77 KCAL/MOL
REMARK 923 INTER-LIGAND FREE ENERGY PREDICTED BY IDOCK:   -7.33 KCAL/MOL
REMARK 924 INTRA-LIGAND FREE ENERGY PREDICTED BY IDOCK:   -0.44 KCAL/MOL
REMARK 927      BINDING AFFINITY PREDICTED BY RF-SCORE:    0.00 PKD
ROOT
HETATM    1  C   UNL     1     -11.124  10.173  69.092  1.00  0.00    -0.212 C  
HETATM    2  O   UNL     1     -13.639   9.207  71.040  1.00  0.00    -0.567 OA 
HETATM    3  O   UNL     1     -12.291  10.969  68.841  1.00  0.00    -0.516 OA 
HETATM    4  H   UNL     1     -11.614   7.716  71.263  1.00  0.00     0.000 HD 
HETATM    5  C   UNL     1     -12.873  11.346  70.103  1.00  0.00     0.114 C  
HETATM    6  H   UNL     1     -13.458   8.484  71.629  1.00  0.00     0.000 HD 
HETATM    7  C   UNL     1     -12.583  10.188  71.047  1.00  0.00    -0.381 C  
HETATM    8  O   UNL     1     -11.496   8.109  70.407  1.00  0.00    -0.234 OA 
HETATM    9  C   UNL     1     -11.318   9.533  70.487  1.00  0.00    -0.283 C  
ENDROOT
BRANCH   1  10
HETATM   10  O   UNL     1      -9.954  10.994  69.107  1.00  0.00    -0.195 OA 
BRANCH  10  11
HETATM   11  C   UNL     1      -8.890  10.688  68.164  1.00  0.00    -0.134 C  
HETATM   12  O   UNL     1      -9.180   8.291  68.410  1.00  0.00    -0.136 OA 
HETATM   13  H2  UNL     1      -4.874  12.168  66.331  1.00  0.00     0.000 HD 
HETATM   14  H   UNL     1      -8.760   7.460  68.601  1.00  0.00     0.000 HD 
HETATM   15  C   UNL     1      -8.210   9.345  68.473  1.00  0.00    -0.113 C  
HETATM   16  H1  UNL     1      -6.072  13.324  66.649  1.00  0.00     0.000 HD 
HETATM   17  C   UNL     1      -6.052  10.083  67.439  1.00  0.00    -0.058 C  
HETATM   18  N   UNL     1      -6.502   7.691  67.851  1.00  0.00    -0.053 NA 
HETATM   19  N   UNL     1      -5.648  12.441  66.936  1.00  0.00    -0.321 NA 
HETATM   20  H1  UNL     1      -5.766   7.451  67.188  1.00  0.00     0.000 HD 
HETATM   21  H2  UNL     1      -7.201   6.952  67.935  1.00  0.00     0.000 HD 
HETATM   22  C   UNL     1      -6.689  11.410  67.009  1.00  0.00    -0.131 C  
HETATM   23  C   UNL     1      -7.103   8.983  67.476  1.00  0.00    -0.076 C  
HETATM   24  C   UNL     1      -7.863  11.842  67.953  1.00  0.00    -0.135 C  
BRANCH  24  25
HETATM   25  O   UNL     1      -8.498  13.095  67.581  1.00  0.00    -0.167 OA 
BRANCH  25  26
HETATM   26  C   UNL     1      -9.922  13.161  67.726  1.00  0.00    -0.227 C  
HETATM   27  O   UNL     1     -10.301  14.203  68.628  1.00  0.00    -0.236 OA 
HETATM   28  C   UNL     1      -9.969  15.511  68.139  1.00  0.00    -0.217 C  
HETATM   29  C   UNL     1     -10.786  15.816  66.876  1.00  0.00    -0.299 C  
HETATM   30  H2  UNL     1     -10.441  11.397  65.686  1.00  0.00     0.000 HD 
HETATM   31  C   UNL     1     -10.465  14.763  65.815  1.00  0.00    -0.334 C  
HETATM   32  O   UNL     1     -10.484  17.092  66.294  1.00  0.00    -0.319 OA 
HETATM   33  H1  UNL     1     -10.783  12.459  64.439  1.00  0.00     0.000 HD 
HETATM   34  H   UNL     1     -10.990  17.281  65.512  1.00  0.00     0.000 HD 
HETATM   35  H   UNL     1     -11.118  14.314  64.014  1.00  0.00     0.000 HD 
HETATM   36  N   UNL     1     -10.300  12.341  65.330  1.00  0.00    -0.275 NA 
HETATM   37  O   UNL     1     -11.317  14.968  64.673  1.00  0.00    -0.384 OA 
HETATM   38  C   UNL     1     -10.660  13.340  66.363  1.00  0.00    -0.284 C  
BRANCH  28  39
HETATM   39  C   UNL     1     -10.202  16.507  69.288  1.00  0.00    -0.290 C  
HETATM   40  H2  UNL     1     -10.346  18.192  68.108  1.00  0.00     0.000 HD 
HETATM   41  N   UNL     1      -9.854  17.893  68.949  1.00  0.00    -0.330 NA 
HETATM   42  H1  UNL     1     -10.009  18.554  69.711  1.00  0.00     0.000 HD 
ENDBRANCH  28  39
ENDBRANCH  25  26
ENDBRANCH  24  25
ENDBRANCH  10  11
ENDBRANCH   1  10
BRANCH   5  43
HETATM   43  C   UNL     1     -12.312  12.674  70.627  1.00  0.00    -0.290 C  
HETATM   44  O   UNL     1     -12.764  13.747  69.792  1.00  0.00    -0.252 OA 
HETATM   45  H   UNL     1     -12.416  14.569  70.116  1.00  0.00     0.000 HD 
ENDBRANCH   5  43
TORSDOF 6
ENDMDL
MODEL      198
REMARK 921   NORMALIZED FREE ENERGY PREDICTED BY IDOCK:   -4.53 KCAL/MOL
REMARK 922        TOTAL FREE ENERGY PREDICTED BY IDOCK:   -7.77 KCAL/MOL
REMARK 923 INTER-LIGAND FREE ENERGY PREDICTED BY IDOCK:   -7.31 KCAL/MOL
REMARK 924 INTRA-LIGAND FREE ENERGY PREDICTED BY IDOCK:   -0.46 KCAL/MOL
REMARK 927      BINDING AFFINITY PREDICTED BY RF-SCORE:    0.00 PKD
ROOT
HETATM    1  C   UNL     1     -11.983  13.417  70.289  1.00  0.00    -0.308 C  
HETATM    2  O   UNL     1     -13.502  15.040  72.762  1.00  0.00    -0.427 OA 
HETATM    3  O   UNL     1     -11.818  12.716  71.530  1.00  0.00     0.755 OA 
HETATM    4  H   UNL     1     -13.559  16.319  70.585  1.00  0.00     0.000 HD 
HETATM    5  C   UNL     1     -13.085  12.681  72.214  1.00  0.00    -0.261 C  
HETATM    6  H   UNL     1     -13.941  15.848  72.524  1.00  0.00     0.000 HD 
HETATM    7  C   UNL     1     -13.788  13.976  71.833  1.00  0.00    -0.445 C  
HETATM    8  O   UNL     1     -12.813  15.742  70.474  1.00  0.00    -0.423 OA 
HETATM    9  C   UNL     1     -13.198  14.357  70.472  1.00  0.00    -0.043 C  
ENDROOT
BRANCH   1  10
HETATM   10  O   UNL     1     -12.253  12.498  69.228  1.00  0.00    -0.195 OA 
BRANCH  10  11
HETATM   11  C   UNL     1     -11.157  11.676  68.739  1.00  0.00    -0.230 C  
HETATM   12  O   UNL     1     -11.513   9.963  70.421  1.00  0.00    -0.265 OA 
HETATM   13  H2  UNL     1      -7.034  11.710  66.577  1.00  0.00     0.000 HD 
HETATM   14  H   UNL     1     -11.121   9.441  71.111  1.00  0.00     0.000 HD 
HETATM   15  C   UNL     1     -10.522  10.831  69.855  1.00  0.00    -0.004 C  
HETATM   16  H1  UNL     1      -8.216  12.799  66.041  1.00  0.00     0.000 HD 
HETATM   17  C   UNL     1      -8.305  10.774  68.691  1.00  0.00    -0.141 C  
HETATM   18  N   UNL     1      -8.829   9.169  70.491  1.00  0.00    -0.204 NA 
HETATM   19  N   UNL     1      -7.826  12.296  66.838  1.00  0.00    -0.099 NA 
HETATM   20  H1  UNL     1      -8.071   8.571  70.162  1.00  0.00     0.000 HD 
HETATM   21  H2  UNL     1      -9.547   8.641  70.987  1.00  0.00     0.000 HD 
HETATM   22  C   UNL     1      -8.893  11.530  67.493  1.00  0.00    -0.155 C  
HETATM   23  C   UNL     1      -9.383   9.933  69.360  1.00  0.00    -0.214 C  
HETATM   24  C   UNL     1     -10.095  12.449  67.899  1.00  0.00    -0.208 C  
BRANCH  24  25
HETATM   25  O   UNL     1     -10.684  13.185  66.793  1.00  0.00    -0.265 OA 
BRANCH  25  26
HETATM   26  C   UNL     1     -11.495  14.317  67.134  1.00  0.00    -0.359 C  
HETATM   27  O   UNL     1     -10.790  15.216  67.994  1.00  0.00    -0.267 OA 
HETATM   28  C   UNL     1      -9.653  15.817  67.358  1.00  0.00    -0.217 C  
HETATM   29  C   UNL     1     -10.117  16.716  66.204  1.00  0.00    -0.345 C  
HETATM   30  H2  UNL     1     -13.485  13.721  65.337  1.00  0.00     0.000 HD 
HETATM   31  C   UNL     1     -10.890  15.865  65.196  1.00  0.00    -0.421 C  
HETATM   32  O   UNL     1      -9.036  17.326  65.484  1.00  0.00    -0.288 OA 
HETATM   33  H1  UNL     1     -13.069  14.732  64.069  1.00  0.00     0.000 HD 
HETATM   34  H   UNL     1      -9.323  17.883  64.769  1.00  0.00     0.000 HD 
HETATM   35  H   UNL     1     -11.914  16.190  63.548  1.00  0.00     0.000 HD 
HETATM   36  N   UNL     1     -12.725  14.232  64.889  1.00  0.00    -0.662 NA 
HETATM   37  O   UNL     1     -11.433  16.720  64.174  1.00  0.00    -1.171 OA 
HETATM   38  C   UNL     1     -12.022  15.081  65.879  1.00  0.00     0.061 C  
BRANCH  28  39
HETATM   39  C   UNL     1      -8.856  16.560  68.445  1.00  0.00    -0.218 C  
HETATM   40  H2  UNL     1      -6.984  16.014  67.774  1.00  0.00     0.000 HD 
HETATM   41  N   UNL     1      -7.501  16.030  68.652  1.00  0.00    -0.156 NA 
HETATM   42  H1  UNL     1      -6.973  16.523  69.373  1.00  0.00     0.000 HD 
ENDBRANCH  28  39
ENDBRANCH  25  26
ENDBRANCH  24  25
ENDBRANCH  10  11
ENDBRANCH   1  10
BRANCH   5  43
HETATM   43  C   UNL     1     -13.911  11.443  71.842  1.00  0.00     0.443 C  
HETATM   44  O   UNL     1     -13.342  10.285  72.462  1.00  0.00    -0.576 OA 
HETATM   45  H   UNL     1     -13.853   9.518  72.232  1.00  0.00     0.000 HD 
ENDBRANCH   5  43
TORSDOF 6
ENDMDL
MODEL      199
REMARK 921   NORMALIZED FREE ENERGY PREDICTED BY IDOCK:   -4.51 KCAL/MOL
REMARK 922        TOTAL FREE ENERGY PREDICTED BY IDOCK:   -7.74 KCAL/MOL
REMARK 923 INTER-LIGAND FREE ENERGY PREDICTED BY IDOCK:   -7.33 KCAL/MOL
REMARK 924 INTRA-LIGAND FREE ENERGY PREDICTED BY IDOCK:   -0.41 KCAL/MOL
REMARK 927      BINDING AFFINITY PREDICTED BY RF-SCORE:    0.00 PKD
ROOT
HETATM    1  C   UNL     1     -10.641   8.532  70.688  1.00  0.00    -0.209 C  
HETATM    2  O   UNL     1     -12.506   6.293  72.289  1.00  0.00    -0.527 OA 
HETATM    3  O   UNL     1     -10.886   8.952  72.038  1.00  0.00    -0.349 OA 
HETATM    4  H   UNL     1     -12.212   5.737  69.844  1.00  0.00     0.000 HD 
HETATM    5  C   UNL     1     -10.690   7.826  72.915  1.00  0.00    -0.385 C  
HETATM    6  H   UNL     1     -12.768   5.531  71.786  1.00  0.00     0.000 HD 
HETATM    7  C   UNL     1     -11.111   6.606  72.109  1.00  0.00    -0.254 C  
HETATM    8  O   UNL     1     -12.056   6.673  69.870  1.00  0.00    -0.227 OA 
HETATM    9  C   UNL     1     -10.895   7.007  70.647  1.00  0.00    -0.246 C  
ENDROOT
BRANCH   1  10
HETATM   10  O   UNL     1      -9.285   8.796  70.322  1.00  0.00    -0.157 OA 
BRANCH  10  11
HETATM   11  C   UNL     1      -8.905   8.619  68.929  1.00  0.00    -0.138 C  
HETATM   12  O   UNL     1      -8.616   6.222  69.173  1.00  0.00    -0.119 OA 
HETATM   13  H2  UNL     1      -6.922  10.636  65.231  1.00  0.00     0.000 HD 
HETATM   14  H   UNL     1      -8.034   5.480  69.051  1.00  0.00     0.000 HD 
HETATM   15  C   UNL     1      -7.964   7.420  68.732  1.00  0.00    -0.123 C  
HETATM   16  H1  UNL     1      -7.898  11.598  66.227  1.00  0.00     0.000 HD 
HETATM   17  C   UNL     1      -6.916   8.445  66.701  1.00  0.00    -0.072 C  
HETATM   18  N   UNL     1      -6.665   6.035  67.173  1.00  0.00    -0.059 NA 
HETATM   19  N   UNL     1      -7.252  10.810  66.179  1.00  0.00    -0.137 NA 
HETATM   20  H1  UNL     1      -6.404   5.884  66.199  1.00  0.00     0.000 HD 
HETATM   21  H2  UNL     1      -7.064   5.198  67.598  1.00  0.00     0.000 HD 
HETATM   22  C   UNL     1      -7.888   9.629  66.773  1.00  0.00    -0.102 C  
HETATM   23  C   UNL     1      -7.570   7.193  67.268  1.00  0.00    -0.104 C  
HETATM   24  C   UNL     1      -8.377   9.912  68.235  1.00  0.00    -0.110 C  
BRANCH  24  25
HETATM   25  O   UNL     1      -9.303  11.026  68.350  1.00  0.00    -0.164 OA 
BRANCH  25  26
HETATM   26  C   UNL     1     -10.660  10.774  67.966  1.00  0.00    -0.207 C  
HETATM   27  O   UNL     1     -11.560  11.046  69.043  1.00  0.00    -0.271 OA 
HETATM   28  C   UNL     1     -11.584  12.432  69.413  1.00  0.00    -0.307 C  
HETATM   29  C   UNL     1     -12.148  13.269  68.256  1.00  0.00    -0.211 C  
HETATM   30  H2  UNL     1     -10.083  10.426  65.303  1.00  0.00     0.000 HD 
HETATM   31  C   UNL     1     -11.262  13.070  67.026  1.00  0.00    -0.289 C  
HETATM   32  O   UNL     1     -12.168  14.678  68.525  1.00  0.00    -0.573 OA 
HETATM   33  H1  UNL     1     -10.470  11.939  64.702  1.00  0.00     0.000 HD 
HETATM   34  H   UNL     1     -12.518  15.196  67.809  1.00  0.00     0.000 HD 
HETATM   35  H   UNL     1     -11.301  13.628  65.139  1.00  0.00     0.000 HD 
HETATM   36  N   UNL     1     -10.190  11.414  65.531  1.00  0.00    -0.252 NA 
HETATM   37  O   UNL     1     -11.852  13.752  65.904  1.00  0.00    -0.348 OA 
HETATM   38  C   UNL     1     -11.087  11.578  66.698  1.00  0.00    -0.295 C  
BRANCH  28  39
HETATM   39  C   UNL     1     -12.391  12.549  70.717  1.00  0.00    -0.286 C  
HETATM   40  H2  UNL     1     -11.996  10.646  71.405  1.00  0.00     0.000 HD 
HETATM   41  N   UNL     1     -12.804  11.255  71.275  1.00  0.00    -0.406 NA 
HETATM   42  H1  UNL     1     -13.339  11.332  72.141  1.00  0.00     0.000 HD 
ENDBRANCH  28  39
ENDBRANCH  25  26
ENDBRANCH  24  25
ENDBRANCH  10  11
ENDBRANCH   1  10
BRANCH   5  43
HETATM   43  C   UNL     1      -9.242   7.722  73.410  1.00  0.00    -0.284 C  
HETATM   44  O   UNL     1      -8.488   6.899  72.513  1.00  0.00    -0.117 OA 
HETATM   45  H   UNL     1      -7.592   6.834  72.820  1.00  0.00     0.000 HD 
ENDBRANCH   5  43
TORSDOF 6
ENDMDL
MODEL      200
REMARK 921   NORMALIZED FREE ENERGY PREDICTED BY IDOCK:   -4.51 KCAL/MOL
REMARK 922        TOTAL FREE ENERGY PREDICTED BY IDOCK:   -7.73 KCAL/MOL
REMARK 923 INTER-LIGAND FREE ENERGY PREDICTED BY IDOCK:   -8.15 KCAL/MOL
REMARK 924 INTRA-LIGAND FREE ENERGY PREDICTED BY IDOCK:    0.42 KCAL/MOL
REMARK 927      BINDING AFFINITY PREDICTED BY RF-SCORE:    0.00 PKD
ROOT
HETATM    1  C   UNL     1     -10.473  11.238  67.482  1.00  0.00    -0.201 C  
HETATM    2  O   UNL     1      -8.007  10.061  65.587  1.00  0.00    -0.128 OA 
HETATM    3  O   UNL     1      -9.245  11.192  68.223  1.00  0.00    -0.155 OA 
HETATM    4  H   UNL     1     -10.247   9.971  64.426  1.00  0.00     0.000 HD 
HETATM    5  C   UNL     1      -8.187  11.714  67.398  1.00  0.00    -0.153 C  
HETATM    6  H   UNL     1      -8.240   9.826  64.697  1.00  0.00     0.000 HD 
HETATM    7  C   UNL     1      -8.560  11.336  65.971  1.00  0.00    -0.130 C  
HETATM    8  O   UNL     1     -10.484   9.988  65.345  1.00  0.00    -0.162 OA 
HETATM    9  C   UNL     1     -10.086  11.212  65.984  1.00  0.00    -0.244 C  
ENDROOT
BRANCH   1  10
HETATM   10  O   UNL     1     -11.181  12.447  67.765  1.00  0.00    -0.241 OA 
BRANCH  10  11
HETATM   11  C   UNL     1     -11.525  12.731  69.149  1.00  0.00    -0.306 C  
HETATM   12  O   UNL     1     -10.897  10.509  69.900  1.00  0.00    -0.269 OA 
HETATM   13  H2  UNL     1     -14.261  15.234  71.965  1.00  0.00     0.000 HD 
HETATM   14  H   UNL     1     -11.168   9.729  70.369  1.00  0.00     0.000 HD 
HETATM   15  C   UNL     1     -11.964  11.468  69.908  1.00  0.00    -0.351 C  
HETATM   16  H1  UNL     1     -13.669  15.984  70.566  1.00  0.00     0.000 HD 
HETATM   17  C   UNL     1     -13.397  12.787  71.482  1.00  0.00    -0.232 C  
HETATM   18  N   UNL     1     -12.721  10.477  72.025  1.00  0.00    -0.324 NA 
HETATM   19  N   UNL     1     -13.980  15.111  70.993  1.00  0.00    -0.367 NA 
HETATM   20  H1  UNL     1     -12.947  10.653  73.003  1.00  0.00     0.000 HD 
HETATM   21  H2  UNL     1     -12.024   9.740  71.919  1.00  0.00     0.000 HD 
HETATM   22  C   UNL     1     -12.929  14.099  70.840  1.00  0.00    -0.305 C  
HETATM   23  C   UNL     1     -12.304  11.733  71.379  1.00  0.00    -0.048 C  
HETATM   24  C   UNL     1     -12.521  13.915  69.338  1.00  0.00    -0.046 C  
BRANCH  24  25
HETATM   25  O   UNL     1     -12.069  15.135  68.689  1.00  0.00    -0.264 OA 
BRANCH  25  26
HETATM   26  C   UNL     1     -10.653  15.286  68.523  1.00  0.00    -0.237 C  
HETATM   27  O   UNL     1     -10.277  15.150  67.150  1.00  0.00    -0.242 OA 
HETATM   28  C   UNL     1     -10.810  16.193  66.321  1.00  0.00    -0.135 C  
HETATM   29  C   UNL     1     -10.200  17.541  66.727  1.00  0.00    -0.327 C  
HETATM   30  H2  UNL     1     -10.212  16.138  71.096  1.00  0.00     0.000 HD 
HETATM   31  C   UNL     1     -10.538  17.814  68.193  1.00  0.00    -0.344 C  
HETATM   32  O   UNL     1     -10.711  18.651  65.973  1.00  0.00    -0.406 OA 
HETATM   33  H1  UNL     1     -10.151  17.795  70.867  1.00  0.00     0.000 HD 
HETATM   34  H   UNL     1     -10.333  19.486  66.224  1.00  0.00     0.000 HD 
HETATM   35  H   UNL     1     -10.078  19.185  69.527  1.00  0.00     0.000 HD 
HETATM   36  N   UNL     1     -10.499  16.911  70.497  1.00  0.00     0.548 NA 
HETATM   37  O   UNL     1      -9.868  19.016  68.616  1.00  0.00    -0.371 OA 
HETATM   38  C   UNL     1     -10.121  16.639  69.090  1.00  0.00    -0.285 C  
BRANCH  28  39
HETATM   39  C   UNL     1     -10.540  15.802  64.858  1.00  0.00    -0.284 C  
HETATM   40  H2  UNL     1     -11.712  17.270  64.006  1.00  0.00     0.000 HD 
HETATM   41  N   UNL     1     -11.574  16.263  63.922  1.00  0.00    -1.573 NA 
HETATM   42  H1  UNL     1     -11.395  16.004  62.951  1.00  0.00     0.000 HD 
ENDBRANCH  28  39
ENDBRANCH  25  26
ENDBRANCH  24  25
ENDBRANCH  10  11
ENDBRANCH   1  10
BRANCH   5  43
HETATM   43  C   UNL     1      -8.012  13.228  67.569  1.00  0.00    -0.184 C  
HETATM   44  O   UNL     1      -6.662  13.591  67.259  1.00  0.00    -0.381 OA 
HETATM   45  H   UNL     1      -6.553  14.528  67.365  1.00  0.00     0.000 HD 
ENDBRANCH   5  43
TORSDOF 6
ENDMDL
MODEL      201
REMARK 921   NORMALIZED FREE ENERGY PREDICTED BY IDOCK:   -4.50 KCAL/MOL
REMARK 922        TOTAL FREE ENERGY PREDICTED BY IDOCK:   -7.72 KCAL/MOL
REMARK 923 INTER-LIGAND FREE ENERGY PREDICTED BY IDOCK:   -7.11 KCAL/MOL
REMARK 924 INTRA-LIGAND FREE ENERGY PREDICTED BY IDOCK:   -0.61 KCAL/MOL
REMARK 927      BINDING AFFINITY PREDICTED BY RF-SCORE:    0.00 PKD
ROOT
HETATM    1  C   UNL     1      -8.357   8.877  67.514  1.00  0.00    -0.109 C  
HETATM    2  O   UNL     1      -8.846   7.341  64.607  1.00  0.00    -0.281 OA 
HETATM    3  O   UNL     1      -7.107   8.640  66.852  1.00  0.00    -0.073 OA 
HETATM    4  H   UNL     1     -10.978   7.600  65.934  1.00  0.00     0.000 HD 
HETATM    5  C   UNL     1      -7.244   8.996  65.463  1.00  0.00    -0.085 C  
HETATM    6  H   UNL     1      -9.749   7.147  64.383  1.00  0.00     0.000 HD 
HETATM    7  C   UNL     1      -8.690   8.684  65.105  1.00  0.00    -0.144 C  
HETATM    8  O   UNL     1     -10.304   7.650  66.602  1.00  0.00    -0.273 OA 
HETATM    9  C   UNL     1      -9.455   8.796  66.427  1.00  0.00    -0.228 C  
ENDROOT
BRANCH   1  10
HETATM   10  O   UNL     1      -8.371  10.180  68.103  1.00  0.00    -0.115 OA 
BRANCH  10  11
HETATM   11  C   UNL     1      -9.223  10.399  69.261  1.00  0.00    -0.184 C  
HETATM   12  O   UNL     1      -8.249   8.549  70.494  1.00  0.00    -0.100 OA 
HETATM   13  H2  UNL     1     -13.351  11.987  70.716  1.00  0.00     0.000 HD 
HETATM   14  H   UNL     1      -8.415   7.746  70.974  1.00  0.00     0.000 HD 
HETATM   15  C   UNL     1      -9.491   9.100  70.037  1.00  0.00    -0.198 C  
HETATM   16  H1  UNL     1     -12.580  12.823  69.460  1.00  0.00     0.000 HD 
HETATM   17  C   UNL     1     -11.689   9.944  70.891  1.00  0.00    -0.449 C  
HETATM   18  N   UNL     1     -10.577   8.016  71.957  1.00  0.00    -0.231 NA 
HETATM   19  N   UNL     1     -12.740  11.918  69.902  1.00  0.00     0.179 NA 
HETATM   20  H1  UNL     1     -11.157   8.154  72.784  1.00  0.00     0.000 HD 
HETATM   21  H2  UNL     1      -9.698   7.547  72.177  1.00  0.00     0.000 HD 
HETATM   22  C   UNL     1     -11.448  11.305  70.226  1.00  0.00    -0.193 C  
HETATM   23  C   UNL     1     -10.363   9.307  71.281  1.00  0.00    -0.327 C  
HETATM   24  C   UNL     1     -10.529  11.196  68.961  1.00  0.00    -0.206 C  
BRANCH  24  25
HETATM   25  O   UNL     1     -10.271  12.463  68.299  1.00  0.00    -0.218 OA 
BRANCH  25  26
HETATM   26  C   UNL     1      -9.487  12.414  67.101  1.00  0.00    -0.198 C  
HETATM   27  O   UNL     1     -10.317  12.442  65.938  1.00  0.00    -0.246 OA 
HETATM   28  C   UNL     1     -11.037  13.676  65.798  1.00  0.00    -0.287 C  
HETATM   29  C   UNL     1     -10.052  14.828  65.561  1.00  0.00    -0.380 C  
HETATM   30  H2  UNL     1      -7.085  12.761  68.388  1.00  0.00     0.000 HD 
HETATM   31  C   UNL     1      -9.096  14.912  66.752  1.00  0.00    -0.270 C  
HETATM   32  O   UNL     1     -10.687  16.111  65.452  1.00  0.00    -0.381 OA 
HETATM   33  H1  UNL     1      -6.848  14.403  68.162  1.00  0.00     0.000 HD 
HETATM   34  H   UNL     1     -10.076  16.824  65.305  1.00  0.00     0.000 HD 
HETATM   35  H   UNL     1      -7.499  15.961  67.223  1.00  0.00     0.000 HD 
HETATM   36  N   UNL     1      -7.541  13.656  68.211  1.00  0.00    -0.119 NA 
HETATM   37  O   UNL     1      -8.093  15.909  66.483  1.00  0.00    -0.265 OA 
HETATM   38  C   UNL     1      -8.426  13.557  67.027  1.00  0.00    -0.123 C  
BRANCH  28  39
HETATM   39  C   UNL     1     -12.060  13.488  64.663  1.00  0.00    -0.409 C  
HETATM   40  H2  UNL     1     -11.611  15.230  63.655  1.00  0.00     0.000 HD 
HETATM   41  N   UNL     1     -12.438  14.739  63.994  1.00  0.00    -1.000 NA 
HETATM   42  H1  UNL     1     -13.116  14.614  63.242  1.00  0.00     0.000 HD 
ENDBRANCH  28  39
ENDBRANCH  25  26
ENDBRANCH  24  25
ENDBRANCH  10  11
ENDBRANCH   1  10
BRANCH   5  43
HETATM   43  C   UNL     1      -6.887  10.465  65.203  1.00  0.00    -0.085 C  
HETATM   44  O   UNL     1      -5.482  10.659  65.404  1.00  0.00    -0.113 OA 
HETATM   45  H   UNL     1      -5.261  11.568  65.243  1.00  0.00     0.000 HD 
ENDBRANCH   5  43
TORSDOF 6
ENDMDL
MODEL      202
REMARK 921   NORMALIZED FREE ENERGY PREDICTED BY IDOCK:   -4.49 KCAL/MOL
REMARK 922        TOTAL FREE ENERGY PREDICTED BY IDOCK:   -7.71 KCAL/MOL
REMARK 923 INTER-LIGAND FREE ENERGY PREDICTED BY IDOCK:   -6.68 KCAL/MOL
REMARK 924 INTRA-LIGAND FREE ENERGY PREDICTED BY IDOCK:   -1.03 KCAL/MOL
REMARK 927      BINDING AFFINITY PREDICTED BY RF-SCORE:    0.00 PKD
ROOT
HETATM    1  C   UNL     1      -9.502   8.935  70.084  1.00  0.00    -0.180 C  
HETATM    2  O   UNL     1     -12.094   7.276  71.342  1.00  0.00    -0.300 OA 
HETATM    3  O   UNL     1      -9.072   7.702  70.678  1.00  0.00    -0.155 OA 
HETATM    4  H   UNL     1     -12.736   9.557  70.472  1.00  0.00     0.000 HD 
HETATM    5  C   UNL     1      -9.971   6.654  70.271  1.00  0.00    -0.174 C  
HETATM    6  H   UNL     1     -12.942   7.692  71.247  1.00  0.00     0.000 HD 
HETATM    7  C   UNL     1     -11.330   7.321  70.120  1.00  0.00    -0.207 C  
HETATM    8  O   UNL     1     -11.806   9.648  70.642  1.00  0.00    -0.270 OA 
HETATM    9  C   UNL     1     -11.017   8.786  69.806  1.00  0.00    -0.140 C  
ENDROOT
BRANCH   1  10
HETATM   10  O   UNL     1      -8.815   9.162  68.851  1.00  0.00    -0.136 OA 
BRANCH  10  11
HETATM   11  C   UNL     1      -7.736  10.136  68.836  1.00  0.00    -0.093 C  
HETATM   12  O   UNL     1      -6.448   8.932  70.505  1.00  0.00    -0.039 OA 
HETATM   13  H2  UNL     1      -6.638  14.603  68.116  1.00  0.00     0.000 HD 
HETATM   14  H   UNL     1      -5.998   8.981  71.340  1.00  0.00     0.000 HD 
HETATM   15  C   UNL     1      -7.007  10.214  70.187  1.00  0.00    -0.155 C  
HETATM   16  H1  UNL     1      -7.806  13.903  67.108  1.00  0.00     0.000 HD 
HETATM   17  C   UNL     1      -6.344  12.599  69.808  1.00  0.00    -0.070 C  
HETATM   18  N   UNL     1      -5.211  11.231  71.521  1.00  0.00    -0.306 NA 
HETATM   19  N   UNL     1      -7.394  13.923  68.041  1.00  0.00    -0.123 NA 
HETATM   20  H1  UNL     1      -4.438  11.895  71.523  1.00  0.00     0.000 HD 
HETATM   21  H2  UNL     1      -4.919  10.300  71.820  1.00  0.00     0.000 HD 
HETATM   22  C   UNL     1      -6.964  12.569  68.405  1.00  0.00    -0.096 C  
HETATM   23  C   UNL     1      -5.845  11.213  70.192  1.00  0.00    -0.124 C  
HETATM   24  C   UNL     1      -8.142  11.541  68.296  1.00  0.00    -0.148 C  
BRANCH  24  25
HETATM   25  O   UNL     1      -8.758  11.478  66.981  1.00  0.00    -0.157 OA 
BRANCH  25  26
HETATM   26  C   UNL     1     -10.188  11.390  66.947  1.00  0.00    -0.219 C  
HETATM   27  O   UNL     1     -10.789  12.490  67.634  1.00  0.00    -0.215 OA 
HETATM   28  C   UNL     1     -10.530  13.752  67.000  1.00  0.00    -0.274 C  
HETATM   29  C   UNL     1     -11.198  13.786  65.619  1.00  0.00    -0.302 C  
HETATM   30  H2  UNL     1     -10.246   9.321  65.141  1.00  0.00     0.000 HD 
HETATM   31  C   UNL     1     -10.632  12.647  64.769  1.00  0.00    -0.317 C  
HETATM   32  O   UNL     1     -10.954  15.000  64.895  1.00  0.00    -0.388 OA 
HETATM   33  H1  UNL     1     -10.525  10.159  63.719  1.00  0.00     0.000 HD 
HETATM   34  H   UNL     1     -11.367  15.021  64.040  1.00  0.00     0.000 HD 
HETATM   35  H   UNL     1     -10.988  11.887  62.990  1.00  0.00     0.000 HD 
HETATM   36  N   UNL     1     -10.156  10.220  64.668  1.00  0.00    -0.321 NA 
HETATM   37  O   UNL     1     -11.340  12.595  63.517  1.00  0.00    -0.458 OA 
HETATM   38  C   UNL     1     -10.751  11.297  65.494  1.00  0.00    -0.220 C  
BRANCH  28  39
HETATM   39  C   UNL     1     -11.017  14.856  67.954  1.00  0.00    -0.286 C  
HETATM   40  H2  UNL     1     -12.266  13.660  69.077  1.00  0.00     0.000 HD 
HETATM   41  N   UNL     1     -12.303  14.559  68.597  1.00  0.00    -0.589 NA 
HETATM   42  H1  UNL     1     -12.626  15.291  69.230  1.00  0.00     0.000 HD 
ENDBRANCH  28  39
ENDBRANCH  25  26
ENDBRANCH  24  25
ENDBRANCH  10  11
ENDBRANCH   1  10
BRANCH   5  43
HETATM   43  C   UNL     1      -9.515   5.970  68.975  1.00  0.00    -0.127 C  
HETATM   44  O   UNL     1      -8.289   5.268  69.211  1.00  0.00    -0.090 OA 
HETATM   45  H   UNL     1      -8.007   4.845  68.410  1.00  0.00     0.000 HD 
ENDBRANCH   5  43
TORSDOF 6
ENDMDL
MODEL      203
REMARK 921   NORMALIZED FREE ENERGY PREDICTED BY IDOCK:   -4.49 KCAL/MOL
REMARK 922        TOTAL FREE ENERGY PREDICTED BY IDOCK:   -7.71 KCAL/MOL
REMARK 923 INTER-LIGAND FREE ENERGY PREDICTED BY IDOCK:   -6.89 KCAL/MOL
REMARK 924 INTRA-LIGAND FREE ENERGY PREDICTED BY IDOCK:   -0.82 KCAL/MOL
REMARK 927      BINDING AFFINITY PREDICTED BY RF-SCORE:    0.00 PKD
ROOT
HETATM    1  C   UNL     1     -10.357  10.768  67.766  1.00  0.00    -0.193 C  
HETATM    2  O   UNL     1      -9.867  13.121  65.469  1.00  0.00    -0.424 OA 
HETATM    3  O   UNL     1      -9.033  10.673  67.221  1.00  0.00    -0.136 OA 
HETATM    4  H   UNL     1     -12.243  13.081  66.322  1.00  0.00     0.000 HD 
HETATM    5  C   UNL     1      -8.468  11.995  67.147  1.00  0.00    -0.180 C  
HETATM    6  H   UNL     1     -10.600  13.701  65.303  1.00  0.00     0.000 HD 
HETATM    7  C   UNL     1      -9.642  12.925  66.879  1.00  0.00    -0.240 C  
HETATM    8  O   UNL     1     -11.935  12.202  66.509  1.00  0.00    -0.618 OA 
HETATM    9  C   UNL     1     -10.858  12.199  67.461  1.00  0.00    -0.243 C  
ENDROOT
BRANCH   1  10
HETATM   10  O   UNL     1     -10.329  10.568  69.182  1.00  0.00    -0.197 OA 
BRANCH  10  11
HETATM   11  C   UNL     1     -11.261   9.611  69.757  1.00  0.00    -0.174 C  
HETATM   12  O   UNL     1     -12.859  11.334  70.365  1.00  0.00    -0.167 OA 
HETATM   13  H2  UNL     1     -11.672   5.484  71.872  1.00  0.00     0.000 HD 
HETATM   14  H   UNL     1     -13.381  11.716  71.062  1.00  0.00     0.000 HD 
HETATM   15  C   UNL     1     -12.105  10.230  70.883  1.00  0.00    -0.368 C  
HETATM   16  H1  UNL     1     -10.513   5.632  70.645  1.00  0.00     0.000 HD 
HETATM   17  C   UNL     1     -12.401   8.016  72.016  1.00  0.00    -0.366 C  
HETATM   18  N   UNL     1     -13.873   9.920  72.561  1.00  0.00    -0.570 NA 
HETATM   19  N   UNL     1     -11.010   6.101  71.402  1.00  0.00    -0.268 NA 
HETATM   20  H1  UNL     1     -14.547   9.269  72.963  1.00  0.00     0.000 HD 
HETATM   21  H2  UNL     1     -14.316  10.782  72.239  1.00  0.00     0.000 HD 
HETATM   22  C   UNL     1     -11.653   7.311  70.878  1.00  0.00    -0.300 C  
HETATM   23  C   UNL     1     -13.117   9.251  71.489  1.00  0.00    -0.363 C  
HETATM   24  C   UNL     1     -10.618   8.253  70.171  1.00  0.00    -0.233 C  
BRANCH  24  25
HETATM   25  O   UNL     1      -9.887   7.626  69.083  1.00  0.00    -0.166 OA 
BRANCH  25  26
HETATM   26  C   UNL     1      -8.469   7.833  69.060  1.00  0.00    -0.132 C  
HETATM   27  O   UNL     1      -7.991   8.274  70.333  1.00  0.00    -0.092 OA 
HETATM   28  C   UNL     1      -8.153   7.286  71.361  1.00  0.00    -0.102 C  
HETATM   29  C   UNL     1      -7.274   6.066  71.053  1.00  0.00    -0.074 C  
HETATM   30  H2  UNL     1      -8.114   6.696  66.585  1.00  0.00     0.000 HD 
HETATM   31  C   UNL     1      -7.692   5.487  69.701  1.00  0.00    -0.078 C  
HETATM   32  O   UNL     1      -7.408   5.007  72.013  1.00  0.00    -0.083 OA 
HETATM   33  H1  UNL     1      -7.617   5.158  67.019  1.00  0.00     0.000 HD 
HETATM   34  H   UNL     1      -6.864   4.252  71.821  1.00  0.00     0.000 HD 
HETATM   35  H   UNL     1      -7.054   4.060  68.506  1.00  0.00     0.000 HD 
HETATM   36  N   UNL     1      -8.132   5.987  67.317  1.00  0.00    -0.106 NA 
HETATM   37  O   UNL     1      -6.794   4.420  69.346  1.00  0.00    -0.044 OA 
HETATM   38  C   UNL     1      -7.682   6.565  68.604  1.00  0.00    -0.102 C  
BRANCH  28  39
HETATM   39  C   UNL     1      -7.831   7.962  72.705  1.00  0.00    -0.118 C  
HETATM   40  H2  UNL     1      -6.952   9.651  71.912  1.00  0.00     0.000 HD 
HETATM   41  N   UNL     1      -6.748   8.952  72.626  1.00  0.00    -0.310 NA 
HETATM   42  H1  UNL     1      -6.535   9.400  73.517  1.00  0.00     0.000 HD 
ENDBRANCH  28  39
ENDBRANCH  25  26
ENDBRANCH  24  25
ENDBRANCH  10  11
ENDBRANCH   1  10
BRANCH   5  43
HETATM   43  C   UNL     1      -7.709  12.373  68.426  1.00  0.00    -0.144 C  
HETATM   44  O   UNL     1      -7.692  11.255  69.320  1.00  0.00    -0.302 OA 
HETATM   45  H   UNL     1      -7.222  11.489  70.111  1.00  0.00     0.000 HD 
ENDBRANCH   5  43
TORSDOF 6
ENDMDL
MODEL      204
REMARK 921   NORMALIZED FREE ENERGY PREDICTED BY IDOCK:   -4.45 KCAL/MOL
REMARK 922        TOTAL FREE ENERGY PREDICTED BY IDOCK:   -7.65 KCAL/MOL
REMARK 923 INTER-LIGAND FREE ENERGY PREDICTED BY IDOCK:   -6.66 KCAL/MOL
REMARK 924 INTRA-LIGAND FREE ENERGY PREDICTED BY IDOCK:   -0.99 KCAL/MOL
REMARK 927      BINDING AFFINITY PREDICTED BY RF-SCORE:    0.00 PKD
ROOT
HETATM    1  C   UNL     1      -9.585  13.251  66.836  1.00  0.00    -0.249 C  
HETATM    2  O   UNL     1     -12.776  14.013  67.375  1.00  0.00    -0.366 OA 
HETATM    3  O   UNL     1     -10.273  13.451  65.593  1.00  0.00    -0.285 OA 
HETATM    4  H   UNL     1     -11.547  13.432  69.503  1.00  0.00     0.000 HD 
HETATM    5  C   UNL     1     -11.087  14.634  65.701  1.00  0.00    -0.338 C  
HETATM    6  H   UNL     1     -13.049  14.052  68.284  1.00  0.00     0.000 HD 
HETATM    7  C   UNL     1     -11.525  14.695  67.157  1.00  0.00    -0.368 C  
HETATM    8  O   UNL     1     -11.028  13.004  68.833  1.00  0.00    -0.244 OA 
HETATM    9  C   UNL     1     -10.432  13.948  67.927  1.00  0.00    -0.242 C  
ENDROOT
BRANCH   1  10
HETATM   10  O   UNL     1      -8.288  13.850  66.791  1.00  0.00    -0.084 OA 
BRANCH  10  11
HETATM   11  C   UNL     1      -7.652  14.203  68.050  1.00  0.00    -0.141 C  
HETATM   12  O   UNL     1      -7.527  16.559  67.478  1.00  0.00    -0.133 OA 
HETATM   13  H2  UNL     1      -4.895  12.699  71.487  1.00  0.00     0.000 HD 
HETATM   14  H   UNL     1      -6.967  17.323  67.395  1.00  0.00     0.000 HD 
HETATM   15  C   UNL     1      -6.747  15.438  67.916  1.00  0.00    -0.160 C  
HETATM   16  H1  UNL     1      -6.002  11.601  70.823  1.00  0.00     0.000 HD 
HETATM   17  C   UNL     1      -5.277  14.693  69.802  1.00  0.00    -0.092 C  
HETATM   18  N   UNL     1      -5.233  17.032  69.015  1.00  0.00    -0.133 NA 
HETATM   19  N   UNL     1      -5.396  12.403  70.649  1.00  0.00    -0.143 NA 
HETATM   20  H1  UNL     1      -4.794  17.306  69.893  1.00  0.00     0.000 HD 
HETATM   21  H2  UNL     1      -5.746  17.802  68.584  1.00  0.00     0.000 HD 
HETATM   22  C   UNL     1      -6.189  13.488  70.062  1.00  0.00    -0.098 C  
HETATM   23  C   UNL     1      -6.086  15.852  69.236  1.00  0.00    -0.133 C  
HETATM   24  C   UNL     1      -6.940  13.018  68.769  1.00  0.00    -0.103 C  
BRANCH  24  25
HETATM   25  O   UNL     1      -7.819  11.878  68.971  1.00  0.00    -0.039 OA 
BRANCH  25  26
HETATM   26  C   UNL     1      -7.216  10.580  68.882  1.00  0.00    -0.086 C  
HETATM   27  O   UNL     1      -7.780   9.682  69.840  1.00  0.00    -0.106 OA 
HETATM   28  C   UNL     1      -9.168   9.408  69.597  1.00  0.00    -0.185 C  
HETATM   29  C   UNL     1      -9.324   8.656  68.268  1.00  0.00    -0.137 C  
HETATM   30  H2  UNL     1      -5.850  11.123  66.561  1.00  0.00     0.000 HD 
HETATM   31  C   UNL     1      -8.756   9.522  67.143  1.00  0.00    -0.132 C  
HETATM   32  O   UNL     1     -10.689   8.378  67.925  1.00  0.00    -0.422 OA 
HETATM   33  H1  UNL     1      -6.875  10.436  65.431  1.00  0.00     0.000 HD 
HETATM   34  H   UNL     1     -10.786   7.912  67.102  1.00  0.00     0.000 HD 
HETATM   35  H   UNL     1      -8.433   9.314  65.213  1.00  0.00     0.000 HD 
HETATM   36  N   UNL     1      -6.809  10.838  66.366  1.00  0.00    -0.127 NA 
HETATM   37  O   UNL     1      -8.786   8.776  65.912  1.00  0.00    -0.163 OA 
HETATM   38  C   UNL     1      -7.317   9.966  67.451  1.00  0.00    -0.090 C  
BRANCH  28  39
HETATM   39  C   UNL     1      -9.707   8.638  70.815  1.00  0.00    -0.194 C  
HETATM   40  H2  UNL     1     -11.621   9.401  70.745  1.00  0.00     0.000 HD 
HETATM   41  N   UNL     1     -10.884   9.260  71.435  1.00  0.00    -0.341 NA 
HETATM   42  H1  UNL     1     -11.242   8.748  72.243  1.00  0.00     0.000 HD 
ENDBRANCH  28  39
ENDBRANCH  25  26
ENDBRANCH  24  25
ENDBRANCH  10  11
ENDBRANCH   1  10
BRANCH   5  43
HETATM   43  C   UNL     1     -10.333  15.898  65.269  1.00  0.00    -0.324 C  
HETATM   44  O   UNL     1     -11.198  16.725  64.483  1.00  0.00    -0.997 OA 
HETATM   45  H   UNL     1     -10.731  17.508  64.216  1.00  0.00     0.000 HD 
ENDBRANCH   5  43
TORSDOF 6
ENDMDL
MODEL      205
REMARK 921   NORMALIZED FREE ENERGY PREDICTED BY IDOCK:   -4.45 KCAL/MOL
REMARK 922        TOTAL FREE ENERGY PREDICTED BY IDOCK:   -7.65 KCAL/MOL
REMARK 923 INTER-LIGAND FREE ENERGY PREDICTED BY IDOCK:   -6.22 KCAL/MOL
REMARK 924 INTRA-LIGAND FREE ENERGY PREDICTED BY IDOCK:   -1.43 KCAL/MOL
REMARK 927      BINDING AFFINITY PREDICTED BY RF-SCORE:    0.00 PKD
ROOT
HETATM    1  C   UNL     1      -8.026  13.871  68.432  1.00  0.00    -0.144 C  
HETATM    2  O   UNL     1      -5.959  16.418  67.893  1.00  0.00    -0.107 OA 
HETATM    3  O   UNL     1      -8.731  15.118  68.511  1.00  0.00    -0.158 OA 
HETATM    4  H   UNL     1      -4.757  14.200  67.987  1.00  0.00     0.000 HD 
HETATM    5  C   UNL     1      -8.322  15.950  67.409  1.00  0.00    -0.171 C  
HETATM    6  H   UNL     1      -5.051  16.192  67.727  1.00  0.00     0.000 HD 
HETATM    7  C   UNL     1      -6.868  15.588  67.144  1.00  0.00    -0.041 C  
HETATM    8  O   UNL     1      -5.556  14.030  68.472  1.00  0.00    -0.083 OA 
HETATM    9  C   UNL     1      -6.724  14.148  67.644  1.00  0.00    -0.171 C  
ENDROOT
BRANCH   1  10
HETATM   10  O   UNL     1      -8.807  12.901  67.730  1.00  0.00    -0.167 OA 
BRANCH  10  11
HETATM   11  C   UNL     1      -9.084  11.635  68.392  1.00  0.00    -0.180 C  
HETATM   12  O   UNL     1      -7.252  10.499  67.275  1.00  0.00    -0.086 OA 
HETATM   13  H2  UNL     1     -12.390   8.974  70.305  1.00  0.00     0.000 HD 
HETATM   14  H   UNL     1      -6.991   9.753  66.747  1.00  0.00     0.000 HD 
HETATM   15  C   UNL     1      -8.660  10.430  67.537  1.00  0.00    -0.125 C  
HETATM   16  H1  UNL     1     -12.479  10.647  70.554  1.00  0.00     0.000 HD 
HETATM   17  C   UNL     1     -10.385   8.950  68.589  1.00  0.00    -0.228 C  
HETATM   18  N   UNL     1      -8.490   7.987  67.335  1.00  0.00    -0.125 NA 
HETATM   19  N   UNL     1     -12.205   9.899  69.918  1.00  0.00     0.093 NA 
HETATM   20  H1  UNL     1      -8.659   7.091  67.792  1.00  0.00     0.000 HD 
HETATM   21  H2  UNL     1      -7.520   8.089  67.035  1.00  0.00     0.000 HD 
HETATM   22  C   UNL     1     -10.798  10.076  69.545  1.00  0.00    -0.253 C  
HETATM   23  C   UNL     1      -8.914   9.083  68.224  1.00  0.00    -0.133 C  
HETATM   24  C   UNL     1     -10.536  11.498  68.940  1.00  0.00    -0.204 C  
BRANCH  24  25
HETATM   25  O   UNL     1     -10.911  12.596  69.814  1.00  0.00     0.184 OA 
BRANCH  25  26
HETATM   26  C   UNL     1     -12.233  13.124  69.650  1.00  0.00    -0.181 C  
HETATM   27  O   UNL     1     -12.828  13.428  70.914  1.00  0.00    -0.284 OA 
HETATM   28  C   UNL     1     -12.147  14.480  71.612  1.00  0.00    -0.306 C  
HETATM   29  C   UNL     1     -12.282  15.794  70.829  1.00  0.00    -0.399 C  
HETATM   30  H2  UNL     1     -12.033  13.396  66.924  1.00  0.00     0.000 HD 
HETATM   31  C   UNL     1     -11.670  15.605  69.441  1.00  0.00    -0.383 C  
HETATM   32  O   UNL     1     -11.591  16.896  71.437  1.00  0.00    -0.470 OA 
HETATM   33  H1  UNL     1     -11.652  15.021  66.802  1.00  0.00     0.000 HD 
HETATM   34  H   UNL     1     -11.675  17.709  70.953  1.00  0.00     0.000 HD 
HETATM   35  H   UNL     1     -11.521  16.674  67.795  1.00  0.00     0.000 HD 
HETATM   36  N   UNL     1     -11.628  14.199  67.405  1.00  0.00    -0.351 NA 
HETATM   37  O   UNL     1     -11.901  16.791  68.658  1.00  0.00     0.136 OA 
HETATM   38  C   UNL     1     -12.269  14.383  68.728  1.00  0.00    -0.165 C  
BRANCH  28  39
HETATM   39  C   UNL     1     -12.728  14.542  73.035  1.00  0.00    -0.396 C  
HETATM   40  H2  UNL     1     -14.386  15.673  72.562  1.00  0.00     0.000 HD 
HETATM   41  N   UNL     1     -13.638  15.673  73.256  1.00  0.00    -0.645 NA 
HETATM   42  H1  UNL     1     -14.023  15.713  74.200  1.00  0.00     0.000 HD 
ENDBRANCH  28  39
ENDBRANCH  25  26
ENDBRANCH  24  25
ENDBRANCH  10  11
ENDBRANCH   1  10
BRANCH   5  43
HETATM   43  C   UNL     1      -9.205  15.747  66.171  1.00  0.00    -0.350 C  
HETATM   44  O   UNL     1     -10.219  16.758  66.136  1.00  0.00    -0.326 OA 
HETATM   45  H   UNL     1     -10.765  16.632  65.369  1.00  0.00     0.000 HD 
ENDBRANCH   5  43
TORSDOF 6
ENDMDL
MODEL      206
REMARK 921   NORMALIZED FREE ENERGY PREDICTED BY IDOCK:   -4.43 KCAL/MOL
REMARK 922        TOTAL FREE ENERGY PREDICTED BY IDOCK:   -7.62 KCAL/MOL
REMARK 923 INTER-LIGAND FREE ENERGY PREDICTED BY IDOCK:   -6.91 KCAL/MOL
REMARK 924 INTRA-LIGAND FREE ENERGY PREDICTED BY IDOCK:   -0.71 KCAL/MOL
REMARK 927      BINDING AFFINITY PREDICTED BY RF-SCORE:    0.00 PKD
ROOT
HETATM    1  C   UNL     1     -10.990  14.597  65.767  1.00  0.00    -0.330 C  
HETATM    2  O   UNL     1     -12.874  13.824  63.139  1.00  0.00    -0.612 OA 
HETATM    3  O   UNL     1     -11.552  13.285  65.917  1.00  0.00    -0.323 OA 
HETATM    4  H   UNL     1     -12.025  16.200  63.056  1.00  0.00     0.000 HD 
HETATM    5  C   UNL     1     -11.412  12.577  64.671  1.00  0.00    -0.327 C  
HETATM    6  H   UNL     1     -12.939  14.487  62.462  1.00  0.00     0.000 HD 
HETATM    7  C   UNL     1     -11.516  13.639  63.586  1.00  0.00     0.055 C  
HETATM    8  O   UNL     1     -11.986  15.992  63.982  1.00  0.00    -0.796 OA 
HETATM    9  C   UNL     1     -11.054  14.934  64.259  1.00  0.00     0.080 C  
ENDROOT
BRANCH   1  10
HETATM   10  O   UNL     1      -9.627  14.608  66.197  1.00  0.00    -0.296 OA 
BRANCH  10  11
HETATM   11  C   UNL     1      -9.267  15.472  67.310  1.00  0.00    -0.209 C  
HETATM   12  O   UNL     1     -10.394  17.397  66.353  1.00  0.00    -0.332 OA 
HETATM   13  H2  UNL     1      -6.121  16.289  70.644  1.00  0.00     0.000 HD 
HETATM   14  H   UNL     1     -10.317  18.307  66.089  1.00  0.00     0.000 HD 
HETATM   15  C   UNL     1      -9.142  16.943  66.884  1.00  0.00    -0.230 C  
HETATM   16  H1  UNL     1      -6.492  14.675  70.285  1.00  0.00     0.000 HD 
HETATM   17  C   UNL     1      -7.494  17.437  68.705  1.00  0.00    -0.263 C  
HETATM   18  N   UNL     1      -8.683  19.264  67.548  1.00  0.00    -0.294 NA 
HETATM   19  N   UNL     1      -6.395  15.623  69.922  1.00  0.00    -0.167 NA 
HETATM   20  H1  UNL     1      -8.450  19.888  68.320  1.00  0.00     0.000 HD 
HETATM   21  H2  UNL     1      -9.523  19.563  67.053  1.00  0.00     0.000 HD 
HETATM   22  C   UNL     1      -7.640  16.011  69.250  1.00  0.00    -0.230 C  
HETATM   23  C   UNL     1      -8.791  17.882  68.044  1.00  0.00    -0.268 C  
HETATM   24  C   UNL     1      -8.038  14.984  68.135  1.00  0.00    -0.131 C  
BRANCH  24  25
HETATM   25  O   UNL     1      -8.189  13.618  68.609  1.00  0.00    -0.138 OA 
BRANCH  25  26
HETATM   26  C   UNL     1      -8.550  12.636  67.630  1.00  0.00    -0.180 C  
HETATM   27  O   UNL     1      -7.390  12.050  67.034  1.00  0.00    -0.142 OA 
HETATM   28  C   UNL     1      -6.604  11.297  67.969  1.00  0.00    -0.058 C  
HETATM   29  C   UNL     1      -7.404  10.083  68.460  1.00  0.00    -0.077 C  
HETATM   30  H2  UNL     1     -11.217  12.631  68.284  1.00  0.00     0.000 HD 
HETATM   31  C   UNL     1      -8.686  10.577  69.132  1.00  0.00    -0.147 C  
HETATM   32  O   UNL     1      -6.707   9.294  69.435  1.00  0.00    -0.047 OA 
HETATM   33  H1  UNL     1     -11.290  11.286  69.277  1.00  0.00     0.000 HD 
HETATM   34  H   UNL     1      -7.202   8.542  69.739  1.00  0.00     0.000 HD 
HETATM   35  H   UNL     1     -10.297   9.751  69.903  1.00  0.00     0.000 HD 
HETATM   36  N   UNL     1     -10.686  12.016  68.899  1.00  0.00    -0.211 NA 
HETATM   37  O   UNL     1      -9.500   9.444  69.486  1.00  0.00    -0.162 OA 
HETATM   38  C   UNL     1      -9.474  11.519  68.208  1.00  0.00    -0.189 C  
BRANCH  28  39
HETATM   39  C   UNL     1      -5.282  10.930  67.272  1.00  0.00    -0.040 C  
HETATM   40  H2  UNL     1      -6.094   9.608  65.914  1.00  0.00     0.000 HD 
HETATM   41  N   UNL     1      -5.319   9.638  66.575  1.00  0.00    -0.044 NA 
HETATM   42  H1  UNL     1      -4.442   9.395  66.113  1.00  0.00     0.000 HD 
ENDBRANCH  28  39
ENDBRANCH  25  26
ENDBRANCH  24  25
ENDBRANCH  10  11
ENDBRANCH   1  10
BRANCH   5  43
HETATM   43  C   UNL     1     -10.092  11.797  64.592  1.00  0.00    -0.272 C  
HETATM   44  O   UNL     1      -9.570  11.875  63.261  1.00  0.00    -0.535 OA 
HETATM   45  H   UNL     1      -8.754  11.392  63.212  1.00  0.00     0.000 HD 
ENDBRANCH   5  43
TORSDOF 6
ENDMDL
MODEL      207
REMARK 921   NORMALIZED FREE ENERGY PREDICTED BY IDOCK:   -4.42 KCAL/MOL
REMARK 922        TOTAL FREE ENERGY PREDICTED BY IDOCK:   -7.61 KCAL/MOL
REMARK 923 INTER-LIGAND FREE ENERGY PREDICTED BY IDOCK:   -6.16 KCAL/MOL
REMARK 924 INTRA-LIGAND FREE ENERGY PREDICTED BY IDOCK:   -1.45 KCAL/MOL
REMARK 927      BINDING AFFINITY PREDICTED BY RF-SCORE:    0.00 PKD
ROOT
HETATM    1  C   UNL     1     -10.861  10.227  68.118  1.00  0.00    -0.265 C  
HETATM    2  O   UNL     1     -10.678  13.049  66.370  1.00  0.00    -0.278 OA 
HETATM    3  O   UNL     1     -10.084  10.034  66.927  1.00  0.00    -0.208 OA 
HETATM    4  H   UNL     1     -12.208  13.246  68.369  1.00  0.00     0.000 HD 
HETATM    5  C   UNL     1      -9.180  11.144  66.780  1.00  0.00    -0.171 C  
HETATM    6  H   UNL     1     -11.134  13.798  66.736  1.00  0.00     0.000 HD 
HETATM    7  C   UNL     1      -9.911  12.344  67.366  1.00  0.00    -0.199 C  
HETATM    8  O   UNL     1     -12.194  12.311  68.202  1.00  0.00    -0.349 OA 
HETATM    9  C   UNL     1     -10.884  11.750  68.388  1.00  0.00    -0.223 C  
ENDROOT
BRANCH   1  10
HETATM   10  O   UNL     1     -10.251   9.560  69.225  1.00  0.00    -0.186 OA 
BRANCH  10  11
HETATM   11  C   UNL     1     -11.043   8.586  69.960  1.00  0.00    -0.151 C  
HETATM   12  O   UNL     1     -12.730  10.222  70.569  1.00  0.00    -0.443 OA 
HETATM   13  H2  UNL     1     -10.911   4.643  72.432  1.00  0.00     0.000 HD 
HETATM   14  H   UNL     1     -13.223  10.621  71.277  1.00  0.00     0.000 HD 
HETATM   15  C   UNL     1     -11.840   9.232  71.104  1.00  0.00    -0.325 C  
HETATM   16  H1  UNL     1      -9.877   4.774  71.096  1.00  0.00     0.000 HD 
HETATM   17  C   UNL     1     -11.845   7.111  72.436  1.00  0.00    -0.224 C  
HETATM   18  N   UNL     1     -13.427   8.932  72.956  1.00  0.00    -0.952 NA 
HETATM   19  N   UNL     1     -10.348   5.267  71.855  1.00  0.00    -0.210 NA 
HETATM   20  H1  UNL     1     -14.005   8.267  73.470  1.00  0.00     0.000 HD 
HETATM   21  H2  UNL     1     -13.969   9.723  72.607  1.00  0.00     0.000 HD 
HETATM   22  C   UNL     1     -11.136   6.370  71.295  1.00  0.00    -0.282 C  
HETATM   23  C   UNL     1     -12.709   8.233  71.877  1.00  0.00    -0.342 C  
HETATM   24  C   UNL     1     -10.252   7.325  70.422  1.00  0.00    -0.194 C  
BRANCH  24  25
HETATM   25  O   UNL     1      -9.562   6.665  69.326  1.00  0.00    -0.144 OA 
BRANCH  25  26
HETATM   26  C   UNL     1      -8.154   6.906  69.216  1.00  0.00    -0.120 C  
HETATM   27  O   UNL     1      -7.425   6.168  70.200  1.00  0.00    -0.088 OA 
HETATM   28  C   UNL     1      -7.523   4.748  70.016  1.00  0.00    -0.055 C  
HETATM   29  C   UNL     1      -6.847   4.348  68.697  1.00  0.00    -0.051 C  
HETATM   30  H2  UNL     1      -8.342   8.270  66.840  1.00  0.00     0.000 HD 
HETATM   31  C   UNL     1      -7.545   5.074  67.546  1.00  0.00    -0.087 C  
HETATM   32  O   UNL     1      -6.935   2.944  68.412  1.00  0.00    -0.047 OA 
HETATM   33  H1  UNL     1      -7.952   7.056  65.755  1.00  0.00     0.000 HD 
HETATM   34  H   UNL     1      -6.517   2.697  67.595  1.00  0.00     0.000 HD 
HETATM   35  H   UNL     1      -7.275   5.253  65.605  1.00  0.00     0.000 HD 
HETATM   36  N   UNL     1      -8.316   7.262  66.685  1.00  0.00    -0.117 NA 
HETATM   37  O   UNL     1      -6.841   4.801  66.321  1.00  0.00    -0.058 OA 
HETATM   38  C   UNL     1      -7.598   6.590  67.793  1.00  0.00    -0.106 C  
BRANCH  28  39
HETATM   39  C   UNL     1      -6.909   4.078  71.258  1.00  0.00    -0.031 C  
HETATM   40  H2  UNL     1      -7.676   5.403  72.639  1.00  0.00     0.000 HD 
HETATM   41  N   UNL     1      -6.778   4.977  72.412  1.00  0.00    -0.055 NA 
HETATM   42  H1  UNL     1      -6.371   4.533  73.235  1.00  0.00     0.000 HD 
ENDBRANCH  28  39
ENDBRANCH  25  26
ENDBRANCH  24  25
ENDBRANCH  10  11
ENDBRANCH   1  10
BRANCH   5  43
HETATM   43  C   UNL     1      -7.834  10.892  67.472  1.00  0.00    -0.114 C  
HETATM   44  O   UNL     1      -7.053   9.987  66.683  1.00  0.00    -0.087 OA 
HETATM   45  H   UNL     1      -6.220   9.831  67.111  1.00  0.00     0.000 HD 
ENDBRANCH   5  43
TORSDOF 6
ENDMDL
MODEL      208
REMARK 921   NORMALIZED FREE ENERGY PREDICTED BY IDOCK:   -4.41 KCAL/MOL
REMARK 922        TOTAL FREE ENERGY PREDICTED BY IDOCK:   -7.60 KCAL/MOL
REMARK 923 INTER-LIGAND FREE ENERGY PREDICTED BY IDOCK:   -7.07 KCAL/MOL
REMARK 924 INTRA-LIGAND FREE ENERGY PREDICTED BY IDOCK:   -0.53 KCAL/MOL
REMARK 927      BINDING AFFINITY PREDICTED BY RF-SCORE:    0.00 PKD
ROOT
HETATM    1  C   UNL     1     -11.321  15.484  71.336  1.00  0.00    -0.395 C  
HETATM    2  O   UNL     1     -12.802  15.653  74.307  1.00  0.00    -0.703 OA 
HETATM    3  O   UNL     1     -11.746  14.182  71.763  1.00  0.00     0.042 OA 
HETATM    4  H   UNL     1     -11.833  17.868  73.583  1.00  0.00     0.000 HD 
HETATM    5  C   UNL     1     -13.082  14.280  72.288  1.00  0.00    -0.405 C  
HETATM    6  H   UNL     1     -12.859  16.517  74.698  1.00  0.00     0.000 HD 
HETATM    7  C   UNL     1     -13.172  15.664  72.914  1.00  0.00    -0.532 C  
HETATM    8  O   UNL     1     -11.328  17.240  73.081  1.00  0.00     0.488 OA 
HETATM    9  C   UNL     1     -12.145  16.507  72.154  1.00  0.00    -0.166 C  
ENDROOT
BRANCH   1  10
HETATM   10  O   UNL     1     -11.591  15.665  69.944  1.00  0.00    -0.296 OA 
BRANCH  10  11
HETATM   11  C   UNL     1     -10.866  14.839  68.992  1.00  0.00    -0.245 C  
HETATM   12  O   UNL     1     -12.850  13.593  68.357  1.00  0.00     0.245 OA 
HETATM   13  H2  UNL     1      -6.742  12.945  67.949  1.00  0.00     0.000 HD 
HETATM   14  H   UNL     1     -13.244  12.735  68.255  1.00  0.00     0.000 HD 
HETATM   15  C   UNL     1     -11.503  13.450  68.826  1.00  0.00    -0.305 C  
HETATM   16  H1  UNL     1      -6.751  14.503  68.616  1.00  0.00     0.000 HD 
HETATM   17  C   UNL     1      -9.313  12.407  68.200  1.00  0.00    -0.209 C  
HETATM   18  N   UNL     1     -11.443  11.258  67.717  1.00  0.00    -0.458 NA 
HETATM   19  N   UNL     1      -7.209  13.592  68.584  1.00  0.00    -0.106 NA 
HETATM   20  H1  UNL     1     -10.959  10.672  67.038  1.00  0.00     0.000 HD 
HETATM   21  H2  UNL     1     -12.438  11.347  67.507  1.00  0.00     0.000 HD 
HETATM   22  C   UNL     1      -8.625  13.777  68.248  1.00  0.00    -0.175 C  
HETATM   23  C   UNL     1     -10.775  12.567  67.806  1.00  0.00    -0.219 C  
HETATM   24  C   UNL     1      -9.329  14.764  69.242  1.00  0.00    -0.045 C  
BRANCH  24  25
HETATM   25  O   UNL     1      -8.710  16.076  69.318  1.00  0.00    -0.248 OA 
BRANCH  25  26
HETATM   26  C   UNL     1      -7.811  16.424  68.257  1.00  0.00    -0.168 C  
HETATM   27  O   UNL     1      -8.513  17.003  67.154  1.00  0.00    -0.192 OA 
HETATM   28  C   UNL     1      -9.124  18.260  67.481  1.00  0.00    -0.253 C  
HETATM   29  C   UNL     1      -8.039  19.298  67.799  1.00  0.00    -0.286 C  
HETATM   30  H2  UNL     1      -5.537  15.969  69.729  1.00  0.00     0.000 HD 
HETATM   31  C   UNL     1      -7.208  18.797  68.980  1.00  0.00    -0.278 C  
HETATM   32  O   UNL     1      -8.565  20.578  68.179  1.00  0.00    -0.005 OA 
HETATM   33  H1  UNL     1      -5.160  17.529  70.206  1.00  0.00     0.000 HD 
HETATM   34  H   UNL     1      -7.893  21.221  68.375  1.00  0.00     0.000 HD 
HETATM   35  H   UNL     1      -5.597  19.392  69.941  1.00  0.00     0.000 HD 
HETATM   36  N   UNL     1      -5.906  16.904  69.901  1.00  0.00    -0.221 NA 
HETATM   37  O   UNL     1      -6.114  19.704  69.207  1.00  0.00    -0.253 OA 
HETATM   38  C   UNL     1      -6.669  17.381  68.724  1.00  0.00    -0.219 C  
BRANCH  28  39
HETATM   39  C   UNL     1     -10.034  18.651  66.304  1.00  0.00    -0.372 C  
HETATM   40  H2  UNL     1     -11.002  16.837  66.147  1.00  0.00     0.000 HD 
HETATM   41  N   UNL     1     -10.533  17.503  65.534  1.00  0.00    -0.637 NA 
HETATM   42  H1  UNL     1     -11.136  17.762  64.754  1.00  0.00     0.000 HD 
ENDBRANCH  28  39
ENDBRANCH  25  26
ENDBRANCH  24  25
ENDBRANCH  10  11
ENDBRANCH   1  10
BRANCH   5  43
HETATM   43  C   UNL     1     -14.148  14.064  71.206  1.00  0.00     0.015 C  
HETATM   44  O   UNL     1     -14.324  15.274  70.460  1.00  0.00    -0.469 OA 
HETATM   45  H   UNL     1     -14.984  15.140  69.790  1.00  0.00     0.000 HD 
ENDBRANCH   5  43
TORSDOF 6
ENDMDL
MODEL      209
REMARK 921   NORMALIZED FREE ENERGY PREDICTED BY IDOCK:   -4.41 KCAL/MOL
REMARK 922        TOTAL FREE ENERGY PREDICTED BY IDOCK:   -7.60 KCAL/MOL
REMARK 923 INTER-LIGAND FREE ENERGY PREDICTED BY IDOCK:   -6.37 KCAL/MOL
REMARK 924 INTRA-LIGAND FREE ENERGY PREDICTED BY IDOCK:   -1.23 KCAL/MOL
REMARK 927      BINDING AFFINITY PREDICTED BY RF-SCORE:    0.00 PKD
ROOT
HETATM    1  C   UNL     1      -7.271  12.404  67.082  1.00  0.00    -0.080 C  
HETATM    2  O   UNL     1      -5.228  13.475  69.476  1.00  0.00    -0.082 OA 
HETATM    3  O   UNL     1      -6.017  11.709  67.024  1.00  0.00    -0.109 OA 
HETATM    4  H   UNL     1      -7.375  14.798  69.374  1.00  0.00     0.000 HD 
HETATM    5  C   UNL     1      -5.638  11.325  68.358  1.00  0.00    -0.042 C  
HETATM    6  H   UNL     1      -5.569  14.156  70.043  1.00  0.00     0.000 HD 
HETATM    7  C   UNL     1      -6.184  12.417  69.266  1.00  0.00    -0.101 C  
HETATM    8  O   UNL     1      -7.308  14.433  68.500  1.00  0.00    -0.107 OA 
HETATM    9  C   UNL     1      -7.380  12.998  68.506  1.00  0.00    -0.115 C  
ENDROOT
BRANCH   1  10
HETATM   10  O   UNL     1      -8.354  11.497  66.864  1.00  0.00    -0.155 OA 
BRANCH  10  11
HETATM   11  C   UNL     1      -9.709  12.019  66.933  1.00  0.00    -0.203 C  
HETATM   12  O   UNL     1      -9.593  12.982  64.708  1.00  0.00    -0.515 OA 
HETATM   13  H2  UNL     1     -13.050  13.602  69.764  1.00  0.00     0.000 HD 
HETATM   14  H   UNL     1      -9.703  13.764  64.179  1.00  0.00     0.000 HD 
HETATM   15  C   UNL     1      -9.887  13.284  66.078  1.00  0.00    -0.263 C  
HETATM   16  H1  UNL     1     -12.097  12.311  70.309  1.00  0.00     0.000 HD 
HETATM   17  C   UNL     1     -11.731  14.138  67.542  1.00  0.00    -0.418 C  
HETATM   18  N   UNL     1     -11.394  15.051  65.274  1.00  0.00    -0.358 NA 
HETATM   19  N   UNL     1     -12.130  13.162  69.748  1.00  0.00    -0.298 NA 
HETATM   20  H1  UNL     1     -12.344  15.420  65.294  1.00  0.00     0.000 HD 
HETATM   21  H2  UNL     1     -11.066  14.884  64.322  1.00  0.00     0.000 HD 
HETATM   22  C   UNL     1     -11.681  12.858  68.385  1.00  0.00    -0.345 C  
HETATM   23  C   UNL     1     -11.316  13.840  66.108  1.00  0.00    -0.314 C  
HETATM   24  C   UNL     1     -10.261  12.195  68.380  1.00  0.00    -0.210 C  
BRANCH  24  25
HETATM   25  O   UNL     1     -10.169  10.976  69.166  1.00  0.00    -0.210 OA 
BRANCH  25  26
HETATM   26  C   UNL     1     -11.158   9.971  68.909  1.00  0.00    -0.176 C  
HETATM   27  O   UNL     1     -10.807   9.182  67.770  1.00  0.00    -0.217 OA 
HETATM   28  C   UNL     1      -9.613   8.412  67.972  1.00  0.00    -0.149 C  
HETATM   29  C   UNL     1      -9.848   7.367  69.071  1.00  0.00    -0.168 C  
HETATM   30  H2  UNL     1     -12.523  10.391  71.255  1.00  0.00     0.000 HD 
HETATM   31  C   UNL     1     -10.230   8.090  70.364  1.00  0.00    -0.201 C  
HETATM   32  O   UNL     1      -8.687   6.578  69.368  1.00  0.00    -0.132 OA 
HETATM   33  H1  UNL     1     -11.897   9.160  72.201  1.00  0.00     0.000 HD 
HETATM   34  H   UNL     1      -8.832   5.931  70.049  1.00  0.00     0.000 HD 
HETATM   35  H   UNL     1     -10.809   7.564  72.169  1.00  0.00     0.000 HD 
HETATM   36  N   UNL     1     -11.731   9.764  71.397  1.00  0.00    -0.390 NA 
HETATM   37  O   UNL     1     -10.571   7.115  71.366  1.00  0.00    -0.216 OA 
HETATM   38  C   UNL     1     -11.412   9.047  70.141  1.00  0.00    -0.062 C  
BRANCH  28  39
HETATM   39  C   UNL     1      -9.218   7.808  66.613  1.00  0.00    -0.177 C  
HETATM   40  H2  UNL     1      -8.937   9.601  65.634  1.00  0.00     0.000 HD 
HETATM   41  N   UNL     1      -9.423   8.718  65.478  1.00  0.00    -0.452 NA 
HETATM   42  H1  UNL     1      -9.160   8.317  64.577  1.00  0.00     0.000 HD 
ENDBRANCH  28  39
ENDBRANCH  25  26
ENDBRANCH  24  25
ENDBRANCH  10  11
ENDBRANCH   1  10
BRANCH   5  43
HETATM   43  C   UNL     1      -6.173   9.937  68.736  1.00  0.00    -0.041 C  
HETATM   44  O   UNL     1      -6.382   9.166  67.547  1.00  0.00    -0.061 OA 
HETATM   45  H   UNL     1      -6.713   8.307  67.781  1.00  0.00     0.000 HD 
ENDBRANCH   5  43
TORSDOF 6
ENDMDL
MODEL      210
REMARK 921   NORMALIZED FREE ENERGY PREDICTED BY IDOCK:   -4.40 KCAL/MOL
REMARK 922        TOTAL FREE ENERGY PREDICTED BY IDOCK:   -7.59 KCAL/MOL
REMARK 923 INTER-LIGAND FREE ENERGY PREDICTED BY IDOCK:   -7.41 KCAL/MOL
REMARK 924 INTRA-LIGAND FREE ENERGY PREDICTED BY IDOCK:   -0.18 KCAL/MOL
REMARK 927      BINDING AFFINITY PREDICTED BY RF-SCORE:    0.00 PKD
ROOT
HETATM    1  C   UNL     1     -10.630  13.231  65.961  1.00  0.00    -0.286 C  
HETATM    2  O   UNL     1     -12.460  13.896  63.266  1.00  0.00    -1.113 OA 
HETATM    3  O   UNL     1      -9.932  14.128  65.085  1.00  0.00    -0.337 OA 
HETATM    4  H   UNL     1     -13.525  12.156  64.753  1.00  0.00     0.000 HD 
HETATM    5  C   UNL     1     -10.847  15.145  64.638  1.00  0.00    -0.263 C  
HETATM    6  H   UNL     1     -13.308  13.472  63.222  1.00  0.00     0.000 HD 
HETATM    7  C   UNL     1     -12.207  14.464  64.566  1.00  0.00    -0.463 C  
HETATM    8  O   UNL     1     -12.606  12.102  64.986  1.00  0.00    -0.514 OA 
HETATM    9  C   UNL     1     -12.127  13.320  65.581  1.00  0.00    -0.441 C  
ENDROOT
BRANCH   1  10
HETATM   10  O   UNL     1     -10.464  13.634  67.323  1.00  0.00    -0.257 OA 
BRANCH  10  11
HETATM   11  C   UNL     1      -9.202  13.329  67.978  1.00  0.00    -0.217 C  
HETATM   12  O   UNL     1      -8.249  15.497  67.445  1.00  0.00    -0.151 OA 
HETATM   13  H2  UNL     1      -6.243   9.938  69.168  1.00  0.00     0.000 HD 
HETATM   14  H   UNL     1      -7.520  15.963  67.053  1.00  0.00     0.000 HD 
HETATM   15  C   UNL     1      -8.023  14.084  67.345  1.00  0.00    -0.175 C  
HETATM   16  H1  UNL     1      -7.902   9.611  69.270  1.00  0.00     0.000 HD 
HETATM   17  C   UNL     1      -6.390  12.310  68.023  1.00  0.00    -0.073 C  
HETATM   18  N   UNL     1      -5.612  14.557  67.362  1.00  0.00    -0.303 NA 
HETATM   19  N   UNL     1      -7.167  10.118  68.778  1.00  0.00    -0.078 NA 
HETATM   20  H1  UNL     1      -4.721  14.371  67.822  1.00  0.00     0.000 HD 
HETATM   21  H2  UNL     1      -5.817  15.555  67.311  1.00  0.00     0.000 HD 
HETATM   22  C   UNL     1      -7.496  11.547  68.763  1.00  0.00    -0.119 C  
HETATM   23  C   UNL     1      -6.683  13.804  68.036  1.00  0.00    -0.139 C  
HETATM   24  C   UNL     1      -8.914  11.806  68.147  1.00  0.00    -0.181 C  
BRANCH  24  25
HETATM   25  O   UNL     1      -9.994  11.104  68.820  1.00  0.00    -0.196 OA 
BRANCH  25  26
HETATM   26  C   UNL     1     -10.818  10.263  68.003  1.00  0.00    -0.275 C  
HETATM   27  O   UNL     1     -10.182   9.968  66.757  1.00  0.00    -0.217 OA 
HETATM   28  C   UNL     1      -8.986   9.190  66.913  1.00  0.00    -0.123 C  
HETATM   29  C   UNL     1      -9.338   7.804  67.471  1.00  0.00    -0.139 C  
HETATM   30  H2  UNL     1     -12.650   9.749  69.984  1.00  0.00     0.000 HD 
HETATM   31  C   UNL     1     -10.030   7.978  68.824  1.00  0.00    -0.189 C  
HETATM   32  O   UNL     1      -8.192   6.971  67.699  1.00  0.00    -0.115 OA 
HETATM   33  H1  UNL     1     -12.115   8.256  70.520  1.00  0.00     0.000 HD 
HETATM   34  H   UNL     1      -8.410   6.113  68.045  1.00  0.00     0.000 HD 
HETATM   35  H   UNL     1     -10.903   6.801  70.137  1.00  0.00     0.000 HD 
HETATM   36  N   UNL     1     -11.849   9.122  70.052  1.00  0.00     0.137 NA 
HETATM   37  O   UNL     1     -10.472   6.693  69.297  1.00  0.00    -0.188 OA 
HETATM   38  C   UNL     1     -11.225   8.938  68.720  1.00  0.00     0.373 C  
BRANCH  28  39
HETATM   39  C   UNL     1      -8.279   9.150  65.548  1.00  0.00    -0.123 C  
HETATM   40  H2  UNL     1      -6.844   7.764  66.069  1.00  0.00     0.000 HD 
HETATM   41  N   UNL     1      -6.890   8.675  65.613  1.00  0.00    -0.070 NA 
HETATM   42  H1  UNL     1      -6.422   8.649  64.707  1.00  0.00     0.000 HD 
ENDBRANCH  28  39
ENDBRANCH  25  26
ENDBRANCH  24  25
ENDBRANCH  10  11
ENDBRANCH   1  10
BRANCH   5  43
HETATM   43  C   UNL     1     -10.859  16.365  65.568  1.00  0.00    -0.215 C  
HETATM   44  O   UNL     1     -11.061  17.553  64.795  1.00  0.00    -0.959 OA 
HETATM   45  H   UNL     1     -11.068  18.308  65.370  1.00  0.00     0.000 HD 
ENDBRANCH   5  43
TORSDOF 6
ENDMDL
MODEL      211
REMARK 921   NORMALIZED FREE ENERGY PREDICTED BY IDOCK:   -4.39 KCAL/MOL
REMARK 922        TOTAL FREE ENERGY PREDICTED BY IDOCK:   -7.57 KCAL/MOL
REMARK 923 INTER-LIGAND FREE ENERGY PREDICTED BY IDOCK:   -6.34 KCAL/MOL
REMARK 924 INTRA-LIGAND FREE ENERGY PREDICTED BY IDOCK:   -1.23 KCAL/MOL
REMARK 927      BINDING AFFINITY PREDICTED BY RF-SCORE:    0.00 PKD
ROOT
HETATM    1  C   UNL     1      -9.799  10.738  67.633  1.00  0.00    -0.171 C  
HETATM    2  O   UNL     1      -8.427   7.711  67.530  1.00  0.00    -0.116 OA 
HETATM    3  O   UNL     1     -10.546   9.817  68.440  1.00  0.00    -0.208 OA 
HETATM    4  H   UNL     1      -7.298   9.338  65.964  1.00  0.00     0.000 HD 
HETATM    5  C   UNL     1      -9.626   9.032  69.220  1.00  0.00    -0.162 C  
HETATM    6  H   UNL     1      -7.650   7.622  66.992  1.00  0.00     0.000 HD 
HETATM    7  C   UNL     1      -8.380   8.890  68.357  1.00  0.00    -0.125 C  
HETATM    8  O   UNL     1      -8.161   9.719  66.082  1.00  0.00    -0.108 OA 
HETATM    9  C   UNL     1      -8.394  10.118  67.442  1.00  0.00    -0.118 C  
ENDROOT
BRANCH   1  10
HETATM   10  O   UNL     1      -9.673  11.997  68.299  1.00  0.00    -0.197 OA 
BRANCH  10  11
HETATM   11  C   UNL     1     -10.231  13.173  67.651  1.00  0.00    -0.224 C  
HETATM   12  O   UNL     1     -12.335  12.067  67.157  1.00  0.00    -0.317 OA 
HETATM   13  H2  UNL     1      -9.241  17.034  65.245  1.00  0.00     0.000 HD 
HETATM   14  H   UNL     1     -12.969  11.840  66.487  1.00  0.00     0.000 HD 
HETATM   15  C   UNL     1     -11.257  12.806  66.567  1.00  0.00    -0.307 C  
HETATM   16  H1  UNL     1      -8.180  16.582  66.486  1.00  0.00     0.000 HD 
HETATM   17  C   UNL     1     -10.797  14.903  65.277  1.00  0.00    -0.398 C  
HETATM   18  N   UNL     1     -12.843  13.587  64.861  1.00  0.00    -0.718 NA 
HETATM   19  N   UNL     1      -8.822  16.261  65.762  1.00  0.00    -0.391 NA 
HETATM   20  H1  UNL     1     -13.260  14.401  64.409  1.00  0.00     0.000 HD 
HETATM   21  H2  UNL     1     -13.548  12.955  65.240  1.00  0.00     0.000 HD 
HETATM   22  C   UNL     1      -9.831  15.385  66.367  1.00  0.00    -0.281 C  
HETATM   23  C   UNL     1     -11.883  14.029  65.887  1.00  0.00    -0.383 C  
HETATM   24  C   UNL     1      -9.169  14.196  67.145  1.00  0.00    -0.231 C  
BRANCH  24  25
HETATM   25  O   UNL     1      -8.247  14.608  68.190  1.00  0.00    -0.129 OA 
BRANCH  25  26
HETATM   26  C   UNL     1      -6.859  14.326  67.968  1.00  0.00    -0.144 C  
HETATM   27  O   UNL     1      -6.138  15.515  67.633  1.00  0.00    -0.142 OA 
HETATM   28  C   UNL     1      -6.104  16.466  68.708  1.00  0.00    -0.129 C  
HETATM   29  C   UNL     1      -5.312  15.888  69.888  1.00  0.00    -0.127 C  
HETATM   30  H2  UNL     1      -7.002  11.741  68.883  1.00  0.00     0.000 HD 
HETATM   31  C   UNL     1      -5.990  14.598  70.352  1.00  0.00    -0.165 C  
HETATM   32  O   UNL     1      -5.263  16.760  71.027  1.00  0.00    -0.207 OA 
HETATM   33  H1  UNL     1      -6.442  11.935  70.448  1.00  0.00     0.000 HD 
HETATM   34  H   UNL     1      -4.773  16.402  71.758  1.00  0.00     0.000 HD 
HETATM   35  H   UNL     1      -5.608  13.183  71.665  1.00  0.00     0.000 HD 
HETATM   36  N   UNL     1      -6.883  12.398  69.653  1.00  0.00     0.062 NA 
HETATM   37  O   UNL     1      -5.186  13.984  71.377  1.00  0.00    -0.132 OA 
HETATM   38  C   UNL     1      -6.185  13.618  69.184  1.00  0.00    -0.098 C  
BRANCH  28  39
HETATM   39  C   UNL     1      -5.520  17.774  68.147  1.00  0.00    -0.149 C  
HETATM   40  H2  UNL     1      -4.780  18.483  69.937  1.00  0.00     0.000 HD 
HETATM   41  N   UNL     1      -5.344  18.825  69.159  1.00  0.00    -0.198 NA 
HETATM   42  H1  UNL     1      -4.957  19.692  68.787  1.00  0.00     0.000 HD 
ENDBRANCH  28  39
ENDBRANCH  25  26
ENDBRANCH  24  25
ENDBRANCH  10  11
ENDBRANCH   1  10
BRANCH   5  43
HETATM   43  C   UNL     1      -9.319   9.678  70.578  1.00  0.00    -0.166 C  
HETATM   44  O   UNL     1      -8.282   8.941  71.234  1.00  0.00    -0.162 OA 
HETATM   45  H   UNL     1      -8.092   9.341  72.074  1.00  0.00     0.000 HD 
ENDBRANCH   5  43
TORSDOF 6
ENDMDL
MODEL      212
REMARK 921   NORMALIZED FREE ENERGY PREDICTED BY IDOCK:   -4.33 KCAL/MOL
REMARK 922        TOTAL FREE ENERGY PREDICTED BY IDOCK:   -7.49 KCAL/MOL
REMARK 923 INTER-LIGAND FREE ENERGY PREDICTED BY IDOCK:   -6.29 KCAL/MOL
REMARK 924 INTRA-LIGAND FREE ENERGY PREDICTED BY IDOCK:   -1.21 KCAL/MOL
REMARK 927      BINDING AFFINITY PREDICTED BY RF-SCORE:    0.00 PKD
ROOT
HETATM    1  C   UNL     1      -8.096  11.410  68.333  1.00  0.00    -0.145 C  
HETATM    2  O   UNL     1      -5.686   9.171  67.857  1.00  0.00    -0.038 OA 
HETATM    3  O   UNL     1      -7.646  10.878  69.588  1.00  0.00    -0.100 OA 
HETATM    4  H   UNL     1      -6.683   9.995  65.689  1.00  0.00     0.000 HD 
HETATM    5  C   UNL     1      -6.207  10.840  69.584  1.00  0.00    -0.079 C  
HETATM    6  H   UNL     1      -5.438   9.009  66.954  1.00  0.00     0.000 HD 
HETATM    7  C   UNL     1      -5.811  10.579  68.138  1.00  0.00    -0.043 C  
HETATM    8  O   UNL     1      -7.372  10.167  66.319  1.00  0.00    -0.102 OA 
HETATM    9  C   UNL     1      -6.973  11.131  67.307  1.00  0.00    -0.096 C  
ENDROOT
BRANCH   1  10
HETATM   10  O   UNL     1      -8.303  12.821  68.435  1.00  0.00    -0.159 OA 
BRANCH  10  11
HETATM   11  C   UNL     1      -9.612  13.349  68.084  1.00  0.00    -0.222 C  
HETATM   12  O   UNL     1      -8.776  14.471  66.101  1.00  0.00    -0.433 OA 
HETATM   13  H2  UNL     1     -13.732  14.747  69.742  1.00  0.00     0.000 HD 
HETATM   14  H   UNL     1      -8.716  15.291  65.624  1.00  0.00     0.000 HD 
HETATM   15  C   UNL     1      -9.515  14.674  67.313  1.00  0.00    -0.219 C  
HETATM   16  H1  UNL     1     -12.995  13.412  70.479  1.00  0.00     0.000 HD 
HETATM   17  C   UNL     1     -11.756  15.434  68.133  1.00  0.00    -0.276 C  
HETATM   18  N   UNL     1     -10.696  16.508  66.181  1.00  0.00    -0.217 NA 
HETATM   19  N   UNL     1     -12.853  14.302  70.003  1.00  0.00    -0.128 NA 
HETATM   20  H1  UNL     1     -11.604  16.883  65.909  1.00  0.00     0.000 HD 
HETATM   21  H2  UNL     1     -10.067  16.409  65.384  1.00  0.00     0.000 HD 
HETATM   22  C   UNL     1     -11.970  14.095  68.850  1.00  0.00    -0.341 C  
HETATM   23  C   UNL     1     -10.881  15.239  66.904  1.00  0.00    -0.317 C  
HETATM   24  C   UNL     1     -10.619  13.423  69.272  1.00  0.00     0.092 C  
BRANCH  24  25
HETATM   25  O   UNL     1     -10.774  12.148  69.954  1.00  0.00     0.343 OA 
BRANCH  25  26
HETATM   26  C   UNL     1     -11.903  11.351  69.574  1.00  0.00    -0.357 C  
HETATM   27  O   UNL     1     -11.517  10.298  68.688  1.00  0.00    -0.212 OA 
HETATM   28  C   UNL     1     -10.643   9.342  69.307  1.00  0.00    -0.222 C  
HETATM   29  C   UNL     1     -11.389   8.608  70.430  1.00  0.00    -0.187 C  
HETATM   30  H2  UNL     1     -13.616  12.506  71.384  1.00  0.00     0.000 HD 
HETATM   31  C   UNL     1     -11.858   9.634  71.462  1.00  0.00    -0.407 C  
HETATM   32  O   UNL     1     -10.573   7.659  71.133  1.00  0.00    -0.220 OA 
HETATM   33  H1  UNL     1     -13.567  11.378  72.619  1.00  0.00     0.000 HD 
HETATM   34  H   UNL     1     -11.035   7.205  71.828  1.00  0.00     0.000 HD 
HETATM   35  H   UNL     1     -12.954   9.609  73.096  1.00  0.00     0.000 HD 
HETATM   36  N   UNL     1     -13.069  11.763  71.817  1.00  0.00    -0.445 NA 
HETATM   37  O   UNL     1     -12.662   8.972  72.455  1.00  0.00    -0.392 OA 
HETATM   38  C   UNL     1     -12.666  10.762  70.802  1.00  0.00    -0.360 C  
BRANCH  28  39
HETATM   39  C   UNL     1     -10.116   8.413  68.199  1.00  0.00    -0.200 C  
HETATM   40  H2  UNL     1      -9.696   9.898  66.831  1.00  0.00     0.000 HD 
HETATM   41  N   UNL     1     -10.180   9.001  66.854  1.00  0.00    -0.260 NA 
HETATM   42  H1  UNL     1      -9.830   8.385  66.120  1.00  0.00     0.000 HD 
ENDBRANCH  28  39
ENDBRANCH  25  26
ENDBRANCH  24  25
ENDBRANCH  10  11
ENDBRANCH   1  10
BRANCH   5  43
HETATM   43  C   UNL     1      -5.591  12.135  70.129  1.00  0.00    -0.140 C  
HETATM   44  O   UNL     1      -5.729  12.168  71.553  1.00  0.00    -0.408 OA 
HETATM   45  H   UNL     1      -5.348  12.970  71.891  1.00  0.00     0.000 HD 
ENDBRANCH   5  43
TORSDOF 6
ENDMDL
MODEL      213
REMARK 921   NORMALIZED FREE ENERGY PREDICTED BY IDOCK:   -4.32 KCAL/MOL
REMARK 922        TOTAL FREE ENERGY PREDICTED BY IDOCK:   -7.48 KCAL/MOL
REMARK 923 INTER-LIGAND FREE ENERGY PREDICTED BY IDOCK:   -5.74 KCAL/MOL
REMARK 924 INTRA-LIGAND FREE ENERGY PREDICTED BY IDOCK:   -1.74 KCAL/MOL
REMARK 927      BINDING AFFINITY PREDICTED BY RF-SCORE:    0.00 PKD
ROOT
HETATM    1  C   UNL     1      -9.213   4.637  68.989  1.00  0.00    -0.129 C  
HETATM    2  O   UNL     1     -10.003   3.265  66.066  1.00  0.00    -0.399 OA 
HETATM    3  O   UNL     1      -8.757   3.277  68.930  1.00  0.00    -0.081 OA 
HETATM    4  H   UNL     1     -10.959   5.586  66.335  1.00  0.00     0.000 HD 
HETATM    5  C   UNL     1      -8.136   3.053  67.651  1.00  0.00    -0.079 C  
HETATM    6  H   UNL     1     -10.471   3.822  65.455  1.00  0.00     0.000 HD 
HETATM    7  C   UNL     1      -8.887   3.946  66.673  1.00  0.00    -0.126 C  
HETATM    8  O   UNL     1     -10.823   5.306  67.233  1.00  0.00    -0.130 OA 
HETATM    9  C   UNL     1      -9.433   5.092  67.528  1.00  0.00    -0.133 C  
ENDROOT
BRANCH   1  10
HETATM   10  O   UNL     1      -8.223   5.468  69.599  1.00  0.00    -0.098 OA 
BRANCH  10  11
HETATM   11  C   UNL     1      -8.298   5.683  71.036  1.00  0.00    -0.122 C  
HETATM   12  O   UNL     1      -6.809   3.829  71.524  1.00  0.00    -0.029 OA 
HETATM   13  H2  UNL     1     -10.948   7.260  74.524  1.00  0.00     0.000 HD 
HETATM   14  H   UNL     1      -6.685   3.024  72.014  1.00  0.00     0.000 HD 
HETATM   15  C   UNL     1      -8.097   4.381  71.827  1.00  0.00    -0.097 C  
HETATM   16  H1  UNL     1     -10.993   8.101  73.054  1.00  0.00     0.000 HD 
HETATM   17  C   UNL     1      -9.465   5.219  73.751  1.00  0.00    -0.133 C  
HETATM   18  N   UNL     1      -7.951   3.288  74.023  1.00  0.00    -0.069 NA 
HETATM   19  N   UNL     1     -10.885   7.194  73.508  1.00  0.00    -0.336 NA 
HETATM   20  H1  UNL     1      -7.982   3.423  75.034  1.00  0.00     0.000 HD 
HETATM   21  H2  UNL     1      -7.096   2.820  73.723  1.00  0.00     0.000 HD 
HETATM   22  C   UNL     1      -9.627   6.582  73.067  1.00  0.00    -0.149 C  
HETATM   23  C   UNL     1      -8.143   4.582  73.346  1.00  0.00    -0.095 C  
HETATM   24  C   UNL     1      -9.554   6.478  71.505  1.00  0.00    -0.161 C  
BRANCH  24  25
HETATM   25  O   UNL     1      -9.701   7.748  70.815  1.00  0.00    -0.173 OA 
BRANCH  25  26
HETATM   26  C   UNL     1     -10.746   7.830  69.837  1.00  0.00    -0.245 C  
HETATM   27  O   UNL     1     -12.002   8.134  70.447  1.00  0.00    -0.027 OA 
HETATM   28  C   UNL     1     -12.027   9.436  71.052  1.00  0.00    -0.315 C  
HETATM   29  C   UNL     1     -11.886  10.514  69.969  1.00  0.00    -0.308 C  
HETATM   30  H2  UNL     1      -9.047   7.726  67.681  1.00  0.00     0.000 HD 
HETATM   31  C   UNL     1     -10.562  10.304  69.233  1.00  0.00    -0.230 C  
HETATM   32  O   UNL     1     -11.859  11.850  70.492  1.00  0.00    -0.481 OA 
HETATM   33  H1  UNL     1      -8.926   9.352  67.304  1.00  0.00     0.000 HD 
HETATM   34  H   UNL     1     -11.772  12.518  69.821  1.00  0.00     0.000 HD 
HETATM   35  H   UNL     1      -9.655  11.102  67.680  1.00  0.00     0.000 HD 
HETATM   36  N   UNL     1      -9.128   8.677  68.041  1.00  0.00    -0.140 NA 
HETATM   37  O   UNL     1     -10.478  11.233  68.137  1.00  0.00    -0.177 OA 
HETATM   38  C   UNL     1     -10.437   8.864  68.710  1.00  0.00    -0.200 C  
BRANCH  28  39
HETATM   39  C   UNL     1     -13.326   9.540  71.869  1.00  0.00    -0.437 C  
HETATM   40  H2  UNL     1     -13.116   7.749  72.870  1.00  0.00     0.000 HD 
HETATM   41  N   UNL     1     -13.834   8.245  72.342  1.00  0.00    -0.589 NA 
HETATM   42  H1  UNL     1     -14.695   8.315  72.885  1.00  0.00     0.000 HD 
ENDBRANCH  28  39
ENDBRANCH  25  26
ENDBRANCH  24  25
ENDBRANCH  10  11
ENDBRANCH   1  10
BRANCH   5  43
HETATM   43  C   UNL     1      -6.632   3.357  67.674  1.00  0.00    -0.038 C  
HETATM   44  O   UNL     1      -5.897   2.128  67.682  1.00  0.00    -0.018 OA 
HETATM   45  H   UNL     1      -4.966   2.316  67.697  1.00  0.00     0.000 HD 
ENDBRANCH   5  43
TORSDOF 6
ENDMDL
MODEL      214
REMARK 921   NORMALIZED FREE ENERGY PREDICTED BY IDOCK:   -4.29 KCAL/MOL
REMARK 922        TOTAL FREE ENERGY PREDICTED BY IDOCK:   -7.44 KCAL/MOL
REMARK 923 INTER-LIGAND FREE ENERGY PREDICTED BY IDOCK:   -6.53 KCAL/MOL
REMARK 924 INTRA-LIGAND FREE ENERGY PREDICTED BY IDOCK:   -0.91 KCAL/MOL
REMARK 927      BINDING AFFINITY PREDICTED BY RF-SCORE:    0.00 PKD
ROOT
HETATM    1  C   UNL     1     -10.903   8.871  68.048  1.00  0.00    -0.016 C  
HETATM    2  O   UNL     1     -11.726  11.729  66.562  1.00  0.00    -0.530 OA 
HETATM    3  O   UNL     1     -10.637   8.803  66.640  1.00  0.00    -0.226 OA 
HETATM    4  H   UNL     1     -12.365  11.690  69.004  1.00  0.00     0.000 HD 
HETATM    5  C   UNL     1      -9.989  10.021  66.231  1.00  0.00    -0.245 C  
HETATM    6  H   UNL     1     -12.081  12.406  67.125  1.00  0.00     0.000 HD 
HETATM    7  C   UNL     1     -10.559  11.106  67.134  1.00  0.00    -0.244 C  
HETATM    8  O   UNL     1     -12.315  10.768  68.782  1.00  0.00    -0.435 OA 
HETATM    9  C   UNL     1     -10.984  10.373  68.409  1.00  0.00    -0.264 C  
ENDROOT
BRANCH   1  10
HETATM   10  O   UNL     1      -9.840   8.264  68.786  1.00  0.00    -0.165 OA 
BRANCH  10  11
HETATM   11  C   UNL     1     -10.135   7.061  69.548  1.00  0.00    -0.173 C  
HETATM   12  O   UNL     1     -12.236   7.944  70.383  1.00  0.00    -0.473 OA 
HETATM   13  H2  UNL     1      -8.296   3.437  71.819  1.00  0.00     0.000 HD 
HETATM   14  H   UNL     1     -12.766   8.125  71.151  1.00  0.00     0.000 HD 
HETATM   15  C   UNL     1     -10.992   7.355  70.788  1.00  0.00    -0.255 C  
HETATM   16  H1  UNL     1      -7.527   3.953  70.400  1.00  0.00     0.000 HD 
HETATM   17  C   UNL     1     -10.072   5.377  72.020  1.00  0.00    -0.240 C  
HETATM   18  N   UNL     1     -12.155   6.472  72.765  1.00  0.00    -0.442 NA 
HETATM   19  N   UNL     1      -8.067   4.230  71.220  1.00  0.00    -0.080 NA 
HETATM   20  H1  UNL     1     -12.388   5.636  73.300  1.00  0.00     0.000 HD 
HETATM   21  H2  UNL     1     -12.985   7.005  72.504  1.00  0.00     0.000 HD 
HETATM   22  C   UNL     1      -9.261   4.962  70.786  1.00  0.00    -0.145 C  
HETATM   23  C   UNL     1     -11.343   6.099  71.594  1.00  0.00    -0.284 C  
HETATM   24  C   UNL     1      -8.889   6.184  69.878  1.00  0.00    -0.140 C  
BRANCH  24  25
HETATM   25  O   UNL     1      -8.120   5.836  68.695  1.00  0.00    -0.100 OA 
BRANCH  25  26
HETATM   26  C   UNL     1      -8.278   4.501  68.197  1.00  0.00    -0.090 C  
HETATM   27  O   UNL     1      -9.539   4.341  67.542  1.00  0.00    -0.166 OA 
HETATM   28  C   UNL     1      -9.656   5.141  66.356  1.00  0.00    -0.161 C  
HETATM   29  C   UNL     1      -8.644   4.663  65.306  1.00  0.00    -0.133 C  
HETATM   30  H2  UNL     1      -5.679   3.765  68.692  1.00  0.00     0.000 HD 
HETATM   31  C   UNL     1      -7.234   4.790  65.885  1.00  0.00    -0.076 C  
HETATM   32  O   UNL     1      -8.663   5.439  64.098  1.00  0.00    -0.301 OA 
HETATM   33  H1  UNL     1      -5.005   3.971  67.174  1.00  0.00     0.000 HD 
HETATM   34  H   UNL     1      -8.037   5.144  63.448  1.00  0.00     0.000 HD 
HETATM   35  H   UNL     1      -5.413   4.310  65.316  1.00  0.00     0.000 HD 
HETATM   36  N   UNL     1      -5.761   4.250  67.799  1.00  0.00    -0.021 NA 
HETATM   37  O   UNL     1      -6.289   4.232  64.955  1.00  0.00    -0.032 OA 
HETATM   38  C   UNL     1      -7.121   4.074  67.240  1.00  0.00    -0.063 C  
BRANCH  28  39
HETATM   39  C   UNL     1     -11.120   5.064  65.890  1.00  0.00     0.201 C  
HETATM   40  H2  UNL     1     -10.998   3.184  65.050  1.00  0.00     0.000 HD 
HETATM   41  N   UNL     1     -11.344   4.109  64.796  1.00  0.00    -0.962 NA 
HETATM   42  H1  UNL     1     -12.315   4.058  64.487  1.00  0.00     0.000 HD 
ENDBRANCH  28  39
ENDBRANCH  25  26
ENDBRANCH  24  25
ENDBRANCH  10  11
ENDBRANCH   1  10
BRANCH   5  43
HETATM   43  C   UNL     1      -8.461   9.928  66.332  1.00  0.00    -0.124 C  
HETATM   44  O   UNL     1      -7.928  11.202  66.707  1.00  0.00    -0.144 OA 
HETATM   45  H   UNL     1      -6.982  11.145  66.769  1.00  0.00     0.000 HD 
ENDBRANCH   5  43
TORSDOF 6
ENDMDL
MODEL      215
REMARK 921   NORMALIZED FREE ENERGY PREDICTED BY IDOCK:   -4.29 KCAL/MOL
REMARK 922        TOTAL FREE ENERGY PREDICTED BY IDOCK:   -7.44 KCAL/MOL
REMARK 923 INTER-LIGAND FREE ENERGY PREDICTED BY IDOCK:   -6.18 KCAL/MOL
REMARK 924 INTRA-LIGAND FREE ENERGY PREDICTED BY IDOCK:   -1.26 KCAL/MOL
REMARK 927      BINDING AFFINITY PREDICTED BY RF-SCORE:    0.00 PKD
ROOT
HETATM    1  C   UNL     1      -8.584  10.030  67.089  1.00  0.00    -0.128 C  
HETATM    2  O   UNL     1      -5.344  10.775  67.058  1.00  0.00    -0.041 OA 
HETATM    3  O   UNL     1      -8.059   9.942  65.757  1.00  0.00    -0.116 OA 
HETATM    4  H   UNL     1      -6.394  11.118  69.328  1.00  0.00     0.000 HD 
HETATM    5  C   UNL     1      -6.800   9.244  65.802  1.00  0.00    -0.084 C  
HETATM    6  H   UNL     1      -4.959  11.000  67.896  1.00  0.00     0.000 HD 
HETATM    7  C   UNL     1      -6.183   9.606  67.145  1.00  0.00    -0.064 C  
HETATM    8  O   UNL     1      -7.136  11.175  68.739  1.00  0.00    -0.078 OA 
HETATM    9  C   UNL     1      -7.374   9.938  68.048  1.00  0.00    -0.084 C  
ENDROOT
BRANCH   1  10
HETATM   10  O   UNL     1      -9.476   8.943  67.347  1.00  0.00    -0.139 OA 
BRANCH  10  11
HETATM   11  C   UNL     1     -10.422   9.079  68.443  1.00  0.00    -0.192 C  
HETATM   12  O   UNL     1     -11.561  10.954  67.403  1.00  0.00    -0.509 OA 
HETATM   13  H2  UNL     1     -11.092   8.449  73.007  1.00  0.00     0.000 HD 
HETATM   14  H   UNL     1     -11.864  11.848  67.506  1.00  0.00     0.000 HD 
HETATM   15  C   UNL     1     -10.913  10.525  68.609  1.00  0.00    -0.248 C  
HETATM   16  H1  UNL     1     -10.189   7.283  72.172  1.00  0.00     0.000 HD 
HETATM   17  C   UNL     1     -11.346  10.206  71.055  1.00  0.00    -0.385 C  
HETATM   18  N   UNL     1     -12.344  12.104  69.834  1.00  0.00    -0.126 NA 
HETATM   19  N   UNL     1     -10.442   8.269  72.242  1.00  0.00    -0.295 NA 
HETATM   20  H1  UNL     1     -13.024  12.215  70.585  1.00  0.00     0.000 HD 
HETATM   21  H2  UNL     1     -12.691  12.465  68.945  1.00  0.00     0.000 HD 
HETATM   22  C   UNL     1     -10.964   8.724  70.950  1.00  0.00    -0.262 C  
HETATM   23  C   UNL     1     -11.936  10.692  69.739  1.00  0.00    -0.291 C  
HETATM   24  C   UNL     1      -9.947   8.452  69.789  1.00  0.00    -0.191 C  
BRANCH  24  25
HETATM   25  O   UNL     1      -9.559   7.059  69.651  1.00  0.00    -0.151 OA 
BRANCH  25  26
HETATM   26  C   UNL     1     -10.619   6.113  69.465  1.00  0.00    -0.287 C  
HETATM   27  O   UNL     1     -10.731   5.726  68.093  1.00  0.00    -0.240 OA 
HETATM   28  C   UNL     1      -9.579   5.012  67.620  1.00  0.00    -0.146 C  
HETATM   29  C   UNL     1      -9.457   3.673  68.360  1.00  0.00    -0.150 C  
HETATM   30  H2  UNL     1     -11.046   5.719  72.149  1.00  0.00     0.000 HD 
HETATM   31  C   UNL     1      -9.324   3.948  69.858  1.00  0.00    -0.174 C  
HETATM   32  O   UNL     1      -8.303   2.910  67.978  1.00  0.00    -0.075 OA 
HETATM   33  H1  UNL     1     -10.183   4.306  72.396  1.00  0.00     0.000 HD 
HETATM   34  H   UNL     1      -8.228   2.081  68.436  1.00  0.00     0.000 HD 
HETATM   35  H   UNL     1      -9.250   2.869  71.502  1.00  0.00     0.000 HD 
HETATM   36  N   UNL     1     -10.284   5.133  71.808  1.00  0.00    -0.203 NA 
HETATM   37  O   UNL     1      -9.332   2.698  70.571  1.00  0.00    -0.125 OA 
HETATM   38  C   UNL     1     -10.463   4.847  70.365  1.00  0.00    -0.094 C  
BRANCH  28  39
HETATM   39  C   UNL     1      -9.718   4.870  66.095  1.00  0.00    -0.190 C  
HETATM   40  H2  UNL     1     -11.653   5.574  65.971  1.00  0.00     0.000 HD 
HETATM   41  N   UNL     1     -11.110   4.780  65.633  1.00  0.00    -0.926 NA 
HETATM   42  H1  UNL     1     -11.202   4.685  64.621  1.00  0.00     0.000 HD 
ENDBRANCH  28  39
ENDBRANCH  25  26
ENDBRANCH  24  25
ENDBRANCH  10  11
ENDBRANCH   1  10
BRANCH   5  43
HETATM   43  C   UNL     1      -6.971   7.729  65.632  1.00  0.00    -0.053 C  
HETATM   44  O   UNL     1      -8.115   7.466  64.812  1.00  0.00    -0.131 OA 
HETATM   45  H   UNL     1      -8.220   6.528  64.707  1.00  0.00     0.000 HD 
ENDBRANCH   5  43
TORSDOF 6
ENDMDL
MODEL      216
REMARK 921   NORMALIZED FREE ENERGY PREDICTED BY IDOCK:   -4.28 KCAL/MOL
REMARK 922        TOTAL FREE ENERGY PREDICTED BY IDOCK:   -7.43 KCAL/MOL
REMARK 923 INTER-LIGAND FREE ENERGY PREDICTED BY IDOCK:   -6.75 KCAL/MOL
REMARK 924 INTRA-LIGAND FREE ENERGY PREDICTED BY IDOCK:   -0.67 KCAL/MOL
REMARK 927      BINDING AFFINITY PREDICTED BY RF-SCORE:    0.00 PKD
ROOT
HETATM    1  C   UNL     1     -11.523  13.986  69.809  1.00  0.00    -0.230 C  
HETATM    2  O   UNL     1     -13.059  16.327  71.600  1.00  0.00    -0.349 OA 
HETATM    3  O   UNL     1     -11.581  13.607  71.191  1.00  0.00     0.210 OA 
HETATM    4  H   UNL     1     -12.722  17.015  69.195  1.00  0.00     0.000 HD 
HETATM    5  C   UNL     1     -12.904  13.876  71.690  1.00  0.00    -0.349 C  
HETATM    6  H   UNL     1     -13.360  17.090  71.121  1.00  0.00     0.000 HD 
HETATM    7  C   UNL     1     -13.386  15.099  70.922  1.00  0.00    -0.408 C  
HETATM    8  O   UNL     1     -12.052  16.355  69.323  1.00  0.00    -0.005 OA 
HETATM    9  C   UNL     1     -12.615  15.062  69.600  1.00  0.00    -0.064 C  
ENDROOT
BRANCH   1  10
HETATM   10  O   UNL     1     -11.801  12.861  68.971  1.00  0.00    -0.299 OA 
BRANCH  10  11
HETATM   11  C   UNL     1     -10.870  12.561  67.895  1.00  0.00    -0.222 C  
HETATM   12  O   UNL     1     -10.513  14.904  67.371  1.00  0.00    -0.250 OA 
HETATM   13  H2  UNL     1      -9.662   9.447  64.651  1.00  0.00     0.000 HD 
HETATM   14  H   UNL     1     -10.519  15.571  66.695  1.00  0.00     0.000 HD 
HETATM   15  C   UNL     1     -10.880  13.641  66.801  1.00  0.00    -0.290 C  
HETATM   16  H1  UNL     1     -10.187   8.862  66.152  1.00  0.00     0.000 HD 
HETATM   17  C   UNL     1     -10.169  12.007  65.040  1.00  0.00    -0.308 C  
HETATM   18  N   UNL     1      -9.966  14.438  64.664  1.00  0.00    -0.613 NA 
HETATM   19  N   UNL     1     -10.274   9.600  65.453  1.00  0.00    -0.050 NA 
HETATM   20  H1  UNL     1      -9.304  14.254  63.911  1.00  0.00     0.000 HD 
HETATM   21  H2  UNL     1      -9.832  15.362  65.077  1.00  0.00     0.000 HD 
HETATM   22  C   UNL     1     -10.040  10.899  66.092  1.00  0.00    -0.239 C  
HETATM   23  C   UNL     1      -9.884  13.364  65.669  1.00  0.00    -0.163 C  
HETATM   24  C   UNL     1     -10.998  11.121  67.313  1.00  0.00    -0.296 C  
BRANCH  24  25
HETATM   25  O   UNL     1     -10.907  10.093  68.337  1.00  0.00    -0.219 OA 
BRANCH  25  26
HETATM   26  C   UNL     1     -10.361  10.493  69.600  1.00  0.00    -0.193 C  
HETATM   27  O   UNL     1     -11.258  10.190  70.670  1.00  0.00    -0.305 OA 
HETATM   28  C   UNL     1     -11.464   8.780  70.842  1.00  0.00    -0.284 C  
HETATM   29  C   UNL     1     -10.151   8.113  71.277  1.00  0.00    -0.195 C  
HETATM   30  H2  UNL     1      -7.866  11.059  68.600  1.00  0.00     0.000 HD 
HETATM   31  C   UNL     1      -9.092   8.361  70.202  1.00  0.00    -0.150 C  
HETATM   32  O   UNL     1     -10.256   6.690  71.431  1.00  0.00    -0.198 OA 
HETATM   33  H1  UNL     1      -7.050   9.650  68.990  1.00  0.00     0.000 HD 
HETATM   34  H   UNL     1      -9.443   6.278  71.700  1.00  0.00     0.000 HD 
HETATM   35  H   UNL     1      -7.170   8.001  69.988  1.00  0.00     0.000 HD 
HETATM   36  N   UNL     1      -7.964  10.065  68.806  1.00  0.00    -0.092 NA 
HETATM   37  O   UNL     1      -7.828   7.846  70.656  1.00  0.00    -0.091 OA 
HETATM   38  C   UNL     1      -8.963   9.858  69.880  1.00  0.00    -0.202 C  
BRANCH  28  39
HETATM   39  C   UNL     1     -12.616   8.599  71.845  1.00  0.00    -0.359 C  
HETATM   40  H2  UNL     1     -14.060   8.112  70.456  1.00  0.00     0.000 HD 
HETATM   41  N   UNL     1     -13.950   8.746  71.248  1.00  0.00    -0.585 NA 
HETATM   42  H1  UNL     1     -14.714   8.626  71.913  1.00  0.00     0.000 HD 
ENDBRANCH  28  39
ENDBRANCH  25  26
ENDBRANCH  24  25
ENDBRANCH  10  11
ENDBRANCH   1  10
BRANCH   5  43
HETATM   43  C   UNL     1     -13.844  12.676  71.517  1.00  0.00     0.669 C  
HETATM   44  O   UNL     1     -13.317  11.550  72.228  1.00  0.00    -0.624 OA 
HETATM   45  H   UNL     1     -13.899  10.807  72.121  1.00  0.00     0.000 HD 
ENDBRANCH   5  43
TORSDOF 6
ENDMDL
MODEL      217
REMARK 921   NORMALIZED FREE ENERGY PREDICTED BY IDOCK:   -4.28 KCAL/MOL
REMARK 922        TOTAL FREE ENERGY PREDICTED BY IDOCK:   -7.42 KCAL/MOL
REMARK 923 INTER-LIGAND FREE ENERGY PREDICTED BY IDOCK:   -6.42 KCAL/MOL
REMARK 924 INTRA-LIGAND FREE ENERGY PREDICTED BY IDOCK:   -1.00 KCAL/MOL
REMARK 927      BINDING AFFINITY PREDICTED BY RF-SCORE:    0.00 PKD
ROOT
HETATM    1  C   UNL     1      -8.025   9.688  65.364  1.00  0.00    -0.120 C  
HETATM    2  O   UNL     1      -7.421   6.425  65.152  1.00  0.00    -0.074 OA 
HETATM    3  O   UNL     1      -6.659   9.450  64.995  1.00  0.00    -0.079 OA 
HETATM    4  H   UNL     1      -9.743   6.926  66.007  1.00  0.00     0.000 HD 
HETATM    5  C   UNL     1      -6.624   8.432  63.978  1.00  0.00    -0.071 C  
HETATM    6  H   UNL     1      -8.154   5.852  65.343  1.00  0.00     0.000 HD 
HETATM    7  C   UNL     1      -7.798   7.512  64.284  1.00  0.00    -0.133 C  
HETATM    8  O   UNL     1      -9.265   7.721  66.212  1.00  0.00    -0.178 OA 
HETATM    9  C   UNL     1      -8.804   8.394  65.029  1.00  0.00     0.017 C  
ENDROOT
BRANCH   1  10
HETATM   10  O   UNL     1      -8.564  10.773  64.605  1.00  0.00    -0.154 OA 
BRANCH  10  11
HETATM   11  C   UNL     1      -9.945  11.160  64.850  1.00  0.00    -0.278 C  
HETATM   12  O   UNL     1     -10.454  11.334  62.483  1.00  0.00    -0.487 OA 
HETATM   13  H2  UNL     1     -12.848  13.275  67.812  1.00  0.00     0.000 HD 
HETATM   14  H   UNL     1     -10.801  11.882  61.788  1.00  0.00     0.000 HD 
HETATM   15  C   UNL     1     -10.506  12.046  63.726  1.00  0.00    -0.429 C  
HETATM   16  H1  UNL     1     -11.600  12.333  68.465  1.00  0.00     0.000 HD 
HETATM   17  C   UNL     1     -12.125  13.163  65.277  1.00  0.00    -0.471 C  
HETATM   18  N   UNL     1     -12.422  13.297  62.830  1.00  0.00    -0.775 NA 
HETATM   19  N   UNL     1     -11.890  12.943  67.700  1.00  0.00    -0.362 NA 
HETATM   20  H1  UNL     1     -13.396  13.561  62.975  1.00  0.00     0.000 HD 
HETATM   21  H2  UNL     1     -12.274  12.854  61.923  1.00  0.00     0.000 HD 
HETATM   22  C   UNL     1     -11.688  12.246  66.426  1.00  0.00    -0.365 C  
HETATM   23  C   UNL     1     -11.970  12.445  63.943  1.00  0.00    -0.486 C  
HETATM   24  C   UNL     1     -10.208  11.755  66.266  1.00  0.00    -0.221 C  
BRANCH  24  25
HETATM   25  O   UNL     1      -9.751  10.880  67.334  1.00  0.00    -0.166 OA 
BRANCH  25  26
HETATM   26  C   UNL     1      -9.302  11.517  68.536  1.00  0.00    -0.170 C  
HETATM   27  O   UNL     1      -9.682  10.765  69.691  1.00  0.00    -0.080 OA 
HETATM   28  C   UNL     1      -9.047   9.480  69.753  1.00  0.00    -0.205 C  
HETATM   29  C   UNL     1      -7.532   9.657  69.925  1.00  0.00    -0.127 C  
HETATM   30  H2  UNL     1      -7.747  13.375  67.243  1.00  0.00     0.000 HD 
HETATM   31  C   UNL     1      -6.991  10.452  68.736  1.00  0.00    -0.068 C  
HETATM   32  O   UNL     1      -6.810   8.417  69.954  1.00  0.00    -0.042 OA 
HETATM   33  H1  UNL     1      -6.240  12.660  67.371  1.00  0.00     0.000 HD 
HETATM   34  H   UNL     1      -5.873   8.527  70.060  1.00  0.00     0.000 HD 
HETATM   35  H   UNL     1      -5.258  11.223  68.211  1.00  0.00     0.000 HD 
HETATM   36  N   UNL     1      -7.246  12.496  67.364  1.00  0.00    -0.149 NA 
HETATM   37  O   UNL     1      -5.595  10.729  68.949  1.00  0.00    -0.041 OA 
HETATM   38  C   UNL     1      -7.762  11.768  68.547  1.00  0.00    -0.137 C  
BRANCH  28  39
HETATM   39  C   UNL     1      -9.714   8.689  70.892  1.00  0.00    -0.204 C  
HETATM   40  H2  UNL     1      -8.401   7.099  70.871  1.00  0.00     0.000 HD 
HETATM   41  N   UNL     1      -9.409   7.252  70.873  1.00  0.00    -0.159 NA 
HETATM   42  H1  UNL     1      -9.852   6.728  71.628  1.00  0.00     0.000 HD 
ENDBRANCH  28  39
ENDBRANCH  25  26
ENDBRANCH  24  25
ENDBRANCH  10  11
ENDBRANCH   1  10
BRANCH   5  43
HETATM   43  C   UNL     1      -6.705   9.022  62.564  1.00  0.00    -0.093 C  
HETATM   44  O   UNL     1      -6.087  10.314  62.549  1.00  0.00    -0.116 OA 
HETATM   45  H   UNL     1      -6.137  10.679  61.674  1.00  0.00     0.000 HD 
ENDBRANCH   5  43
TORSDOF 6
ENDMDL
MODEL      218
REMARK 921   NORMALIZED FREE ENERGY PREDICTED BY IDOCK:   -4.24 KCAL/MOL
REMARK 922        TOTAL FREE ENERGY PREDICTED BY IDOCK:   -7.37 KCAL/MOL
REMARK 923 INTER-LIGAND FREE ENERGY PREDICTED BY IDOCK:   -7.98 KCAL/MOL
REMARK 924 INTRA-LIGAND FREE ENERGY PREDICTED BY IDOCK:    0.60 KCAL/MOL
REMARK 927      BINDING AFFINITY PREDICTED BY RF-SCORE:    0.00 PKD
ROOT
HETATM    1  C   UNL     1      -9.032  12.612  67.233  1.00  0.00    -0.194 C  
HETATM    2  O   UNL     1     -12.108  11.356  67.354  1.00  0.00    -0.533 OA 
HETATM    3  O   UNL     1      -9.263  11.735  66.121  1.00  0.00    -0.219 OA 
HETATM    4  H   UNL     1     -11.547  12.740  69.390  1.00  0.00     0.000 HD 
HETATM    5  C   UNL     1     -10.560  12.024  65.566  1.00  0.00    -0.273 C  
HETATM    6  H   UNL     1     -12.643  11.632  68.088  1.00  0.00     0.000 HD 
HETATM    7  C   UNL     1     -11.417  12.464  66.743  1.00  0.00    -0.362 C  
HETATM    8  O   UNL     1     -10.693  12.483  69.064  1.00  0.00    -0.195 OA 
HETATM    9  C   UNL     1     -10.425  13.030  67.762  1.00  0.00    -0.228 C  
ENDROOT
BRANCH   1  10
HETATM   10  O   UNL     1      -8.320  13.777  66.809  1.00  0.00    -0.078 OA 
BRANCH  10  11
HETATM   11  C   UNL     1      -7.331  14.342  67.714  1.00  0.00    -0.173 C  
HETATM   12  O   UNL     1      -6.778  12.182  68.671  1.00  0.00    -0.069 OA 
HETATM   13  H2  UNL     1      -6.094  18.122  70.134  1.00  0.00     0.000 HD 
HETATM   14  H   UNL     1      -6.687  11.671  69.468  1.00  0.00     0.000 HD 
HETATM   15  C   UNL     1      -7.185  13.516  69.001  1.00  0.00    -0.031 C  
HETATM   16  H1  UNL     1      -6.771  18.353  68.597  1.00  0.00     0.000 HD 
HETATM   17  C   UNL     1      -6.455  15.515  70.322  1.00  0.00     0.039 C  
HETATM   18  N   UNL     1      -6.060  13.230  71.167  1.00  0.00    -0.545 NA 
HETATM   19  N   UNL     1      -6.753  17.775  69.438  1.00  0.00    -0.219 NA 
HETATM   20  H1  UNL     1      -5.357  13.601  71.805  1.00  0.00     0.000 HD 
HETATM   21  H2  UNL     1      -5.896  12.249  70.942  1.00  0.00     0.000 HD 
HETATM   22  C   UNL     1      -6.482  16.384  69.059  1.00  0.00    -0.171 C  
HETATM   23  C   UNL     1      -6.127  14.073  69.962  1.00  0.00    -0.148 C  
HETATM   24  C   UNL     1      -7.512  15.864  67.999  1.00  0.00    -0.126 C  
BRANCH  24  25
HETATM   25  O   UNL     1      -7.569  16.658  66.783  1.00  0.00    -0.202 OA 
BRANCH  25  26
HETATM   26  C   UNL     1      -8.875  16.987  66.292  1.00  0.00    -0.254 C  
HETATM   27  O   UNL     1      -9.894  16.372  67.083  1.00  0.00    -0.240 OA 
HETATM   28  C   UNL     1      -9.925  16.863  68.431  1.00  0.00    -0.275 C  
HETATM   29  C   UNL     1     -10.318  18.347  68.434  1.00  0.00    -0.327 C  
HETATM   30  H2  UNL     1      -7.980  18.887  64.522  1.00  0.00     0.000 HD 
HETATM   31  C   UNL     1      -9.291  19.130  67.615  1.00  0.00    -0.303 C  
HETATM   32  O   UNL     1     -10.332  18.932  69.745  1.00  0.00    -0.232 OA 
HETATM   33  H1  UNL     1      -8.247  20.283  65.406  1.00  0.00     0.000 HD 
HETATM   34  H   UNL     1     -10.575  19.851  69.746  1.00  0.00     0.000 HD 
HETATM   35  H   UNL     1      -9.079  20.987  67.001  1.00  0.00     0.000 HD 
HETATM   36  N   UNL     1      -8.088  19.277  65.458  1.00  0.00    -0.248 NA 
HETATM   37  O   UNL     1      -9.717  20.501  67.510  1.00  0.00    -0.430 OA 
HETATM   38  C   UNL     1      -9.118  18.527  66.212  1.00  0.00    -0.207 C  
BRANCH  28  39
HETATM   39  C   UNL     1     -10.885  15.963  69.229  1.00  0.00    -0.276 C  
HETATM   40  H2  UNL     1     -11.732  17.469  70.356  1.00  0.00     0.000 HD 
HETATM   41  N   UNL     1     -11.322  16.547  70.504  1.00  0.00    -0.496 NA 
HETATM   42  H1  UNL     1     -11.959  15.950  71.033  1.00  0.00     0.000 HD 
ENDBRANCH  28  39
ENDBRANCH  25  26
ENDBRANCH  24  25
ENDBRANCH  10  11
ENDBRANCH   1  10
BRANCH   5  43
HETATM   43  C   UNL     1     -10.494  13.091  64.465  1.00  0.00    -0.392 C  
HETATM   44  O   UNL     1     -10.840  12.502  63.207  1.00  0.00    -0.571 OA 
HETATM   45  H   UNL     1     -10.800  13.162  62.526  1.00  0.00     0.000 HD 
ENDBRANCH   5  43
TORSDOF 6
ENDMDL
MODEL      219
REMARK 921   NORMALIZED FREE ENERGY PREDICTED BY IDOCK:   -4.24 KCAL/MOL
REMARK 922        TOTAL FREE ENERGY PREDICTED BY IDOCK:   -7.37 KCAL/MOL
REMARK 923 INTER-LIGAND FREE ENERGY PREDICTED BY IDOCK:   -6.15 KCAL/MOL
REMARK 924 INTRA-LIGAND FREE ENERGY PREDICTED BY IDOCK:   -1.22 KCAL/MOL
REMARK 927      BINDING AFFINITY PREDICTED BY RF-SCORE:    0.00 PKD
ROOT
HETATM    1  C   UNL     1     -10.197   8.177  69.258  1.00  0.00    -0.214 C  
HETATM    2  O   UNL     1     -11.630   6.045  71.369  1.00  0.00    -0.262 OA 
HETATM    3  O   UNL     1     -10.259   8.737  70.577  1.00  0.00    -0.189 OA 
HETATM    4  H   UNL     1     -11.679   5.223  68.982  1.00  0.00     0.000 HD 
HETATM    5  C   UNL     1      -9.852   7.734  71.526  1.00  0.00    -0.167 C  
HETATM    6  H   UNL     1     -11.912   5.217  70.999  1.00  0.00     0.000 HD 
HETATM    7  C   UNL     1     -10.305   6.407  70.933  1.00  0.00    -0.204 C  
HETATM    8  O   UNL     1     -11.588   6.163  68.882  1.00  0.00    -0.172 OA 
HETATM    9  C   UNL     1     -10.346   6.646  69.421  1.00  0.00    -0.199 C  
ENDROOT
BRANCH   1  10
HETATM   10  O   UNL     1      -8.936   8.467  68.651  1.00  0.00    -0.139 OA 
BRANCH  10  11
HETATM   11  C   UNL     1      -8.824   9.673  67.846  1.00  0.00    -0.119 C  
HETATM   12  O   UNL     1      -8.113  11.025  69.732  1.00  0.00    -0.333 OA 
HETATM   13  H2  UNL     1     -10.431  11.921  64.100  1.00  0.00     0.000 HD 
HETATM   14  H   UNL     1      -8.267  11.813  70.241  1.00  0.00     0.000 HD 
HETATM   15  C   UNL     1      -9.074  10.945  68.670  1.00  0.00    -0.175 C  
HETATM   16  H1  UNL     1     -10.258  10.239  63.998  1.00  0.00     0.000 HD 
HETATM   17  C   UNL     1      -9.885  12.208  66.665  1.00  0.00    -0.224 C  
HETATM   18  N   UNL     1      -9.196  13.399  68.714  1.00  0.00    -0.392 NA 
HETATM   19  N   UNL     1     -10.469  11.034  64.601  1.00  0.00    -0.336 NA 
HETATM   20  H1  UNL     1      -9.102  14.256  68.170  1.00  0.00     0.000 HD 
HETATM   21  H2  UNL     1      -8.604  13.405  69.545  1.00  0.00     0.000 HD 
HETATM   22  C   UNL     1      -9.569  11.011  65.759  1.00  0.00    -0.222 C  
HETATM   23  C   UNL     1      -8.933  12.234  67.852  1.00  0.00    -0.186 C  
HETATM   24  C   UNL     1      -9.651   9.646  66.525  1.00  0.00    -0.196 C  
BRANCH  24  25
HETATM   25  O   UNL     1      -9.356   8.483  65.704  1.00  0.00    -0.162 OA 
BRANCH  25  26
HETATM   26  C   UNL     1      -8.308   7.622  66.165  1.00  0.00    -0.134 C  
HETATM   27  O   UNL     1      -8.795   6.300  66.407  1.00  0.00    -0.133 OA 
HETATM   28  C   UNL     1      -9.245   5.645  65.212  1.00  0.00     0.108 C  
HETATM   29  C   UNL     1      -8.060   5.420  64.264  1.00  0.00    -0.123 C  
HETATM   30  H2  UNL     1      -6.296   9.422  65.658  1.00  0.00     0.000 HD 
HETATM   31  C   UNL     1      -7.443   6.776  63.917  1.00  0.00    -0.094 C  
HETATM   32  O   UNL     1      -8.429   4.806  63.021  1.00  0.00    -0.103 OA 
HETATM   33  H1  UNL     1      -5.747   8.863  64.179  1.00  0.00     0.000 HD 
HETATM   34  H   UNL     1      -7.695   4.667  62.434  1.00  0.00     0.000 HD 
HETATM   35  H   UNL     1      -5.874   7.409  62.913  1.00  0.00     0.000 HD 
HETATM   36  N   UNL     1      -6.540   8.896  64.819  1.00  0.00    -0.066 NA 
HETATM   37  O   UNL     1      -6.257   6.567  63.128  1.00  0.00    -0.035 OA 
HETATM   38  C   UNL     1      -7.094   7.572  65.185  1.00  0.00    -0.063 C  
BRANCH  28  39
HETATM   39  C   UNL     1      -9.957   4.348  65.637  1.00  0.00    -0.236 C  
HETATM   40  H2  UNL     1     -11.181   4.203  63.983  1.00  0.00     0.000 HD 
HETATM   41  N   UNL     1     -11.266   4.155  64.998  1.00  0.00    -0.930 NA 
HETATM   42  H1  UNL     1     -11.737   3.295  65.279  1.00  0.00     0.000 HD 
ENDBRANCH  28  39
ENDBRANCH  25  26
ENDBRANCH  24  25
ENDBRANCH  10  11
ENDBRANCH   1  10
BRANCH   5  43
HETATM   43  C   UNL     1      -8.340   7.764  71.789  1.00  0.00    -0.112 C  
HETATM   44  O   UNL     1      -7.858   9.104  71.647  1.00  0.00    -0.340 OA 
HETATM   45  H   UNL     1      -6.922   9.123  71.810  1.00  0.00     0.000 HD 
ENDBRANCH   5  43
TORSDOF 6
ENDMDL
MODEL      220
REMARK 921   NORMALIZED FREE ENERGY PREDICTED BY IDOCK:   -4.23 KCAL/MOL
REMARK 922        TOTAL FREE ENERGY PREDICTED BY IDOCK:   -7.36 KCAL/MOL
REMARK 923 INTER-LIGAND FREE ENERGY PREDICTED BY IDOCK:   -6.81 KCAL/MOL
REMARK 924 INTRA-LIGAND FREE ENERGY PREDICTED BY IDOCK:   -0.55 KCAL/MOL
REMARK 927      BINDING AFFINITY PREDICTED BY RF-SCORE:    0.00 PKD
ROOT
HETATM    1  C   UNL     1      -7.907  13.947  68.393  1.00  0.00    -0.138 C  
HETATM    2  O   UNL     1      -6.407  14.062  71.358  1.00  0.00    -0.474 OA 
HETATM    3  O   UNL     1      -8.245  15.158  69.083  1.00  0.00    -0.188 OA 
HETATM    4  H   UNL     1      -6.037  11.865  70.172  1.00  0.00     0.000 HD 
HETATM    5  C   UNL     1      -7.048  15.715  69.656  1.00  0.00    -0.160 C  
HETATM    6  H   UNL     1      -5.862  13.317  71.580  1.00  0.00     0.000 HD 
HETATM    7  C   UNL     1      -6.174  14.520  70.012  1.00  0.00    -0.159 C  
HETATM    8  O   UNL     1      -6.833  12.192  69.771  1.00  0.00     0.019 OA 
HETATM    9  C   UNL     1      -6.610  13.414  69.048  1.00  0.00    -0.107 C  
ENDROOT
BRANCH   1  10
HETATM   10  O   UNL     1      -7.663  14.212  67.010  1.00  0.00    -0.076 OA 
BRANCH  10  11
HETATM   11  C   UNL     1      -8.809  14.304  66.118  1.00  0.00     0.303 C  
HETATM   12  O   UNL     1      -8.433  16.658  65.662  1.00  0.00    -0.345 OA 
HETATM   13  H2  UNL     1     -13.025  12.591  65.134  1.00  0.00     0.000 HD 
HETATM   14  H   UNL     1      -8.811  17.530  65.652  1.00  0.00     0.000 HD 
HETATM   15  C   UNL     1      -9.419  15.714  66.102  1.00  0.00    -0.341 C  
HETATM   16  H1  UNL     1     -11.832  11.506  65.652  1.00  0.00     0.000 HD 
HETATM   17  C   UNL     1     -11.689  14.836  65.510  1.00  0.00    -0.274 C  
HETATM   18  N   UNL     1     -11.138  17.221  65.200  1.00  0.00    -0.461 NA 
HETATM   19  N   UNL     1     -12.201  12.454  65.719  1.00  0.00    -0.638 NA 
HETATM   20  H1  UNL     1     -11.930  17.309  64.565  1.00  0.00     0.000 HD 
HETATM   21  H2  UNL     1     -10.416  17.918  65.013  1.00  0.00     0.000 HD 
HETATM   22  C   UNL     1     -11.133  13.410  65.410  1.00  0.00    -0.287 C  
HETATM   23  C   UNL     1     -10.611  15.847  65.147  1.00  0.00    -0.397 C  
HETATM   24  C   UNL     1      -9.881  13.192  66.328  1.00  0.00    -0.283 C  
BRANCH  24  25
HETATM   25  O   UNL     1      -9.319  11.853  66.263  1.00  0.00    -0.221 OA 
BRANCH  25  26
HETATM   26  C   UNL     1      -8.751  11.337  67.472  1.00  0.00    -0.138 C  
HETATM   27  O   UNL     1      -9.740  11.214  68.497  1.00  0.00    -0.183 OA 
HETATM   28  C   UNL     1     -10.752  10.247  68.180  1.00  0.00    -0.246 C  
HETATM   29  C   UNL     1     -10.130   8.846  68.116  1.00  0.00    -0.189 C  
HETATM   30  H2  UNL     1      -6.331  10.707  66.335  1.00  0.00     0.000 HD 
HETATM   31  C   UNL     1      -9.044   8.838  67.039  1.00  0.00    -0.133 C  
HETATM   32  O   UNL     1     -11.068   7.819  67.762  1.00  0.00    -0.491 OA 
HETATM   33  H1  UNL     1      -6.542   9.072  66.046  1.00  0.00     0.000 HD 
HETATM   34  H   UNL     1     -10.682   6.951  67.722  1.00  0.00     0.000 HD 
HETATM   35  H   UNL     1      -7.697   7.561  66.387  1.00  0.00     0.000 HD 
HETATM   36  N   UNL     1      -7.014   9.965  66.183  1.00  0.00    -0.097 NA 
HETATM   37  O   UNL     1      -8.372   7.566  67.056  1.00  0.00    -0.118 OA 
HETATM   38  C   UNL     1      -8.028   9.969  67.263  1.00  0.00    -0.106 C  
BRANCH  28  39
HETATM   39  C   UNL     1     -11.868  10.385  69.231  1.00  0.00    -0.093 C  
HETATM   40  H2  UNL     1     -10.752   9.737  70.840  1.00  0.00     0.000 HD 
HETATM   41  N   UNL     1     -11.664   9.551  70.424  1.00  0.00    -0.406 NA 
HETATM   42  H1  UNL     1     -12.404   9.643  71.120  1.00  0.00     0.000 HD 
ENDBRANCH  28  39
ENDBRANCH  25  26
ENDBRANCH  24  25
ENDBRANCH  10  11
ENDBRANCH   1  10
BRANCH   5  43
HETATM   43  C   UNL     1      -6.342  16.683  68.696  1.00  0.00    -0.148 C  
HETATM   44  O   UNL     1      -7.236  17.744  68.345  1.00  0.00    -0.230 OA 
HETATM   45  H   UNL     1      -6.800  18.343  67.751  1.00  0.00     0.000 HD 
ENDBRANCH   5  43
TORSDOF 6
ENDMDL
MODEL      221
REMARK 921   NORMALIZED FREE ENERGY PREDICTED BY IDOCK:   -4.21 KCAL/MOL
REMARK 922        TOTAL FREE ENERGY PREDICTED BY IDOCK:   -7.33 KCAL/MOL
REMARK 923 INTER-LIGAND FREE ENERGY PREDICTED BY IDOCK:   -6.43 KCAL/MOL
REMARK 924 INTRA-LIGAND FREE ENERGY PREDICTED BY IDOCK:   -0.91 KCAL/MOL
REMARK 927      BINDING AFFINITY PREDICTED BY RF-SCORE:    0.00 PKD
ROOT
HETATM    1  C   UNL     1     -10.031  12.950  66.597  1.00  0.00    -0.251 C  
HETATM    2  O   UNL     1     -12.681  13.815  64.786  1.00  0.00    -0.647 OA 
HETATM    3  O   UNL     1     -10.102  14.376  66.457  1.00  0.00    -0.262 OA 
HETATM    4  H   UNL     1     -12.361  11.313  64.898  1.00  0.00     0.000 HD 
HETATM    5  C   UNL     1     -11.461  14.795  66.682  1.00  0.00    -0.335 C  
HETATM    6  H   UNL     1     -13.223  13.102  64.470  1.00  0.00     0.000 HD 
HETATM    7  C   UNL     1     -12.328  13.652  66.174  1.00  0.00    -0.426 C  
HETATM    8  O   UNL     1     -11.491  11.648  65.080  1.00  0.00    -0.234 OA 
HETATM    9  C   UNL     1     -11.448  12.405  66.300  1.00  0.00    -0.371 C  
ENDROOT
BRANCH   1  10
HETATM   10  O   UNL     1      -9.659  12.598  67.931  1.00  0.00    -0.197 OA 
BRANCH  10  11
HETATM   11  C   UNL     1      -8.242  12.488  68.242  1.00  0.00    -0.168 C  
HETATM   12  O   UNL     1      -7.955  14.894  68.398  1.00  0.00    -0.123 OA 
HETATM   13  H2  UNL     1      -4.400   9.919  67.682  1.00  0.00     0.000 HD 
HETATM   14  H   UNL     1      -7.464  15.651  68.101  1.00  0.00     0.000 HD 
HETATM   15  C   UNL     1      -7.448  13.713  67.762  1.00  0.00    -0.168 C  
HETATM   16  H1  UNL     1      -5.871   9.106  67.897  1.00  0.00     0.000 HD 
HETATM   17  C   UNL     1      -5.345  12.377  67.508  1.00  0.00    -0.115 C  
HETATM   18  N   UNL     1      -5.271  14.842  67.601  1.00  0.00    -0.325 NA 
HETATM   19  N   UNL     1      -5.407   9.933  67.521  1.00  0.00    -0.035 NA 
HETATM   20  H1  UNL     1      -4.278  14.792  67.827  1.00  0.00     0.000 HD 
HETATM   21  H2  UNL     1      -5.701  15.701  67.945  1.00  0.00     0.000 HD 
HETATM   22  C   UNL     1      -6.043  11.134  68.073  1.00  0.00    -0.049 C  
HETATM   23  C   UNL     1      -5.955  13.638  68.103  1.00  0.00    -0.118 C  
HETATM   24  C   UNL     1      -7.587  11.144  67.804  1.00  0.00    -0.100 C  
BRANCH  24  25
HETATM   25  O   UNL     1      -8.290   9.983  68.325  1.00  0.00    -0.108 OA 
BRANCH  25  26
HETATM   26  C   UNL     1      -7.957   8.717  67.743  1.00  0.00    -0.107 C  
HETATM   27  O   UNL     1      -7.560   7.777  68.744  1.00  0.00    -0.096 OA 
HETATM   28  C   UNL     1      -8.624   7.444  69.649  1.00  0.00    -0.137 C  
HETATM   29  C   UNL     1      -9.738   6.709  68.891  1.00  0.00    -0.135 C  
HETATM   30  H2  UNL     1      -8.893   9.363  65.243  1.00  0.00     0.000 HD 
HETATM   31  C   UNL     1     -10.262   7.620  67.780  1.00  0.00    -0.201 C  
HETATM   32  O   UNL     1     -10.865   6.375  69.714  1.00  0.00    -0.248 OA 
HETATM   33  H1  UNL     1     -10.406   8.649  65.285  1.00  0.00     0.000 HD 
HETATM   34  H   UNL     1     -11.555   5.920  69.245  1.00  0.00     0.000 HD 
HETATM   35  H   UNL     1     -11.545   7.461  66.297  1.00  0.00     0.000 HD 
HETATM   36  N   UNL     1      -9.647   9.037  65.846  1.00  0.00    -0.260 NA 
HETATM   37  O   UNL     1     -11.220   6.895  66.988  1.00  0.00    -0.369 OA 
HETATM   38  C   UNL     1      -9.118   8.124  66.885  1.00  0.00    -0.154 C  
BRANCH  28  39
HETATM   39  C   UNL     1      -8.012   6.628  70.801  1.00  0.00    -0.111 C  
HETATM   40  H2  UNL     1      -6.049   6.804  70.193  1.00  0.00     0.000 HD 
HETATM   41  N   UNL     1      -6.689   6.068  70.493  1.00  0.00    -0.051 NA 
HETATM   42  H1  UNL     1      -6.283   5.528  71.257  1.00  0.00     0.000 HD 
ENDBRANCH  28  39
ENDBRANCH  25  26
ENDBRANCH  24  25
ENDBRANCH  10  11
ENDBRANCH   1  10
BRANCH   5  43
HETATM   43  C   UNL     1     -11.732  15.116  68.157  1.00  0.00    -0.302 C  
HETATM   44  O   UNL     1     -10.508  15.494  68.797  1.00  0.00    -0.222 OA 
HETATM   45  H   UNL     1     -10.675  15.693  69.710  1.00  0.00     0.000 HD 
ENDBRANCH   5  43
TORSDOF 6
ENDMDL
MODEL      222
REMARK 921   NORMALIZED FREE ENERGY PREDICTED BY IDOCK:   -4.21 KCAL/MOL
REMARK 922        TOTAL FREE ENERGY PREDICTED BY IDOCK:   -7.33 KCAL/MOL
REMARK 923 INTER-LIGAND FREE ENERGY PREDICTED BY IDOCK:   -6.04 KCAL/MOL
REMARK 924 INTRA-LIGAND FREE ENERGY PREDICTED BY IDOCK:   -1.29 KCAL/MOL
REMARK 927      BINDING AFFINITY PREDICTED BY RF-SCORE:    0.00 PKD
ROOT
HETATM    1  C   UNL     1      -9.661   7.212  70.466  1.00  0.00    -0.169 C  
HETATM    2  O   UNL     1      -8.884   8.804  73.278  1.00  0.00    -0.280 OA 
HETATM    3  O   UNL     1     -10.302   6.592  71.590  1.00  0.00    -0.203 OA 
HETATM    4  H   UNL     1      -7.624   9.698  71.281  1.00  0.00     0.000 HD 
HETATM    5  C   UNL     1     -10.863   7.621  72.427  1.00  0.00    -0.289 C  
HETATM    6  H   UNL     1      -8.302   9.549  73.190  1.00  0.00     0.000 HD 
HETATM    7  C   UNL     1      -9.928   8.814  72.285  1.00  0.00    -0.232 C  
HETATM    8  O   UNL     1      -7.858   8.818  71.010  1.00  0.00    -0.098 OA 
HETATM    9  C   UNL     1      -9.280   8.644  70.908  1.00  0.00    -0.190 C  
ENDROOT
BRANCH   1  10
HETATM   10  O   UNL     1     -10.559   7.282  69.356  1.00  0.00    -0.222 OA 
BRANCH  10  11
HETATM   11  C   UNL     1     -10.265   6.473  68.184  1.00  0.00    -0.168 C  
HETATM   12  O   UNL     1     -10.494   4.387  69.404  1.00  0.00     0.206 OA 
HETATM   13  H2  UNL     1      -7.999   6.324  64.120  1.00  0.00     0.000 HD 
HETATM   14  H   UNL     1     -10.089   3.558  69.633  1.00  0.00     0.000 HD 
HETATM   15  C   UNL     1      -9.611   5.132  68.555  1.00  0.00    -0.140 C  
HETATM   16  H1  UNL     1      -8.717   7.790  64.571  1.00  0.00     0.000 HD 
HETATM   17  C   UNL     1      -8.425   4.986  66.354  1.00  0.00    -0.111 C  
HETATM   18  N   UNL     1      -8.686   2.991  67.783  1.00  0.00    -0.104 NA 
HETATM   19  N   UNL     1      -8.257   6.938  64.891  1.00  0.00    -0.111 NA 
HETATM   20  H1  UNL     1      -8.490   2.401  66.975  1.00  0.00     0.000 HD 
HETATM   21  H2  UNL     1      -9.244   2.507  68.487  1.00  0.00     0.000 HD 
HETATM   22  C   UNL     1      -9.116   6.268  65.873  1.00  0.00    -0.067 C  
HETATM   23  C   UNL     1      -9.317   4.245  67.340  1.00  0.00    -0.163 C  
HETATM   24  C   UNL     1      -9.491   7.223  67.058  1.00  0.00    -0.156 C  
BRANCH  24  25
HETATM   25  O   UNL     1     -10.151   8.451  66.648  1.00  0.00    -0.266 OA 
BRANCH  25  26
HETATM   26  C   UNL     1      -9.526   9.678  67.044  1.00  0.00    -0.154 C  
HETATM   27  O   UNL     1      -8.424   9.995  66.191  1.00  0.00    -0.123 OA 
HETATM   28  C   UNL     1      -8.825  10.262  64.839  1.00  0.00    -0.192 C  
HETATM   29  C   UNL     1      -9.688  11.531  64.795  1.00  0.00    -0.219 C  
HETATM   30  H2  UNL     1     -11.479  10.354  68.853  1.00  0.00     0.000 HD 
HETATM   31  C   UNL     1     -10.920  11.320  65.674  1.00  0.00    -0.134 C  
HETATM   32  O   UNL     1     -10.170  11.849  63.480  1.00  0.00    -0.387 OA 
HETATM   33  H1  UNL     1     -12.391  11.420  67.939  1.00  0.00     0.000 HD 
HETATM   34  H   UNL     1     -10.704  12.635  63.453  1.00  0.00     0.000 HD 
HETATM   35  H   UNL     1     -12.438  12.415  66.284  1.00  0.00     0.000 HD 
HETATM   36  N   UNL     1     -11.738  10.637  67.908  1.00  0.00    -0.456 NA 
HETATM   37  O   UNL     1     -11.672  12.546  65.737  1.00  0.00    -0.384 OA 
HETATM   38  C   UNL     1     -10.525  10.876  67.092  1.00  0.00    -0.237 C  
BRANCH  28  39
HETATM   39  C   UNL     1      -7.547  10.348  63.987  1.00  0.00    -0.013 C  
HETATM   40  H2  UNL     1      -7.412   8.333  63.567  1.00  0.00     0.000 HD 
HETATM   41  N   UNL     1      -6.806   9.082  63.901  1.00  0.00    -0.088 NA 
HETATM   42  H1  UNL     1      -5.959   9.139  63.335  1.00  0.00     0.000 HD 
ENDBRANCH  28  39
ENDBRANCH  25  26
ENDBRANCH  24  25
ENDBRANCH  10  11
ENDBRANCH   1  10
BRANCH   5  43
HETATM   43  C   UNL     1     -12.305   7.965  72.035  1.00  0.00    -0.308 C  
HETATM   44  O   UNL     1     -12.858   8.871  72.996  1.00  0.00    -0.583 OA 
HETATM   45  H   UNL     1     -13.751   9.084  72.753  1.00  0.00     0.000 HD 
ENDBRANCH   5  43
TORSDOF 6
ENDMDL
MODEL      223
REMARK 921   NORMALIZED FREE ENERGY PREDICTED BY IDOCK:   -4.21 KCAL/MOL
REMARK 922        TOTAL FREE ENERGY PREDICTED BY IDOCK:   -7.33 KCAL/MOL
REMARK 923 INTER-LIGAND FREE ENERGY PREDICTED BY IDOCK:   -5.80 KCAL/MOL
REMARK 924 INTRA-LIGAND FREE ENERGY PREDICTED BY IDOCK:   -1.53 KCAL/MOL
REMARK 927      BINDING AFFINITY PREDICTED BY RF-SCORE:    0.00 PKD
ROOT
HETATM    1  C   UNL     1      -7.560   7.702  67.520  1.00  0.00    -0.109 C  
HETATM    2  O   UNL     1      -7.468   5.001  65.584  1.00  0.00    -0.079 OA 
HETATM    3  O   UNL     1      -6.204   7.305  67.272  1.00  0.00    -0.048 OA 
HETATM    4  H   UNL     1      -9.820   5.636  66.247  1.00  0.00     0.000 HD 
HETATM    5  C   UNL     1      -6.061   6.996  65.873  1.00  0.00    -0.036 C  
HETATM    6  H   UNL     1      -8.309   4.651  65.315  1.00  0.00     0.000 HD 
HETATM    7  C   UNL     1      -7.409   6.434  65.442  1.00  0.00    -0.076 C  
HETATM    8  O   UNL     1      -9.291   6.035  66.928  1.00  0.00    -0.124 OA 
HETATM    9  C   UNL     1      -8.420   7.053  66.410  1.00  0.00    -0.130 C  
ENDROOT
BRANCH   1  10
HETATM   10  O   UNL     1      -7.685   9.124  67.444  1.00  0.00    -0.091 OA 
BRANCH  10  11
HETATM   11  C   UNL     1      -8.965   9.678  67.030  1.00  0.00    -0.134 C  
HETATM   12  O   UNL     1      -8.131  10.312  64.840  1.00  0.00    -0.153 OA 
HETATM   13  H2  UNL     1     -12.892  11.713  68.483  1.00  0.00     0.000 HD 
HETATM   14  H   UNL     1      -8.030  11.013  64.206  1.00  0.00     0.000 HD 
HETATM   15  C   UNL     1      -8.801  10.812  66.005  1.00  0.00    -0.180 C  
HETATM   16  H1  UNL     1     -12.227  10.494  69.453  1.00  0.00     0.000 HD 
HETATM   17  C   UNL     1     -10.941  11.902  66.716  1.00  0.00    -0.337 C  
HETATM   18  N   UNL     1      -9.887  12.476  64.560  1.00  0.00    -0.530 NA 
HETATM   19  N   UNL     1     -12.038  11.258  68.804  1.00  0.00    -0.545 NA 
HETATM   20  H1  UNL     1     -10.775  12.864  64.243  1.00  0.00     0.000 HD 
HETATM   21  H2  UNL     1      -9.302  12.169  63.782  1.00  0.00     0.000 HD 
HETATM   22  C   UNL     1     -11.224  10.754  67.693  1.00  0.00    -0.299 C  
HETATM   23  C   UNL     1     -10.136  11.395  65.528  1.00  0.00    -0.247 C  
HETATM   24  C   UNL     1      -9.911  10.069  68.205  1.00  0.00    -0.146 C  
BRANCH  24  25
HETATM   25  O   UNL     1     -10.133   8.973  69.133  1.00  0.00    -0.184 OA 
BRANCH  25  26
HETATM   26  C   UNL     1     -10.080   9.293  70.529  1.00  0.00    -0.255 C  
HETATM   27  O   UNL     1     -10.974   8.469  71.282  1.00  0.00    -0.235 OA 
HETATM   28  C   UNL     1     -10.607   7.082  71.257  1.00  0.00    -0.218 C  
HETATM   29  C   UNL     1      -9.261   6.888  71.967  1.00  0.00    -0.140 C  
HETATM   30  H2  UNL     1      -7.895  10.941  70.302  1.00  0.00     0.000 HD 
HETATM   31  C   UNL     1      -8.200   7.723  71.248  1.00  0.00    -0.103 C  
HETATM   32  O   UNL     1      -8.796   5.530  71.952  1.00  0.00    -0.134 OA 
HETATM   33  H1  UNL     1      -6.670   9.897  70.763  1.00  0.00     0.000 HD 
HETATM   34  H   UNL     1      -7.962   5.411  72.391  1.00  0.00     0.000 HD 
HETATM   35  H   UNL     1      -6.303   8.163  71.531  1.00  0.00     0.000 HD 
HETATM   36  N   UNL     1      -7.613   9.964  70.379  1.00  0.00    -0.249 NA 
HETATM   37  O   UNL     1      -6.962   7.644  71.978  1.00  0.00    -0.060 OA 
HETATM   38  C   UNL     1      -8.638   9.190  71.117  1.00  0.00    -0.130 C  
BRANCH  28  39
HETATM   39  C   UNL     1     -11.764   6.288  71.888  1.00  0.00    -0.316 C  
HETATM   40  H2  UNL     1     -11.360   6.803  73.844  1.00  0.00     0.000 HD 
HETATM   41  N   UNL     1     -11.553   5.960  73.305  1.00  0.00    -0.427 NA 
HETATM   42  H1  UNL     1     -12.320   5.433  73.723  1.00  0.00     0.000 HD 
ENDBRANCH  28  39
ENDBRANCH  25  26
ENDBRANCH  24  25
ENDBRANCH  10  11
ENDBRANCH   1  10
BRANCH   5  43
HETATM   43  C   UNL     1      -5.654   8.222  65.046  1.00  0.00    -0.044 C  
HETATM   44  O   UNL     1      -5.309   9.298  65.925  1.00  0.00    -0.039 OA 
HETATM   45  H   UNL     1      -5.057  10.057  65.414  1.00  0.00     0.000 HD 
ENDBRANCH   5  43
TORSDOF 6
ENDMDL
MODEL      224
REMARK 921   NORMALIZED FREE ENERGY PREDICTED BY IDOCK:   -4.20 KCAL/MOL
REMARK 922        TOTAL FREE ENERGY PREDICTED BY IDOCK:   -7.32 KCAL/MOL
REMARK 923 INTER-LIGAND FREE ENERGY PREDICTED BY IDOCK:   -6.36 KCAL/MOL
REMARK 924 INTRA-LIGAND FREE ENERGY PREDICTED BY IDOCK:   -0.95 KCAL/MOL
REMARK 927      BINDING AFFINITY PREDICTED BY RF-SCORE:    0.00 PKD
ROOT
HETATM    1  C   UNL     1     -11.882  13.578  70.133  1.00  0.00    -0.278 C  
HETATM    2  O   UNL     1     -13.281  13.799  73.140  1.00  0.00    -0.530 OA 
HETATM    3  O   UNL     1     -11.432  12.510  70.978  1.00  0.00     0.910 OA 
HETATM    4  H   UNL     1     -13.851  15.764  71.661  1.00  0.00     0.000 HD 
HETATM    5  C   UNL     1     -12.567  11.961  71.673  1.00  0.00    -0.131 C  
HETATM    6  H   UNL     1     -13.874  14.529  73.273  1.00  0.00     0.000 HD 
HETATM    7  C   UNL     1     -13.518  13.131  71.886  1.00  0.00    -0.424 C  
HETATM    8  O   UNL     1     -13.044  15.438  71.280  1.00  0.00    -0.427 OA 
HETATM    9  C   UNL     1     -13.195  14.109  70.753  1.00  0.00    -0.152 C  
ENDROOT
BRANCH   1  10
HETATM   10  O   UNL     1     -12.145  13.093  68.814  1.00  0.00    -0.310 OA 
BRANCH  10  11
HETATM   11  C   UNL     1     -11.043  12.506  68.067  1.00  0.00    -0.245 C  
HETATM   12  O   UNL     1     -11.968  10.266  68.207  1.00  0.00    -0.730 OA 
HETATM   13  H2  UNL     1      -6.526  12.880  67.005  1.00  0.00     0.000 HD 
HETATM   14  H   UNL     1     -11.811   9.361  68.451  1.00  0.00     0.000 HD 
HETATM   15  C   UNL     1     -10.790  11.043  68.463  1.00  0.00    -0.213 C  
HETATM   16  H1  UNL     1      -7.429  14.308  67.131  1.00  0.00     0.000 HD 
HETATM   17  C   UNL     1      -8.368  11.187  67.842  1.00  0.00    -0.129 C  
HETATM   18  N   UNL     1      -9.473   8.997  68.117  1.00  0.00    -0.142 NA 
HETATM   19  N   UNL     1      -7.300  13.354  67.469  1.00  0.00    -0.165 NA 
HETATM   20  H1  UNL     1      -8.716   8.563  67.589  1.00  0.00     0.000 HD 
HETATM   21  H2  UNL     1     -10.339   8.460  68.061  1.00  0.00     0.000 HD 
HETATM   22  C   UNL     1      -8.563  12.621  67.335  1.00  0.00    -0.189 C  
HETATM   23  C   UNL     1      -9.653  10.389  67.670  1.00  0.00    -0.149 C  
HETATM   24  C   UNL     1      -9.738  13.358  68.065  1.00  0.00    -0.222 C  
BRANCH  24  25
HETATM   25  O   UNL     1      -9.960  14.721  67.614  1.00  0.00    -0.225 OA 
BRANCH  25  26
HETATM   26  C   UNL     1      -9.644  15.764  68.544  1.00  0.00    -0.204 C  
HETATM   27  O   UNL     1      -8.294  16.206  68.386  1.00  0.00    -0.166 OA 
HETATM   28  C   UNL     1      -8.057  16.829  67.115  1.00  0.00    -0.183 C  
HETATM   29  C   UNL     1      -8.871  18.125  67.011  1.00  0.00    -0.262 C  
HETATM   30  H2  UNL     1     -12.235  16.104  69.391  1.00  0.00     0.000 HD 
HETATM   31  C   UNL     1     -10.356  17.788  67.161  1.00  0.00    -0.353 C  
HETATM   32  O   UNL     1      -8.726  18.793  65.749  1.00  0.00    -0.412 OA 
HETATM   33  H1  UNL     1     -12.692  17.423  68.469  1.00  0.00     0.000 HD 
HETATM   34  H   UNL     1      -9.230  19.596  65.686  1.00  0.00     0.000 HD 
HETATM   35  H   UNL     1     -12.039  18.800  67.281  1.00  0.00     0.000 HD 
HETATM   36  N   UNL     1     -12.055  16.629  68.537  1.00  0.00     0.593 NA 
HETATM   37  O   UNL     1     -11.117  19.009  67.188  1.00  0.00    -0.358 OA 
HETATM   38  C   UNL     1     -10.619  16.979  68.440  1.00  0.00    -0.375 C  
BRANCH  28  39
HETATM   39  C   UNL     1      -6.539  17.034  66.978  1.00  0.00    -0.202 C  
HETATM   40  H2  UNL     1      -6.038  15.035  66.914  1.00  0.00     0.000 HD 
HETATM   41  N   UNL     1      -5.743  15.877  67.408  1.00  0.00    -0.301 NA 
HETATM   42  H1  UNL     1      -4.736  16.014  67.317  1.00  0.00     0.000 HD 
ENDBRANCH  28  39
ENDBRANCH  25  26
ENDBRANCH  24  25
ENDBRANCH  10  11
ENDBRANCH   1  10
BRANCH   5  43
HETATM   43  C   UNL     1     -13.225  10.814  70.895  1.00  0.00    -0.078 C  
HETATM   44  O   UNL     1     -12.557   9.585  71.199  1.00  0.00    -0.312 OA 
HETATM   45  H   UNL     1     -12.964   8.875  70.717  1.00  0.00     0.000 HD 
ENDBRANCH   5  43
TORSDOF 6
ENDMDL
MODEL      225
REMARK 921   NORMALIZED FREE ENERGY PREDICTED BY IDOCK:   -4.20 KCAL/MOL
REMARK 922        TOTAL FREE ENERGY PREDICTED BY IDOCK:   -7.32 KCAL/MOL
REMARK 923 INTER-LIGAND FREE ENERGY PREDICTED BY IDOCK:   -6.12 KCAL/MOL
REMARK 924 INTRA-LIGAND FREE ENERGY PREDICTED BY IDOCK:   -1.19 KCAL/MOL
REMARK 927      BINDING AFFINITY PREDICTED BY RF-SCORE:    0.00 PKD
ROOT
HETATM    1  C   UNL     1      -7.373  13.497  67.523  1.00  0.00    -0.164 C  
HETATM    2  O   UNL     1      -5.374  14.754  69.863  1.00  0.00    -0.094 OA 
HETATM    3  O   UNL     1      -5.997  13.328  67.155  1.00  0.00    -0.304 OA 
HETATM    4  H   UNL     1      -7.814  15.204  70.331  1.00  0.00     0.000 HD 
HETATM    5  C   UNL     1      -5.266  12.858  68.303  1.00  0.00    -0.072 C  
HETATM    6  H   UNL     1      -5.804  15.143  70.615  1.00  0.00     0.000 HD 
HETATM    7  C   UNL     1      -5.955  13.483  69.507  1.00  0.00    -0.110 C  
HETATM    8  O   UNL     1      -7.799  15.063  69.392  1.00  0.00    -0.190 OA 
HETATM    9  C   UNL     1      -7.396  13.726  69.053  1.00  0.00    -0.036 C  
ENDROOT
BRANCH   1  10
HETATM   10  O   UNL     1      -8.121  12.319  67.211  1.00  0.00    -0.167 OA 
BRANCH  10  11
HETATM   11  C   UNL     1      -9.556  12.336  67.449  1.00  0.00    -0.179 C  
HETATM   12  O   UNL     1      -9.870  14.409  66.226  1.00  0.00    -0.279 OA 
HETATM   13  H2  UNL     1     -12.956  11.046  70.356  1.00  0.00     0.000 HD 
HETATM   14  H   UNL     1     -10.220  15.292  66.246  1.00  0.00     0.000 HD 
HETATM   15  C   UNL     1     -10.122  13.764  67.482  1.00  0.00    -0.241 C  
HETATM   16  H1  UNL     1     -11.662   9.976  70.128  1.00  0.00     0.000 HD 
HETATM   17  C   UNL     1     -12.002  13.095  68.996  1.00  0.00    -0.329 C  
HETATM   18  N   UNL     1     -12.093  15.211  67.728  1.00  0.00    -0.412 NA 
HETATM   19  N   UNL     1     -11.958  10.951  70.170  1.00  0.00    -0.321 NA 
HETATM   20  H1  UNL     1     -13.101  15.241  67.875  1.00  0.00     0.000 HD 
HETATM   21  H2  UNL     1     -11.810  15.723  66.892  1.00  0.00     0.000 HD 
HETATM   22  C   UNL     1     -11.556  11.629  68.933  1.00  0.00    -0.314 C  
HETATM   23  C   UNL     1     -11.638  13.810  67.702  1.00  0.00    -0.347 C  
HETATM   24  C   UNL     1     -10.018  11.483  68.670  1.00  0.00    -0.199 C  
BRANCH  24  25
HETATM   25  O   UNL     1      -9.552  10.109  68.601  1.00  0.00    -0.153 OA 
BRANCH  25  26
HETATM   26  C   UNL     1      -8.482   9.749  69.484  1.00  0.00    -0.170 C  
HETATM   27  O   UNL     1      -8.952   9.585  70.824  1.00  0.00    -0.220 OA 
HETATM   28  C   UNL     1      -9.866   8.487  70.964  1.00  0.00    -0.195 C  
HETATM   29  C   UNL     1      -9.138   7.167  70.677  1.00  0.00    -0.158 C  
HETATM   30  H2  UNL     1      -6.659   9.326  67.474  1.00  0.00     0.000 HD 
HETATM   31  C   UNL     1      -8.583   7.209  69.252  1.00  0.00    -0.137 C  
HETATM   32  O   UNL     1      -9.991   6.015  70.752  1.00  0.00    -0.183 OA 
HETATM   33  H1  UNL     1      -6.745   7.661  67.324  1.00  0.00     0.000 HD 
HETATM   34  H   UNL     1      -9.540   5.197  70.575  1.00  0.00     0.000 HD 
HETATM   35  H   UNL     1      -7.451   6.054  68.131  1.00  0.00     0.000 HD 
HETATM   36  N   UNL     1      -7.239   8.501  67.625  1.00  0.00    -0.083 NA 
HETATM   37  O   UNL     1      -7.796   6.028  69.017  1.00  0.00    -0.093 OA 
HETATM   38  C   UNL     1      -7.726   8.464  69.024  1.00  0.00    -0.097 C  
BRANCH  28  39
HETATM   39  C   UNL     1     -10.474   8.569  72.374  1.00  0.00    -0.297 C  
HETATM   40  H2  UNL     1     -11.764   6.973  72.164  1.00  0.00     0.000 HD 
HETATM   41  N   UNL     1     -11.797   7.940  72.486  1.00  0.00    -0.502 NA 
HETATM   42  H1  UNL     1     -12.201   7.994  73.421  1.00  0.00     0.000 HD 
ENDBRANCH  28  39
ENDBRANCH  25  26
ENDBRANCH  24  25
ENDBRANCH  10  11
ENDBRANCH   1  10
BRANCH   5  43
HETATM   43  C   UNL     1      -5.235  11.326  68.384  1.00  0.00    -0.039 C  
HETATM   44  O   UNL     1      -5.399  10.775  67.073  1.00  0.00    -0.041 OA 
HETATM   45  H   UNL     1      -5.380   9.827  67.123  1.00  0.00     0.000 HD 
ENDBRANCH   5  43
TORSDOF 6
ENDMDL
MODEL      226
REMARK 921   NORMALIZED FREE ENERGY PREDICTED BY IDOCK:   -4.14 KCAL/MOL
REMARK 922        TOTAL FREE ENERGY PREDICTED BY IDOCK:   -7.23 KCAL/MOL
REMARK 923 INTER-LIGAND FREE ENERGY PREDICTED BY IDOCK:   -6.61 KCAL/MOL
REMARK 924 INTRA-LIGAND FREE ENERGY PREDICTED BY IDOCK:   -0.62 KCAL/MOL
REMARK 927      BINDING AFFINITY PREDICTED BY RF-SCORE:    0.00 PKD
ROOT
HETATM    1  C   UNL     1      -8.178   7.310  66.463  1.00  0.00    -0.117 C  
HETATM    2  O   UNL     1      -6.744   4.418  65.665  1.00  0.00    -0.050 OA 
HETATM    3  O   UNL     1      -8.878   6.681  65.380  1.00  0.00    -0.060 OA 
HETATM    4  H   UNL     1      -5.446   5.692  67.416  1.00  0.00     0.000 HD 
HETATM    5  C   UNL     1      -9.044   5.284  65.686  1.00  0.00    -0.153 C  
HETATM    6  H   UNL     1      -5.979   4.177  66.174  1.00  0.00     0.000 HD 
HETATM    7  C   UNL     1      -7.818   4.897  66.499  1.00  0.00    -0.099 C  
HETATM    8  O   UNL     1      -5.947   6.373  66.985  1.00  0.00    -0.022 OA 
HETATM    9  C   UNL     1      -7.362   6.199  67.165  1.00  0.00    -0.076 C  
ENDROOT
BRANCH   1  10
HETATM   10  O   UNL     1      -9.104   7.875  67.394  1.00  0.00    -0.131 OA 
BRANCH  10  11
HETATM   11  C   UNL     1      -8.751   9.134  68.032  1.00  0.00    -0.129 C  
HETATM   12  O   UNL     1      -9.087  10.413  65.997  1.00  0.00    -0.154 OA 
HETATM   13  H2  UNL     1      -6.242  11.128  71.409  1.00  0.00     0.000 HD 
HETATM   14  H   UNL     1      -8.710  11.033  65.383  1.00  0.00     0.000 HD 
HETATM   15  C   UNL     1      -8.142  10.136  67.039  1.00  0.00    -0.117 C  
HETATM   16  H1  UNL     1      -6.963   9.631  71.739  1.00  0.00     0.000 HD 
HETATM   17  C   UNL     1      -6.825  11.275  68.839  1.00  0.00    -0.086 C  
HETATM   18  N   UNL     1      -7.204  12.376  66.664  1.00  0.00    -0.325 NA 
HETATM   19  N   UNL     1      -6.537  10.229  71.030  1.00  0.00    -0.325 NA 
HETATM   20  H1  UNL     1      -6.969  13.272  67.090  1.00  0.00     0.000 HD 
HETATM   21  H2  UNL     1      -7.812  12.485  65.852  1.00  0.00     0.000 HD 
HETATM   22  C   UNL     1      -7.465  10.376  69.904  1.00  0.00    -0.125 C  
HETATM   23  C   UNL     1      -7.788  11.484  67.679  1.00  0.00    -0.125 C  
HETATM   24  C   UNL     1      -7.898   8.984  69.328  1.00  0.00    -0.095 C  
BRANCH  24  25
HETATM   25  O   UNL     1      -8.512   8.099  70.303  1.00  0.00    -0.122 OA 
BRANCH  25  26
HETATM   26  C   UNL     1      -8.873   8.683  71.561  1.00  0.00    -0.219 C  
HETATM   27  O   UNL     1     -10.047   9.489  71.439  1.00  0.00    -0.258 OA 
HETATM   28  C   UNL     1     -11.213   8.727  71.094  1.00  0.00    -0.277 C  
HETATM   29  C   UNL     1     -11.559   7.763  72.237  1.00  0.00    -0.338 C  
HETATM   30  H2  UNL     1      -7.071   7.211  73.020  1.00  0.00     0.000 HD 
HETATM   31  C   UNL     1     -10.372   6.828  72.470  1.00  0.00    -0.198 C  
HETATM   32  O   UNL     1     -12.692   6.927  71.957  1.00  0.00    -0.486 OA 
HETATM   33  H1  UNL     1      -8.063   5.993  73.599  1.00  0.00     0.000 HD 
HETATM   34  H   UNL     1     -12.907   6.330  72.665  1.00  0.00     0.000 HD 
HETATM   35  H   UNL     1      -9.901   5.422  73.764  1.00  0.00     0.000 HD 
HETATM   36  N   UNL     1      -7.932   6.689  72.865  1.00  0.00    -0.103 NA 
HETATM   37  O   UNL     1     -10.639   6.002  73.618  1.00  0.00    -0.250 OA 
HETATM   38  C   UNL     1      -9.072   7.619  72.685  1.00  0.00    -0.157 C  
BRANCH  28  39
HETATM   39  C   UNL     1     -12.335   9.724  70.759  1.00  0.00    -0.236 C  
HETATM   40  H2  UNL     1     -12.170   9.579  68.708  1.00  0.00     0.000 HD 
HETATM   41  N   UNL     1     -12.224  10.311  69.417  1.00  0.00    -0.559 NA 
HETATM   42  H1  UNL     1     -12.969  10.972  69.195  1.00  0.00     0.000 HD 
ENDBRANCH  28  39
ENDBRANCH  25  26
ENDBRANCH  24  25
ENDBRANCH  10  11
ENDBRANCH   1  10
BRANCH   5  43
HETATM   43  C   UNL     1     -10.351   5.007  66.441  1.00  0.00    -0.294 C  
HETATM   44  O   UNL     1     -11.386   4.690  65.504  1.00  0.00    -0.921 OA 
HETATM   45  H   UNL     1     -12.195   4.519  65.972  1.00  0.00     0.000 HD 
ENDBRANCH   5  43
TORSDOF 6
ENDMDL
MODEL      227
REMARK 921   NORMALIZED FREE ENERGY PREDICTED BY IDOCK:   -4.11 KCAL/MOL
REMARK 922        TOTAL FREE ENERGY PREDICTED BY IDOCK:   -7.19 KCAL/MOL
REMARK 923 INTER-LIGAND FREE ENERGY PREDICTED BY IDOCK:   -6.31 KCAL/MOL
REMARK 924 INTRA-LIGAND FREE ENERGY PREDICTED BY IDOCK:   -0.88 KCAL/MOL
REMARK 927      BINDING AFFINITY PREDICTED BY RF-SCORE:    0.00 PKD
ROOT
HETATM    1  C   UNL     1     -11.056  10.234  69.794  1.00  0.00    -0.287 C  
HETATM    2  O   UNL     1     -13.134  11.961  71.730  1.00  0.00    -0.451 OA 
HETATM    3  O   UNL     1     -10.993   9.763  71.147  1.00  0.00    -0.348 OA 
HETATM    4  H   UNL     1     -13.024  12.869  69.377  1.00  0.00     0.000 HD 
HETATM    5  C   UNL     1     -12.333   9.638  71.657  1.00  0.00    -0.404 C  
HETATM    6  H   UNL     1     -13.633  12.646  71.301  1.00  0.00     0.000 HD 
HETATM    7  C   UNL     1     -13.133  10.736  70.970  1.00  0.00    -0.248 C  
HETATM    8  O   UNL     1     -12.201  12.404  69.464  1.00  0.00    -0.208 OA 
HETATM    9  C   UNL     1     -12.396  10.992  69.652  1.00  0.00    -0.234 C  
ENDROOT
BRANCH   1  10
HETATM   10  O   UNL     1     -11.037   9.133  68.882  1.00  0.00    -0.047 OA 
BRANCH  10  11
HETATM   11  C   UNL     1      -9.908   9.017  67.971  1.00  0.00    -0.166 C  
HETATM   12  O   UNL     1      -9.511  11.412  67.947  1.00  0.00    -0.164 OA 
HETATM   13  H2  UNL     1      -8.026   6.512  64.528  1.00  0.00     0.000 HD 
HETATM   14  H   UNL     1      -9.402  12.188  67.410  1.00  0.00     0.000 HD 
HETATM   15  C   UNL     1      -9.732  10.273  67.103  1.00  0.00    -0.173 C  
HETATM   16  H1  UNL     1      -8.817   5.677  65.772  1.00  0.00     0.000 HD 
HETATM   17  C   UNL     1      -8.658   8.969  65.254  1.00  0.00    -0.199 C  
HETATM   18  N   UNL     1      -8.442  11.425  65.358  1.00  0.00    -0.382 NA 
HETATM   19  N   UNL     1      -8.784   6.528  65.209  1.00  0.00    -0.028 NA 
HETATM   20  H1  UNL     1      -7.643  11.370  64.727  1.00  0.00     0.000 HD 
HETATM   21  H2  UNL     1      -8.412  12.260  65.944  1.00  0.00     0.000 HD 
HETATM   22  C   UNL     1      -8.708   7.690  66.100  1.00  0.00    -0.156 C  
HETATM   23  C   UNL     1      -8.531  10.190  66.154  1.00  0.00    -0.130 C  
HETATM   24  C   UNL     1      -9.888   7.704  67.132  1.00  0.00    -0.202 C  
BRANCH  24  25
HETATM   25  O   UNL     1      -9.973   6.511  67.957  1.00  0.00    -0.127 OA 
BRANCH  25  26
HETATM   26  C   UNL     1      -8.731   5.925  68.367  1.00  0.00    -0.112 C  
HETATM   27  O   UNL     1      -8.314   6.434  69.636  1.00  0.00    -0.123 OA 
HETATM   28  C   UNL     1      -9.206   6.072  70.701  1.00  0.00    -0.150 C  
HETATM   29  C   UNL     1      -9.184   4.551  70.902  1.00  0.00    -0.139 C  
HETATM   30  H2  UNL     1      -8.695   4.043  66.367  1.00  0.00     0.000 HD 
HETATM   31  C   UNL     1      -9.621   3.876  69.601  1.00  0.00    -0.189 C  
HETATM   32  O   UNL     1     -10.084   4.095  71.924  1.00  0.00    -0.179 OA 
HETATM   33  H1  UNL     1      -9.292   2.711  67.185  1.00  0.00     0.000 HD 
HETATM   34  H   UNL     1     -10.070   3.154  72.048  1.00  0.00     0.000 HD 
HETATM   35  H   UNL     1      -9.758   2.030  68.932  1.00  0.00     0.000 HD 
HETATM   36  N   UNL     1      -9.257   3.730  67.157  1.00  0.00    -0.168 NA 
HETATM   37  O   UNL     1      -9.487   2.450  69.741  1.00  0.00    -0.119 OA 
HETATM   38  C   UNL     1      -8.784   4.366  68.409  1.00  0.00    -0.100 C  
BRANCH  28  39
HETATM   39  C   UNL     1      -8.785   6.871  71.947  1.00  0.00    -0.126 C  
HETATM   40  H2  UNL     1      -7.744   5.343  72.862  1.00  0.00     0.000 HD 
HETATM   41  N   UNL     1      -8.457   6.030  73.106  1.00  0.00    -0.119 NA 
HETATM   42  H1  UNL     1      -8.178   6.559  73.932  1.00  0.00     0.000 HD 
ENDBRANCH  28  39
ENDBRANCH  25  26
ENDBRANCH  24  25
ENDBRANCH  10  11
ENDBRANCH   1  10
BRANCH   5  43
HETATM   43  C   UNL     1     -12.924   8.246  71.400  1.00  0.00    -0.232 C  
HETATM   44  O   UNL     1     -14.338   8.355  71.206  1.00  0.00    -0.604 OA 
HETATM   45  H   UNL     1     -14.704   7.493  71.048  1.00  0.00     0.000 HD 
ENDBRANCH   5  43
TORSDOF 6
ENDMDL
MODEL      228
REMARK 921   NORMALIZED FREE ENERGY PREDICTED BY IDOCK:   -4.09 KCAL/MOL
REMARK 922        TOTAL FREE ENERGY PREDICTED BY IDOCK:   -7.17 KCAL/MOL
REMARK 923 INTER-LIGAND FREE ENERGY PREDICTED BY IDOCK:   -6.98 KCAL/MOL
REMARK 924 INTRA-LIGAND FREE ENERGY PREDICTED BY IDOCK:   -0.19 KCAL/MOL
REMARK 927      BINDING AFFINITY PREDICTED BY RF-SCORE:    0.00 PKD
ROOT
HETATM    1  C   UNL     1      -6.597  12.391  68.483  1.00  0.00    -0.073 C  
HETATM    2  O   UNL     1      -6.273   9.158  69.186  1.00  0.00    -0.042 OA 
HETATM    3  O   UNL     1      -6.354  11.636  67.287  1.00  0.00    -0.089 OA 
HETATM    4  H   UNL     1      -6.485  10.583  71.260  1.00  0.00     0.000 HD 
HETATM    5  C   UNL     1      -7.181  10.458  67.308  1.00  0.00    -0.089 C  
HETATM    6  H   UNL     1      -6.352   8.920  70.103  1.00  0.00     0.000 HD 
HETATM    7  C   UNL     1      -7.306  10.076  68.777  1.00  0.00    -0.078 C  
HETATM    8  O   UNL     1      -6.169  11.198  70.609  1.00  0.00    -0.326 OA 
HETATM    9  C   UNL     1      -7.112  11.388  69.542  1.00  0.00    -0.019 C  
ENDROOT
BRANCH   1  10
HETATM   10  O   UNL     1      -7.596  13.387  68.250  1.00  0.00    -0.116 OA 
BRANCH  10  11
HETATM   11  C   UNL     1      -7.161  14.706  67.819  1.00  0.00    -0.177 C  
HETATM   12  O   UNL     1      -5.265  14.722  69.334  1.00  0.00    -0.088 OA 
HETATM   13  H2  UNL     1      -8.541  18.804  66.093  1.00  0.00     0.000 HD 
HETATM   14  H   UNL     1      -4.808  15.192  70.023  1.00  0.00     0.000 HD 
HETATM   15  C   UNL     1      -6.423  15.466  68.932  1.00  0.00    -0.108 C  
HETATM   16  H1  UNL     1      -9.305  17.405  65.517  1.00  0.00     0.000 HD 
HETATM   17  C   UNL     1      -7.093  17.691  67.998  1.00  0.00    -0.200 C  
HETATM   18  N   UNL     1      -5.243  17.508  69.621  1.00  0.00    -0.170 NA 
HETATM   19  N   UNL     1      -8.857  17.859  66.313  1.00  0.00    -0.444 NA 
HETATM   20  H1  UNL     1      -4.913  18.428  69.330  1.00  0.00     0.000 HD 
HETATM   21  H2  UNL     1      -4.492  16.934  70.004  1.00  0.00     0.000 HD 
HETATM   22  C   UNL     1      -7.767  17.008  66.802  1.00  0.00    -0.239 C  
HETATM   23  C   UNL     1      -5.927  16.849  68.495  1.00  0.00    -0.143 C  
HETATM   24  C   UNL     1      -8.274  15.565  67.146  1.00  0.00    -0.215 C  
BRANCH  24  25
HETATM   25  O   UNL     1      -8.919  14.879  66.039  1.00  0.00    -0.182 OA 
BRANCH  25  26
HETATM   26  C   UNL     1     -10.293  15.203  65.797  1.00  0.00    -0.339 C  
HETATM   27  O   UNL     1     -10.813  14.457  64.693  1.00  0.00    -0.392 OA 
HETATM   28  C   UNL     1     -10.857  13.045  64.947  1.00  0.00    -0.323 C  
HETATM   29  C   UNL     1     -11.853  12.752  66.077  1.00  0.00    -0.439 C  
HETATM   30  H2  UNL     1     -10.589  16.674  68.097  1.00  0.00     0.000 HD 
HETATM   31  C   UNL     1     -11.404  13.496  67.335  1.00  0.00    -0.311 C  
HETATM   32  O   UNL     1     -11.929  11.361  66.426  1.00  0.00    -0.214 OA 
HETATM   33  H1  UNL     1     -11.306  15.541  69.099  1.00  0.00     0.000 HD 
HETATM   34  H   UNL     1     -12.546  11.180  67.125  1.00  0.00     0.000 HD 
HETATM   35  H   UNL     1     -12.118  13.788  69.145  1.00  0.00     0.000 HD 
HETATM   36  N   UNL     1     -10.718  15.679  68.277  1.00  0.00    -0.272 NA 
HETATM   37  O   UNL     1     -12.397  13.325  68.364  1.00  0.00    -0.158 OA 
HETATM   38  C   UNL     1     -11.193  14.992  67.054  1.00  0.00    -0.328 C  
BRANCH  28  39
HETATM   39  C   UNL     1     -11.199  12.348  63.619  1.00  0.00    -0.474 C  
HETATM   40  H2  UNL     1      -9.583  11.066  63.607  1.00  0.00     0.000 HD 
HETATM   41  N   UNL     1     -10.044  11.714  62.969  1.00  0.00    -0.624 NA 
HETATM   42  H1  UNL     1     -10.271  11.251  62.088  1.00  0.00     0.000 HD 
ENDBRANCH  28  39
ENDBRANCH  25  26
ENDBRANCH  24  25
ENDBRANCH  10  11
ENDBRANCH   1  10
BRANCH   5  43
HETATM   43  C   UNL     1      -8.548  10.696  66.654  1.00  0.00    -0.139 C  
HETATM   44  O   UNL     1      -8.415  10.627  65.230  1.00  0.00    -0.169 OA 
HETATM   45  H   UNL     1      -9.261  10.775  64.825  1.00  0.00     0.000 HD 
ENDBRANCH   5  43
TORSDOF 6
ENDMDL
MODEL      229
REMARK 921   NORMALIZED FREE ENERGY PREDICTED BY IDOCK:   -4.07 KCAL/MOL
REMARK 922        TOTAL FREE ENERGY PREDICTED BY IDOCK:   -7.14 KCAL/MOL
REMARK 923 INTER-LIGAND FREE ENERGY PREDICTED BY IDOCK:   -6.44 KCAL/MOL
REMARK 924 INTRA-LIGAND FREE ENERGY PREDICTED BY IDOCK:   -0.70 KCAL/MOL
REMARK 927      BINDING AFFINITY PREDICTED BY RF-SCORE:    0.00 PKD
ROOT
HETATM    1  C   UNL     1      -6.369  15.700  67.449  1.00  0.00    -0.109 C  
HETATM    2  O   UNL     1      -5.141  14.795  70.403  1.00  0.00    -0.102 OA 
HETATM    3  O   UNL     1      -5.168  14.933  67.283  1.00  0.00    -0.303 OA 
HETATM    4  H   UNL     1      -7.134  16.331  70.613  1.00  0.00     0.000 HD 
HETATM    5  C   UNL     1      -5.222  13.793  68.160  1.00  0.00    -0.109 C  
HETATM    6  H   UNL     1      -5.630  15.084  71.165  1.00  0.00     0.000 HD 
HETATM    7  C   UNL     1      -6.004  14.257  69.381  1.00  0.00    -0.103 C  
HETATM    8  O   UNL     1      -6.808  16.523  69.742  1.00  0.00    -0.159 OA 
HETATM    9  C   UNL     1      -6.900  15.386  68.867  1.00  0.00    -0.124 C  
ENDROOT
BRANCH   1  10
HETATM   10  O   UNL     1      -7.347  15.311  66.481  1.00  0.00     0.131 OA 
BRANCH  10  11
HETATM   11  C   UNL     1      -8.578  16.081  66.403  1.00  0.00    -0.334 C  
HETATM   12  O   UNL     1      -7.484  17.970  65.341  1.00  0.00    -0.482 OA 
HETATM   13  H2  UNL     1     -12.727  16.854  68.369  1.00  0.00     0.000 HD 
HETATM   14  H   UNL     1      -7.323  18.906  65.368  1.00  0.00     0.000 HD 
HETATM   15  C   UNL     1      -8.317  17.595  66.446  1.00  0.00    -0.253 C  
HETATM   16  H1  UNL     1     -12.156  15.259  68.328  1.00  0.00     0.000 HD 
HETATM   17  C   UNL     1     -10.567  18.057  67.447  1.00  0.00    -0.378 C  
HETATM   18  N   UNL     1      -9.257  19.865  66.394  1.00  0.00    -0.392 NA 
HETATM   19  N   UNL     1     -11.908  16.246  68.396  1.00  0.00    -0.071 NA 
HETATM   20  H1  UNL     1     -10.108  20.422  66.321  1.00  0.00     0.000 HD 
HETATM   21  H2  UNL     1      -8.565  20.125  65.692  1.00  0.00     0.000 HD 
HETATM   22  C   UNL     1     -10.939  16.572  67.344  1.00  0.00    -0.121 C  
HETATM   23  C   UNL     1      -9.597  18.433  66.336  1.00  0.00    -0.310 C  
HETATM   24  C   UNL     1      -9.683  15.637  67.409  1.00  0.00    -0.222 C  
BRANCH  24  25
HETATM   25  O   UNL     1      -9.989  14.220  67.314  1.00  0.00    -0.246 OA 
BRANCH  25  26
HETATM   26  C   UNL     1      -9.452  13.377  68.341  1.00  0.00    -0.176 C  
HETATM   27  O   UNL     1     -10.255  13.428  69.523  1.00  0.00     0.344 OA 
HETATM   28  C   UNL     1     -11.572  12.892  69.325  1.00  0.00    -0.310 C  
HETATM   29  C   UNL     1     -11.481  11.391  69.019  1.00  0.00    -0.300 C  
HETATM   30  H2  UNL     1      -7.595  12.182  66.708  1.00  0.00     0.000 HD 
HETATM   31  C   UNL     1     -10.641  11.195  67.757  1.00  0.00    -0.209 C  
HETATM   32  O   UNL     1     -12.755  10.780  68.764  1.00  0.00    -0.572 OA 
HETATM   33  H1  UNL     1      -8.391  10.761  66.324  1.00  0.00     0.000 HD 
HETATM   34  H   UNL     1     -12.698   9.851  68.575  1.00  0.00     0.000 HD 
HETATM   35  H   UNL     1      -9.925   9.665  66.748  1.00  0.00     0.000 HD 
HETATM   36  N   UNL     1      -8.504  11.728  66.626  1.00  0.00    -0.173 NA 
HETATM   37  O   UNL     1     -10.447   9.786  67.532  1.00  0.00    -0.218 OA 
HETATM   38  C   UNL     1      -9.279  11.897  67.878  1.00  0.00    -0.187 C  
BRANCH  28  39
HETATM   39  C   UNL     1     -12.399  13.223  70.579  1.00  0.00    -0.316 C  
HETATM   40  H2  UNL     1     -11.602  15.099  70.894  1.00  0.00     0.000 HD 
HETATM   41  N   UNL     1     -11.793  14.254  71.432  1.00  0.00    -0.449 NA 
HETATM   42  H1  UNL     1     -12.342  14.474  72.264  1.00  0.00     0.000 HD 
ENDBRANCH  28  39
ENDBRANCH  25  26
ENDBRANCH  24  25
ENDBRANCH  10  11
ENDBRANCH   1  10
BRANCH   5  43
HETATM   43  C   UNL     1      -5.867  12.574  67.488  1.00  0.00    -0.145 C  
HETATM   44  O   UNL     1      -5.950  11.498  68.429  1.00  0.00    -0.046 OA 
HETATM   45  H   UNL     1      -6.349  10.743  68.013  1.00  0.00     0.000 HD 
ENDBRANCH   5  43
TORSDOF 6
ENDMDL
MODEL      230
REMARK 921   NORMALIZED FREE ENERGY PREDICTED BY IDOCK:   -4.07 KCAL/MOL
REMARK 922        TOTAL FREE ENERGY PREDICTED BY IDOCK:   -7.14 KCAL/MOL
REMARK 923 INTER-LIGAND FREE ENERGY PREDICTED BY IDOCK:   -5.74 KCAL/MOL
REMARK 924 INTRA-LIGAND FREE ENERGY PREDICTED BY IDOCK:   -1.40 KCAL/MOL
REMARK 927      BINDING AFFINITY PREDICTED BY RF-SCORE:    0.00 PKD
ROOT
HETATM    1  C   UNL     1     -10.808   7.848  70.693  1.00  0.00    -0.237 C  
HETATM    2  O   UNL     1     -12.076   5.699  72.890  1.00  0.00    -0.550 OA 
HETATM    3  O   UNL     1     -12.186   7.578  70.398  1.00  0.00    -0.016 OA 
HETATM    4  H   UNL     1      -9.598   6.059  73.209  1.00  0.00     0.000 HD 
HETATM    5  C   UNL     1     -12.939   7.621  71.624  1.00  0.00    -0.350 C  
HETATM    6  H   UNL     1     -11.482   5.390  73.563  1.00  0.00     0.000 HD 
HETATM    7  C   UNL     1     -11.987   7.125  72.703  1.00  0.00     0.010 C  
HETATM    8  O   UNL     1      -9.734   6.303  72.301  1.00  0.00    -0.157 OA 
HETATM    9  C   UNL     1     -10.588   7.451  72.172  1.00  0.00    -0.220 C  
ENDROOT
BRANCH   1  10
HETATM   10  O   UNL     1     -10.527   9.240  70.530  1.00  0.00    -0.216 OA 
BRANCH  10  11
HETATM   11  C   UNL     1      -9.967   9.682  69.263  1.00  0.00    -0.191 C  
HETATM   12  O   UNL     1     -10.618  11.992  69.629  1.00  0.00    -0.415 OA 
HETATM   13  H2  UNL     1      -8.945   8.426  64.898  1.00  0.00     0.000 HD 
HETATM   14  H   UNL     1     -11.075  12.748  69.280  1.00  0.00     0.000 HD 
HETATM   15  C   UNL     1     -10.706  10.905  68.698  1.00  0.00    -0.203 C  
HETATM   16  H1  UNL     1      -8.706   7.284  66.126  1.00  0.00     0.000 HD 
HETATM   17  C   UNL     1     -10.123  10.296  66.339  1.00  0.00    -0.296 C  
HETATM   18  N   UNL     1     -10.889  12.574  66.903  1.00  0.00    -0.243 NA 
HETATM   19  N   UNL     1      -9.265   8.072  65.798  1.00  0.00    -0.073 NA 
HETATM   20  H1  UNL     1     -10.497  12.910  66.024  1.00  0.00     0.000 HD 
HETATM   21  H2  UNL     1     -10.944  13.311  67.606  1.00  0.00     0.000 HD 
HETATM   22  C   UNL     1      -9.282   9.112  66.833  1.00  0.00    -0.148 C  
HETATM   23  C   UNL     1     -10.118  11.411  67.376  1.00  0.00    -0.184 C  
HETATM   24  C   UNL     1      -9.790   8.551  68.205  1.00  0.00    -0.169 C  
BRANCH  24  25
HETATM   25  O   UNL     1      -9.020   7.427  68.712  1.00  0.00    -0.130 OA 
BRANCH  25  26
HETATM   26  C   UNL     1      -7.596   7.512  68.577  1.00  0.00    -0.114 C  
HETATM   27  O   UNL     1      -7.031   8.353  69.585  1.00  0.00    -0.046 OA 
HETATM   28  C   UNL     1      -7.196   7.824  70.909  1.00  0.00    -0.054 C  
HETATM   29  C   UNL     1      -6.403   6.517  71.048  1.00  0.00    -0.048 C  
HETATM   30  H2  UNL     1      -7.428   5.528  66.685  1.00  0.00     0.000 HD 
HETATM   31  C   UNL     1      -6.919   5.515  70.015  1.00  0.00    -0.061 C  
HETATM   32  O   UNL     1      -6.546   5.894  72.333  1.00  0.00    -0.063 OA 
HETATM   33  H1  UNL     1      -6.996   4.224  67.641  1.00  0.00     0.000 HD 
HETATM   34  H   UNL     1      -6.055   5.085  72.419  1.00  0.00     0.000 HD 
HETATM   35  H   UNL     1      -6.421   3.709  69.412  1.00  0.00     0.000 HD 
HETATM   36  N   UNL     1      -7.449   5.138  67.627  1.00  0.00    -0.082 NA 
HETATM   37  O   UNL     1      -6.101   4.331  70.055  1.00  0.00    -0.018 OA 
HETATM   38  C   UNL     1      -6.904   6.114  68.599  1.00  0.00    -0.070 C  
BRANCH  28  39
HETATM   39  C   UNL     1      -6.770   8.919  71.901  1.00  0.00    -0.011 C  
HETATM   40  H2  UNL     1      -7.204   7.860  73.617  1.00  0.00     0.000 HD 
HETATM   41  N   UNL     1      -7.384   8.787  73.229  1.00  0.00    -0.361 NA 
HETATM   42  H1  UNL     1      -7.101   9.513  73.887  1.00  0.00     0.000 HD 
ENDBRANCH  28  39
ENDBRANCH  25  26
ENDBRANCH  24  25
ENDBRANCH  10  11
ENDBRANCH   1  10
BRANCH   5  43
HETATM   43  C   UNL     1     -13.476   9.026  71.927  1.00  0.00    -0.425 C  
HETATM   44  O   UNL     1     -13.507   9.796  70.720  1.00  0.00    -0.600 OA 
HETATM   45  H   UNL     1     -13.839  10.665  70.907  1.00  0.00     0.000 HD 
ENDBRANCH   5  43
TORSDOF 6
ENDMDL
MODEL      231
REMARK 921   NORMALIZED FREE ENERGY PREDICTED BY IDOCK:   -4.06 KCAL/MOL
REMARK 922        TOTAL FREE ENERGY PREDICTED BY IDOCK:   -7.13 KCAL/MOL
REMARK 923 INTER-LIGAND FREE ENERGY PREDICTED BY IDOCK:   -5.81 KCAL/MOL
REMARK 924 INTRA-LIGAND FREE ENERGY PREDICTED BY IDOCK:   -1.32 KCAL/MOL
REMARK 927      BINDING AFFINITY PREDICTED BY RF-SCORE:    0.00 PKD
ROOT
HETATM    1  C   UNL     1      -8.949   7.945  67.226  1.00  0.00    -0.127 C  
HETATM    2  O   UNL     1      -9.114  11.125  66.271  1.00  0.00    -0.181 OA 
HETATM    3  O   UNL     1      -8.609   8.816  68.313  1.00  0.00    -0.132 OA 
HETATM    4  H   UNL     1      -9.485   9.520  64.358  1.00  0.00     0.000 HD 
HETATM    5  C   UNL     1      -9.559   9.898  68.354  1.00  0.00    -0.148 C  
HETATM    6  H   UNL     1      -9.363  11.278  65.367  1.00  0.00     0.000 HD 
HETATM    7  C   UNL     1      -9.957  10.143  66.905  1.00  0.00    -0.207 C  
HETATM    8  O   UNL     1      -9.002   8.996  64.985  1.00  0.00    -0.202 OA 
HETATM    9  C   UNL     1      -9.736   8.799  66.205  1.00  0.00    -0.250 C  
ENDROOT
BRANCH   1  10
HETATM   10  O   UNL     1      -9.777   6.874  67.685  1.00  0.00    -0.124 OA 
BRANCH  10  11
HETATM   11  C   UNL     1      -9.244   5.522  67.627  1.00  0.00    -0.110 C  
HETATM   12  O   UNL     1      -9.454   5.400  65.212  1.00  0.00    -0.355 OA 
HETATM   13  H2  UNL     1      -8.782   1.501  69.928  1.00  0.00     0.000 HD 
HETATM   14  H   UNL     1      -9.797   4.911  64.473  1.00  0.00     0.000 HD 
HETATM   15  C   UNL     1      -9.799   4.731  66.432  1.00  0.00    -0.219 C  
HETATM   16  H1  UNL     1      -8.656   2.939  70.815  1.00  0.00     0.000 HD 
HETATM   17  C   UNL     1      -9.506   2.542  67.614  1.00  0.00    -0.128 C  
HETATM   18  N   UNL     1      -9.820   2.624  65.167  1.00  0.00    -0.354 NA 
HETATM   19  N   UNL     1      -9.092   2.468  70.022  1.00  0.00    -0.101 NA 
HETATM   20  H1  UNL     1      -9.442   1.680  65.099  1.00  0.00     0.000 HD 
HETATM   21  H2  UNL     1      -9.693   3.152  64.303  1.00  0.00     0.000 HD 
HETATM   22  C   UNL     1      -8.851   3.251  68.806  1.00  0.00    -0.115 C  
HETATM   23  C   UNL     1      -9.231   3.311  66.329  1.00  0.00    -0.145 C  
HETATM   24  C   UNL     1      -9.346   4.730  68.965  1.00  0.00    -0.135 C  
BRANCH  24  25
HETATM   25  O   UNL     1      -8.749   5.441  70.083  1.00  0.00    -0.122 OA 
BRANCH  25  26
HETATM   26  C   UNL     1      -9.321   5.202  71.375  1.00  0.00    -0.148 C  
HETATM   27  O   UNL     1      -8.307   5.099  72.378  1.00  0.00    -0.118 OA 
HETATM   28  C   UNL     1      -7.586   6.325  72.569  1.00  0.00    -0.101 C  
HETATM   29  C   UNL     1      -8.529   7.400  73.124  1.00  0.00    -0.129 C  
HETATM   30  H2  UNL     1     -11.907   5.643  70.563  1.00  0.00     0.000 HD 
HETATM   31  C   UNL     1      -9.672   7.615  72.131  1.00  0.00    -0.173 C  
HETATM   32  O   UNL     1      -7.897   8.677  73.307  1.00  0.00    -0.391 OA 
HETATM   33  H1  UNL     1     -12.119   7.229  71.053  1.00  0.00     0.000 HD 
HETATM   34  H   UNL     1      -8.481   9.342  73.651  1.00  0.00     0.000 HD 
HETATM   35  H   UNL     1     -11.335   8.665  72.081  1.00  0.00     0.000 HD 
HETATM   36  N   UNL     1     -11.437   6.519  70.787  1.00  0.00    -0.340 NA 
HETATM   37  O   UNL     1     -10.625   8.532  72.698  1.00  0.00    -0.304 OA 
HETATM   38  C   UNL     1     -10.365   6.288  71.782  1.00  0.00    -0.206 C  
BRANCH  28  39
HETATM   39  C   UNL     1      -6.386   6.017  73.481  1.00  0.00    -0.065 C  
HETATM   40  H2  UNL     1      -5.750   7.967  73.694  1.00  0.00     0.000 HD 
HETATM   41  N   UNL     1      -5.349   7.057  73.467  1.00  0.00    -0.042 NA 
HETATM   42  H1  UNL     1      -4.553   6.853  74.072  1.00  0.00     0.000 HD 
ENDBRANCH  28  39
ENDBRANCH  25  26
ENDBRANCH  24  25
ENDBRANCH  10  11
ENDBRANCH   1  10
BRANCH   5  43
HETATM   43  C   UNL     1     -10.769   9.574  69.240  1.00  0.00    -0.222 C  
HETATM   44  O   UNL     1     -10.770  10.439  70.381  1.00  0.00    -0.413 OA 
HETATM   45  H   UNL     1     -11.518  10.239  70.930  1.00  0.00     0.000 HD 
ENDBRANCH   5  43
TORSDOF 6
ENDMDL
MODEL      232
REMARK 921   NORMALIZED FREE ENERGY PREDICTED BY IDOCK:   -4.06 KCAL/MOL
REMARK 922        TOTAL FREE ENERGY PREDICTED BY IDOCK:   -7.13 KCAL/MOL
REMARK 923 INTER-LIGAND FREE ENERGY PREDICTED BY IDOCK:   -6.93 KCAL/MOL
REMARK 924 INTRA-LIGAND FREE ENERGY PREDICTED BY IDOCK:   -0.21 KCAL/MOL
REMARK 927      BINDING AFFINITY PREDICTED BY RF-SCORE:    0.00 PKD
ROOT
HETATM    1  C   UNL     1      -6.905  16.550  68.555  1.00  0.00    -0.151 C  
HETATM    2  O   UNL     1      -5.239  19.371  69.118  1.00  0.00    -0.191 OA 
HETATM    3  O   UNL     1      -7.437  17.617  67.758  1.00  0.00    -0.194 OA 
HETATM    4  H   UNL     1      -4.508  17.495  70.642  1.00  0.00     0.000 HD 
HETATM    5  C   UNL     1      -6.342  18.348  67.175  1.00  0.00    -0.174 C  
HETATM    6  H   UNL     1      -4.534  19.320  69.753  1.00  0.00     0.000 HD 
HETATM    7  C   UNL     1      -5.212  18.268  68.192  1.00  0.00    -0.169 C  
HETATM    8  O   UNL     1      -5.384  17.232  70.385  1.00  0.00    -0.225 OA 
HETATM    9  C   UNL     1      -5.479  16.979  68.974  1.00  0.00    -0.144 C  
ENDROOT
BRANCH   1  10
HETATM   10  O   UNL     1      -6.831  15.345  67.790  1.00  0.00    -0.135 OA 
BRANCH  10  11
HETATM   11  C   UNL     1      -7.877  14.351  67.972  1.00  0.00    -0.140 C  
HETATM   12  O   UNL     1      -6.768  13.341  69.881  1.00  0.00    -0.345 OA 
HETATM   13  H2  UNL     1     -11.161  11.832  65.841  1.00  0.00     0.000 HD 
HETATM   14  H   UNL     1      -6.437  12.538  70.268  1.00  0.00     0.000 HD 
HETATM   15  C   UNL     1      -7.341  13.054  68.598  1.00  0.00    -0.097 C  
HETATM   16  H1  UNL     1     -10.923  13.426  65.318  1.00  0.00     0.000 HD 
HETATM   17  C   UNL     1      -9.131  11.673  67.519  1.00  0.00    -0.172 C  
HETATM   18  N   UNL     1      -7.829  10.790  69.421  1.00  0.00    -0.305 NA 
HETATM   19  N   UNL     1     -10.489  12.587  65.703  1.00  0.00    -0.267 NA 
HETATM   20  H1  UNL     1      -8.553  10.089  69.575  1.00  0.00     0.000 HD 
HETATM   21  H2  UNL     1      -7.307  10.997  70.272  1.00  0.00     0.000 HD 
HETATM   22  C   UNL     1      -9.782  12.935  66.940  1.00  0.00    -0.240 C  
HETATM   23  C   UNL     1      -8.429  11.998  68.830  1.00  0.00     0.068 C  
HETATM   24  C   UNL     1      -8.746  14.088  66.706  1.00  0.00    -0.110 C  
BRANCH  24  25
HETATM   25  O   UNL     1      -9.321  15.305  66.159  1.00  0.00    -0.290 OA 
BRANCH  25  26
HETATM   26  C   UNL     1     -10.696  15.561  66.469  1.00  0.00    -0.304 C  
HETATM   27  O   UNL     1     -10.957  15.362  67.861  1.00  0.00    -0.290 OA 
HETATM   28  C   UNL     1     -10.261  16.299  68.697  1.00  0.00    -0.254 C  
HETATM   29  C   UNL     1     -10.783  17.718  68.434  1.00  0.00    -0.197 C  
HETATM   30  H2  UNL     1     -11.292  16.621  64.007  1.00  0.00     0.000 HD 
HETATM   31  C   UNL     1     -10.557  18.062  66.961  1.00  0.00    -0.308 C  
HETATM   32  O   UNL     1     -10.109  18.727  69.201  1.00  0.00    -0.466 OA 
HETATM   33  H1  UNL     1     -11.186  18.257  64.340  1.00  0.00     0.000 HD 
HETATM   34  H   UNL     1     -10.433  19.605  69.038  1.00  0.00     0.000 HD 
HETATM   35  H   UNL     1     -11.013  19.554  65.763  1.00  0.00     0.000 HD 
HETATM   36  N   UNL     1     -10.885  17.324  64.622  1.00  0.00    -0.671 NA 
HETATM   37  O   UNL     1     -11.154  19.340  66.678  1.00  0.00    -0.262 OA 
HETATM   38  C   UNL     1     -11.156  16.988  66.039  1.00  0.00     0.346 C  
BRANCH  28  39
HETATM   39  C   UNL     1     -10.430  15.832  70.153  1.00  0.00    -0.278 C  
HETATM   40  H2  UNL     1      -9.990  13.846  69.814  1.00  0.00     0.000 HD 
HETATM   41  N   UNL     1     -10.707  14.396  70.286  1.00  0.00    -0.388 NA 
HETATM   42  H1  UNL     1     -10.819  14.087  71.252  1.00  0.00     0.000 HD 
ENDBRANCH  28  39
ENDBRANCH  25  26
ENDBRANCH  24  25
ENDBRANCH  10  11
ENDBRANCH   1  10
BRANCH   5  43
HETATM   43  C   UNL     1      -5.931  17.785  65.808  1.00  0.00    -0.144 C  
HETATM   44  O   UNL     1      -6.257  18.731  64.784  1.00  0.00    -0.430 OA 
HETATM   45  H   UNL     1      -6.004  18.383  63.938  1.00  0.00     0.000 HD 
ENDBRANCH   5  43
TORSDOF 6
ENDMDL
MODEL      233
REMARK 921   NORMALIZED FREE ENERGY PREDICTED BY IDOCK:   -4.06 KCAL/MOL
REMARK 922        TOTAL FREE ENERGY PREDICTED BY IDOCK:   -7.13 KCAL/MOL
REMARK 923 INTER-LIGAND FREE ENERGY PREDICTED BY IDOCK:   -6.10 KCAL/MOL
REMARK 924 INTRA-LIGAND FREE ENERGY PREDICTED BY IDOCK:   -1.03 KCAL/MOL
REMARK 927      BINDING AFFINITY PREDICTED BY RF-SCORE:    0.00 PKD
ROOT
HETATM    1  C   UNL     1      -7.929   6.484  66.666  1.00  0.00    -0.109 C  
HETATM    2  O   UNL     1      -7.031   3.331  67.213  1.00  0.00    -0.052 OA 
HETATM    3  O   UNL     1      -8.517   5.615  65.688  1.00  0.00    -0.135 OA 
HETATM    4  H   UNL     1      -5.864   4.951  68.758  1.00  0.00     0.000 HD 
HETATM    5  C   UNL     1      -9.042   4.454  66.357  1.00  0.00    -0.126 C  
HETATM    6  H   UNL     1      -6.455   3.183  67.953  1.00  0.00     0.000 HD 
HETATM    7  C   UNL     1      -8.118   4.216  67.543  1.00  0.00    -0.095 C  
HETATM    8  O   UNL     1      -6.108   5.498  68.021  1.00  0.00    -0.020 OA 
HETATM    9  C   UNL     1      -7.533   5.594  67.867  1.00  0.00    -0.077 C  
ENDROOT
BRANCH   1  10
HETATM   10  O   UNL     1      -8.877   7.464  67.096  1.00  0.00    -0.122 OA 
BRANCH  10  11
HETATM   11  C   UNL     1      -8.416   8.834  67.267  1.00  0.00    -0.111 C  
HETATM   12  O   UNL     1      -7.977   9.123  64.897  1.00  0.00    -0.112 OA 
HETATM   13  H2  UNL     1      -6.394  11.842  70.188  1.00  0.00     0.000 HD 
HETATM   14  H   UNL     1      -7.341   9.372  64.237  1.00  0.00     0.000 HD 
HETATM   15  C   UNL     1      -7.387   9.237  66.199  1.00  0.00    -0.095 C  
HETATM   16  H1  UNL     1      -7.482  10.718  70.839  1.00  0.00     0.000 HD 
HETATM   17  C   UNL     1      -6.312  10.911  67.721  1.00  0.00    -0.062 C  
HETATM   18  N   UNL     1      -5.921  10.984  65.285  1.00  0.00    -0.385 NA 
HETATM   19  N   UNL     1      -6.782  10.902  70.120  1.00  0.00    -0.212 NA 
HETATM   20  H1  UNL     1      -5.602  11.948  65.378  1.00  0.00     0.000 HD 
HETATM   21  H2  UNL     1      -6.283  10.787  64.352  1.00  0.00     0.000 HD 
HETATM   22  C   UNL     1      -7.365  10.634  68.801  1.00  0.00    -0.100 C  
HETATM   23  C   UNL     1      -6.907  10.686  66.338  1.00  0.00    -0.129 C  
HETATM   24  C   UNL     1      -7.944   9.181  68.712  1.00  0.00    -0.100 C  
BRANCH  24  25
HETATM   25  O   UNL     1      -8.948   8.875  69.717  1.00  0.00    -0.140 OA 
BRANCH  25  26
HETATM   26  C   UNL     1     -10.290   8.692  69.248  1.00  0.00    -0.221 C  
HETATM   27  O   UNL     1     -10.829   7.447  69.699  1.00  0.00    -0.239 OA 
HETATM   28  C   UNL     1     -10.977   7.388  71.125  1.00  0.00    -0.246 C  
HETATM   29  C   UNL     1     -12.022   8.415  71.581  1.00  0.00    -0.307 C  
HETATM   30  H2  UNL     1     -10.547  11.253  68.290  1.00  0.00     0.000 HD 
HETATM   31  C   UNL     1     -11.558   9.810  71.161  1.00  0.00    -0.392 C  
HETATM   32  O   UNL     1     -12.203   8.454  73.005  1.00  0.00    -0.573 OA 
HETATM   33  H1  UNL     1     -11.368  11.977  69.556  1.00  0.00     0.000 HD 
HETATM   34  H   UNL     1     -12.850   9.090  73.287  1.00  0.00     0.000 HD 
HETATM   35  H   UNL     1     -12.300  11.632  71.214  1.00  0.00     0.000 HD 
HETATM   36  N   UNL     1     -10.749  11.212  69.288  1.00  0.00    -0.217 NA 
HETATM   37  O   UNL     1     -12.588  10.765  71.475  1.00  0.00    -0.388 OA 
HETATM   38  C   UNL     1     -11.237   9.863  69.659  1.00  0.00    -0.208 C  
BRANCH  28  39
HETATM   39  C   UNL     1     -11.330   5.936  71.493  1.00  0.00    -0.190 C  
HETATM   40  H2  UNL     1     -10.007   5.768  73.066  1.00  0.00     0.000 HD 
HETATM   41  N   UNL     1     -10.270   5.240  72.234  1.00  0.00    -0.193 NA 
HETATM   42  H1  UNL     1     -10.504   4.277  72.479  1.00  0.00     0.000 HD 
ENDBRANCH  28  39
ENDBRANCH  25  26
ENDBRANCH  24  25
ENDBRANCH  10  11
ENDBRANCH   1  10
BRANCH   5  43
HETATM   43  C   UNL     1     -10.502   4.644  66.789  1.00  0.00    -0.030 C  
HETATM   44  O   UNL     1     -11.069   5.752  66.082  1.00  0.00    -0.721 OA 
HETATM   45  H   UNL     1     -11.973   5.870  66.349  1.00  0.00     0.000 HD 
ENDBRANCH   5  43
TORSDOF 6
ENDMDL
MODEL      234
REMARK 921   NORMALIZED FREE ENERGY PREDICTED BY IDOCK:   -4.02 KCAL/MOL
REMARK 922        TOTAL FREE ENERGY PREDICTED BY IDOCK:   -7.07 KCAL/MOL
REMARK 923 INTER-LIGAND FREE ENERGY PREDICTED BY IDOCK:   -6.53 KCAL/MOL
REMARK 924 INTRA-LIGAND FREE ENERGY PREDICTED BY IDOCK:   -0.54 KCAL/MOL
REMARK 927      BINDING AFFINITY PREDICTED BY RF-SCORE:    0.00 PKD
ROOT
HETATM    1  C   UNL     1      -7.535   8.366  66.779  1.00  0.00    -0.083 C  
HETATM    2  O   UNL     1      -8.389   6.980  63.880  1.00  0.00    -0.342 OA 
HETATM    3  O   UNL     1      -6.410   8.321  65.890  1.00  0.00    -0.051 OA 
HETATM    4  H   UNL     1     -10.255   6.899  65.579  1.00  0.00     0.000 HD 
HETATM    5  C   UNL     1      -6.836   8.750  64.584  1.00  0.00    -0.073 C  
HETATM    6  H   UNL     1      -9.292   6.698  63.802  1.00  0.00     0.000 HD 
HETATM    7  C   UNL     1      -8.283   8.296  64.459  1.00  0.00    -0.135 C  
HETATM    8  O   UNL     1      -9.479   6.982  66.119  1.00  0.00    -0.117 OA 
HETATM    9  C   UNL     1      -8.799   8.229  65.899  1.00  0.00    -0.160 C  
ENDROOT
BRANCH   1  10
HETATM   10  O   UNL     1      -7.574   9.615  67.472  1.00  0.00    -0.094 OA 
BRANCH  10  11
HETATM   11  C   UNL     1      -8.166   9.644  68.801  1.00  0.00    -0.106 C  
HETATM   12  O   UNL     1      -6.675   7.926  69.647  1.00  0.00    -0.041 OA 
HETATM   13  H2  UNL     1     -12.049  10.476  71.231  1.00  0.00     0.000 HD 
HETATM   14  H   UNL     1      -6.607   7.087  70.087  1.00  0.00     0.000 HD 
HETATM   15  C   UNL     1      -8.056   8.287  69.513  1.00  0.00    -0.114 C  
HETATM   16  H1  UNL     1     -11.714  11.479  69.907  1.00  0.00     0.000 HD 
HETATM   17  C   UNL     1     -10.105   8.725  70.885  1.00  0.00    -0.276 C  
HETATM   18  N   UNL     1      -8.507   6.960  71.532  1.00  0.00    -0.115 NA 
HETATM   19  N   UNL     1     -11.634  10.542  70.302  1.00  0.00    -0.307 NA 
HETATM   20  H1  UNL     1      -8.899   6.967  72.473  1.00  0.00     0.000 HD 
HETATM   21  H2  UNL     1      -7.541   6.631  71.520  1.00  0.00     0.000 HD 
HETATM   22  C   UNL     1     -10.225  10.134  70.290  1.00  0.00    -0.120 C  
HETATM   23  C   UNL     1      -8.646   8.296  70.928  1.00  0.00    -0.137 C  
HETATM   24  C   UNL     1      -9.610  10.229  68.852  1.00  0.00    -0.190 C  
BRANCH  24  25
HETATM   25  O   UNL     1      -9.700  11.549  68.251  1.00  0.00    -0.185 OA 
BRANCH  25  26
HETATM   26  C   UNL     1     -10.992  11.952  67.779  1.00  0.00    -0.228 C  
HETATM   27  O   UNL     1     -11.509  13.036  68.554  1.00  0.00    -0.261 OA 
HETATM   28  C   UNL     1     -10.732  14.236  68.422  1.00  0.00    -0.251 C  
HETATM   29  C   UNL     1     -10.818  14.754  66.980  1.00  0.00    -0.315 C  
HETATM   30  H2  UNL     1     -10.897  10.407  65.510  1.00  0.00     0.000 HD 
HETATM   31  C   UNL     1     -10.282  13.677  66.036  1.00  0.00    -0.307 C  
HETATM   32  O   UNL     1     -10.032  15.933  66.748  1.00  0.00    -0.235 OA 
HETATM   33  H1  UNL     1     -10.420  11.546  64.380  1.00  0.00     0.000 HD 
HETATM   34  H   UNL     1     -10.085  16.254  65.855  1.00  0.00     0.000 HD 
HETATM   35  H   UNL     1     -10.139  13.435  64.089  1.00  0.00     0.000 HD 
HETATM   36  N   UNL     1     -10.421  11.298  65.370  1.00  0.00    -0.266 NA 
HETATM   37  O   UNL     1     -10.472  14.105  64.675  1.00  0.00    -0.434 OA 
HETATM   38  C   UNL     1     -10.989  12.332  66.265  1.00  0.00    -0.291 C  
BRANCH  28  39
HETATM   39  C   UNL     1     -11.243  15.235  69.475  1.00  0.00    -0.281 C  
HETATM   40  H2  UNL     1     -12.937  14.180  69.994  1.00  0.00     0.000 HD 
HETATM   41  N   UNL     1     -12.685  15.134  69.737  1.00  0.00    -0.613 NA 
HETATM   42  H1  UNL     1     -13.023  15.796  70.435  1.00  0.00     0.000 HD 
ENDBRANCH  28  39
ENDBRANCH  25  26
ENDBRANCH  24  25
ENDBRANCH  10  11
ENDBRANCH   1  10
BRANCH   5  43
HETATM   43  C   UNL     1      -6.686  10.266  64.393  1.00  0.00    -0.066 C  
HETATM   44  O   UNL     1      -7.549  10.702  63.338  1.00  0.00    -0.338 OA 
HETATM   45  H   UNL     1      -7.456  11.640  63.220  1.00  0.00     0.000 HD 
ENDBRANCH   5  43
TORSDOF 6
ENDMDL
MODEL      235
REMARK 921   NORMALIZED FREE ENERGY PREDICTED BY IDOCK:   -3.99 KCAL/MOL
REMARK 922        TOTAL FREE ENERGY PREDICTED BY IDOCK:   -7.04 KCAL/MOL
REMARK 923 INTER-LIGAND FREE ENERGY PREDICTED BY IDOCK:   -6.24 KCAL/MOL
REMARK 924 INTRA-LIGAND FREE ENERGY PREDICTED BY IDOCK:   -0.80 KCAL/MOL
REMARK 927      BINDING AFFINITY PREDICTED BY RF-SCORE:    0.00 PKD
ROOT
HETATM    1  C   UNL     1     -10.952   9.876  70.882  1.00  0.00    -0.322 C  
HETATM    2  O   UNL     1     -13.777   9.825  72.632  1.00  0.00    -0.681 OA 
HETATM    3  O   UNL     1     -10.808   9.053  72.048  1.00  0.00    -0.352 OA 
HETATM    4  H   UNL     1     -13.877  11.423  70.681  1.00  0.00     0.000 HD 
HETATM    5  C   UNL     1     -11.975   8.219  72.173  1.00  0.00    -0.369 C  
HETATM    6  H   UNL     1     -14.495  10.339  72.282  1.00  0.00     0.000 HD 
HETATM    7  C   UNL     1     -13.125   9.043  71.612  1.00  0.00    -0.365 C  
HETATM    8  O   UNL     1     -12.945  11.343  70.843  1.00  0.00    -0.259 OA 
HETATM    9  C   UNL     1     -12.470  10.006  70.618  1.00  0.00    -0.236 C  
ENDROOT
BRANCH   1  10
HETATM   10  O   UNL     1     -10.327   9.257  69.755  1.00  0.00    -0.198 OA 
BRANCH  10  11
HETATM   11  C   UNL     1      -9.020   9.743  69.343  1.00  0.00    -0.190 C  
HETATM   12  O   UNL     1      -9.850  11.976  68.877  1.00  0.00    -0.400 OA 
HETATM   13  H2  UNL     1      -4.926   8.562  67.466  1.00  0.00     0.000 HD 
HETATM   14  H   UNL     1      -9.914  12.678  68.239  1.00  0.00     0.000 HD 
HETATM   15  C   UNL     1      -9.122  10.878  68.311  1.00  0.00    -0.158 C  
HETATM   16  H1  UNL     1      -5.657   7.461  68.527  1.00  0.00     0.000 HD 
HETATM   17  C   UNL     1      -6.895  10.312  67.316  1.00  0.00    -0.081 C  
HETATM   18  N   UNL     1      -7.949  12.503  66.889  1.00  0.00    -0.381 NA 
HETATM   19  N   UNL     1      -5.804   8.183  67.822  1.00  0.00    -0.041 NA 
HETATM   20  H1  UNL     1      -7.042  12.870  66.604  1.00  0.00     0.000 HD 
HETATM   21  H2  UNL     1      -8.571  13.236  67.230  1.00  0.00     0.000 HD 
HETATM   22  C   UNL     1      -6.675   9.225  68.375  1.00  0.00    -0.059 C  
HETATM   23  C   UNL     1      -7.759  11.431  67.881  1.00  0.00    -0.114 C  
HETATM   24  C   UNL     1      -8.024   8.627  68.905  1.00  0.00    -0.113 C  
BRANCH  24  25
HETATM   25  O   UNL     1      -7.863   7.594  69.913  1.00  0.00    -0.098 OA 
BRANCH  25  26
HETATM   26  C   UNL     1      -8.780   6.494  69.857  1.00  0.00    -0.140 C  
HETATM   27  O   UNL     1      -9.049   6.114  68.505  1.00  0.00    -0.118 OA 
HETATM   28  C   UNL     1      -7.892   5.601  67.830  1.00  0.00    -0.097 C  
HETATM   29  C   UNL     1      -7.447   4.287  68.488  1.00  0.00    -0.060 C  
HETATM   30  H2  UNL     1      -8.705   5.997  72.558  1.00  0.00     0.000 HD 
HETATM   31  C   UNL     1      -7.119   4.558  69.957  1.00  0.00    -0.049 C  
HETATM   32  O   UNL     1      -6.265   3.724  67.900  1.00  0.00    -0.031 OA 
HETATM   33  H1  UNL     1      -7.605   4.736  72.610  1.00  0.00     0.000 HD 
HETATM   34  H   UNL     1      -5.991   2.910  68.307  1.00  0.00     0.000 HD 
HETATM   35  H   UNL     1      -6.617   3.480  71.525  1.00  0.00     0.000 HD 
HETATM   36  N   UNL     1      -7.927   5.545  72.078  1.00  0.00    -0.109 NA 
HETATM   37  O   UNL     1      -6.820   3.311  70.612  1.00  0.00    -0.032 OA 
HETATM   38  C   UNL     1      -8.288   5.256  70.671  1.00  0.00    -0.113 C  
BRANCH  28  39
HETATM   39  C   UNL     1      -8.250   5.461  66.341  1.00  0.00    -0.109 C  
HETATM   40  H2  UNL     1      -8.445   7.478  65.959  1.00  0.00     0.000 HD 
HETATM   41  N   UNL     1      -8.969   6.619  65.794  1.00  0.00    -0.333 NA 
HETATM   42  H1  UNL     1      -9.206   6.526  64.806  1.00  0.00     0.000 HD 
ENDBRANCH  28  39
ENDBRANCH  25  26
ENDBRANCH  24  25
ENDBRANCH  10  11
ENDBRANCH   1  10
BRANCH   5  43
HETATM   43  C   UNL     1     -11.811   6.880  71.441  1.00  0.00    -0.330 C  
HETATM   44  O   UNL     1     -11.648   5.829  72.399  1.00  0.00    -0.301 OA 
HETATM   45  H   UNL     1     -11.547   5.000  71.946  1.00  0.00     0.000 HD 
ENDBRANCH   5  43
TORSDOF 6
ENDMDL
MODEL      236
REMARK 921   NORMALIZED FREE ENERGY PREDICTED BY IDOCK:   -3.99 KCAL/MOL
REMARK 922        TOTAL FREE ENERGY PREDICTED BY IDOCK:   -7.04 KCAL/MOL
REMARK 923 INTER-LIGAND FREE ENERGY PREDICTED BY IDOCK:   -6.33 KCAL/MOL
REMARK 924 INTRA-LIGAND FREE ENERGY PREDICTED BY IDOCK:   -0.71 KCAL/MOL
REMARK 927      BINDING AFFINITY PREDICTED BY RF-SCORE:    0.00 PKD
ROOT
HETATM    1  C   UNL     1     -11.574  11.731  69.905  1.00  0.00    -0.274 C  
HETATM    2  O   UNL     1     -13.228  12.306  72.730  1.00  0.00    -0.332 OA 
HETATM    3  O   UNL     1     -11.504  10.590  70.772  1.00  0.00    -0.331 OA 
HETATM    4  H   UNL     1     -13.118  14.342  71.242  1.00  0.00     0.000 HD 
HETATM    5  C   UNL     1     -12.814  10.340  71.314  1.00  0.00    -0.422 C  
HETATM    6  H   UNL     1     -13.637  13.160  72.809  1.00  0.00     0.000 HD 
HETATM    7  C   UNL     1     -13.468  11.709  71.441  1.00  0.00     0.280 C  
HETATM    8  O   UNL     1     -12.376  13.825  70.951  1.00  0.00    -0.349 OA 
HETATM    9  C   UNL     1     -12.783  12.572  70.379  1.00  0.00     0.097 C  
ENDROOT
BRANCH   1  10
HETATM   10  O   UNL     1     -11.786  11.318  68.553  1.00  0.00    -0.438 OA 
BRANCH  10  11
HETATM   11  C   UNL     1     -10.824  11.741  67.548  1.00  0.00    -0.239 C  
HETATM   12  O   UNL     1     -12.203  13.601  66.819  1.00  0.00    -0.406 OA 
HETATM   13  H2  UNL     1      -7.452  10.333  64.663  1.00  0.00     0.000 HD 
HETATM   14  H   UNL     1     -12.620  14.033  66.083  1.00  0.00     0.000 HD 
HETATM   15  C   UNL     1     -11.499  12.440  66.357  1.00  0.00    -0.373 C  
HETATM   16  H1  UNL     1      -7.540   9.606  66.191  1.00  0.00     0.000 HD 
HETATM   17  C   UNL     1      -9.671  11.755  64.788  1.00  0.00    -0.184 C  
HETATM   18  N   UNL     1     -11.233  13.571  64.192  1.00  0.00    -0.546 NA 
HETATM   19  N   UNL     1      -8.060  10.028  65.422  1.00  0.00    -0.137 NA 
HETATM   20  H1  UNL     1     -10.571  13.892  63.486  1.00  0.00     0.000 HD 
HETATM   21  H2  UNL     1     -11.840  14.322  64.520  1.00  0.00     0.000 HD 
HETATM   22  C   UNL     1      -8.889  11.120  65.944  1.00  0.00    -0.186 C  
HETATM   23  C   UNL     1     -10.504  12.924  65.296  1.00  0.00    -0.296 C  
HETATM   24  C   UNL     1      -9.827  10.629  67.100  1.00  0.00    -0.175 C  
BRANCH  24  25
HETATM   25  O   UNL     1      -9.127  10.022  68.219  1.00  0.00    -0.121 OA 
BRANCH  25  26
HETATM   26  C   UNL     1      -8.631   8.692  68.020  1.00  0.00    -0.137 C  
HETATM   27  O   UNL     1      -7.729   8.316  69.063  1.00  0.00    -0.094 OA 
HETATM   28  C   UNL     1      -8.366   8.231  70.346  1.00  0.00    -0.120 C  
HETATM   29  C   UNL     1      -9.398   7.095  70.339  1.00  0.00    -0.159 C  
HETATM   30  H2  UNL     1     -10.361   8.109  65.968  1.00  0.00     0.000 HD 
HETATM   31  C   UNL     1     -10.439   7.380  69.256  1.00  0.00    -0.220 C  
HETATM   32  O   UNL     1     -10.116   6.965  71.575  1.00  0.00    -0.185 OA 
HETATM   33  H1  UNL     1     -11.545   7.261  66.793  1.00  0.00     0.000 HD 
HETATM   34  H   UNL     1     -10.755   6.262  71.570  1.00  0.00     0.000 HD 
HETATM   35  H   UNL     1     -11.986   6.440  68.485  1.00  0.00     0.000 HD 
HETATM   36  N   UNL     1     -10.799   7.952  66.875  1.00  0.00    -0.173 NA 
HETATM   37  O   UNL     1     -11.339   6.262  69.158  1.00  0.00    -0.395 OA 
HETATM   38  C   UNL     1      -9.772   7.635  67.894  1.00  0.00    -0.148 C  
BRANCH  28  39
HETATM   39  C   UNL     1      -7.259   8.060  71.401  1.00  0.00    -0.068 C  
HETATM   40  H2  UNL     1      -8.403   8.608  73.028  1.00  0.00     0.000 HD 
HETATM   41  N   UNL     1      -7.490   8.830  72.631  1.00  0.00    -0.355 NA 
HETATM   42  H1  UNL     1      -6.756   8.716  73.331  1.00  0.00     0.000 HD 
ENDBRANCH  28  39
ENDBRANCH  25  26
ENDBRANCH  24  25
ENDBRANCH  10  11
ENDBRANCH   1  10
BRANCH   5  43
HETATM   43  C   UNL     1     -13.634   9.386  70.436  1.00  0.00     0.740 C  
HETATM   44  O   UNL     1     -13.935   8.197  71.175  1.00  0.00    -0.580 OA 
HETATM   45  H   UNL     1     -14.442   7.606  70.632  1.00  0.00     0.000 HD 
ENDBRANCH   5  43
TORSDOF 6
ENDMDL
MODEL      237
REMARK 921   NORMALIZED FREE ENERGY PREDICTED BY IDOCK:   -3.97 KCAL/MOL
REMARK 922        TOTAL FREE ENERGY PREDICTED BY IDOCK:   -7.00 KCAL/MOL
REMARK 923 INTER-LIGAND FREE ENERGY PREDICTED BY IDOCK:   -5.79 KCAL/MOL
REMARK 924 INTRA-LIGAND FREE ENERGY PREDICTED BY IDOCK:   -1.22 KCAL/MOL
REMARK 927      BINDING AFFINITY PREDICTED BY RF-SCORE:    0.00 PKD
ROOT
HETATM    1  C   UNL     1      -9.698   8.993  66.896  1.00  0.00    -0.200 C  
HETATM    2  O   UNL     1     -10.572  12.129  66.223  1.00  0.00    -0.238 OA 
HETATM    3  O   UNL     1      -9.688   9.227  65.480  1.00  0.00    -0.277 OA 
HETATM    4  H   UNL     1     -10.776  11.573  68.678  1.00  0.00     0.000 HD 
HETATM    5  C   UNL     1      -9.040  10.487  65.225  1.00  0.00    -0.190 C  
HETATM    6  H   UNL     1     -10.776  12.676  66.973  1.00  0.00     0.000 HD 
HETATM    7  C   UNL     1      -9.368  11.363  66.426  1.00  0.00    -0.204 C  
HETATM    8  O   UNL     1     -10.828  10.721  68.261  1.00  0.00    -0.195 OA 
HETATM    9  C   UNL     1      -9.613  10.381  67.574  1.00  0.00    -0.156 C  
ENDROOT
BRANCH   1  10
HETATM   10  O   UNL     1      -8.567   8.209  67.280  1.00  0.00    -0.123 OA 
BRANCH  10  11
HETATM   11  C   UNL     1      -8.755   6.778  67.465  1.00  0.00    -0.119 C  
HETATM   12  O   UNL     1      -8.930   6.359  65.080  1.00  0.00    -0.361 OA 
HETATM   13  H2  UNL     1     -10.365   3.480  70.329  1.00  0.00     0.000 HD 
HETATM   14  H   UNL     1      -9.447   5.973  64.382  1.00  0.00     0.000 HD 
HETATM   15  C   UNL     1      -9.590   6.154  66.336  1.00  0.00    -0.127 C  
HETATM   16  H1  UNL     1      -9.582   4.814  71.020  1.00  0.00     0.000 HD 
HETATM   17  C   UNL     1     -10.429   4.327  67.830  1.00  0.00     0.599 C  
HETATM   18  N   UNL     1     -10.596   4.127  65.376  1.00  0.00    -0.505 NA 
HETATM   19  N   UNL     1     -10.169   4.478  70.257  1.00  0.00    -0.167 NA 
HETATM   20  H1  UNL     1     -10.722   3.121  65.479  1.00  0.00     0.000 HD 
HETATM   21  H2  UNL     1     -10.205   4.375  64.467  1.00  0.00     0.000 HD 
HETATM   22  C   UNL     1      -9.546   4.833  68.978  1.00  0.00    -0.165 C  
HETATM   23  C   UNL     1      -9.780   4.640  66.490  1.00  0.00    -0.201 C  
HETATM   24  C   UNL     1      -9.265   6.371  68.880  1.00  0.00    -0.128 C  
BRANCH  24  25
HETATM   25  O   UNL     1      -8.429   6.894  69.948  1.00  0.00    -0.137 OA 
BRANCH  25  26
HETATM   26  C   UNL     1      -8.667   8.251  70.344  1.00  0.00    -0.139 C  
HETATM   27  O   UNL     1      -9.888   8.367  71.077  1.00  0.00    -0.174 OA 
HETATM   28  C   UNL     1      -9.854   7.669  72.331  1.00  0.00    -0.181 C  
HETATM   29  C   UNL     1      -8.817   8.318  73.258  1.00  0.00    -0.213 C  
HETATM   30  H2  UNL     1      -6.182   9.147  69.592  1.00  0.00     0.000 HD 
HETATM   31  C   UNL     1      -7.445   8.254  72.585  1.00  0.00    -0.112 C  
HETATM   32  O   UNL     1      -8.685   7.654  74.524  1.00  0.00    -0.380 OA 
HETATM   33  H1  UNL     1      -5.389   9.133  71.066  1.00  0.00     0.000 HD 
HETATM   34  H   UNL     1      -8.043   8.056  75.097  1.00  0.00     0.000 HD 
HETATM   35  H   UNL     1      -5.637   8.928  72.971  1.00  0.00     0.000 HD 
HETATM   36  N   UNL     1      -6.159   8.738  70.526  1.00  0.00    -0.031 NA 
HETATM   37  O   UNL     1      -6.490   8.968  73.390  1.00  0.00    -0.319 OA 
HETATM   38  C   UNL     1      -7.489   8.853  71.170  1.00  0.00    -0.106 C  
BRANCH  28  39
HETATM   39  C   UNL     1     -11.283   7.669  72.899  1.00  0.00    -0.372 C  
HETATM   40  H2  UNL     1     -12.183   8.550  71.266  1.00  0.00     0.000 HD 
HETATM   41  N   UNL     1     -12.167   8.665  72.279  1.00  0.00    -0.379 NA 
HETATM   42  H1  UNL     1     -13.115   8.665  72.656  1.00  0.00     0.000 HD 
ENDBRANCH  28  39
ENDBRANCH  25  26
ENDBRANCH  24  25
ENDBRANCH  10  11
ENDBRANCH   1  10
BRANCH   5  43
HETATM   43  C   UNL     1      -7.527  10.330  65.019  1.00  0.00    -0.120 C  
HETATM   44  O   UNL     1      -6.832  11.249  65.869  1.00  0.00    -0.366 OA 
HETATM   45  H   UNL     1      -5.896  11.152  65.741  1.00  0.00     0.000 HD 
ENDBRANCH   5  43
TORSDOF 6
ENDMDL
MODEL      238
REMARK 921   NORMALIZED FREE ENERGY PREDICTED BY IDOCK:   -3.94 KCAL/MOL
REMARK 922        TOTAL FREE ENERGY PREDICTED BY IDOCK:   -6.97 KCAL/MOL
REMARK 923 INTER-LIGAND FREE ENERGY PREDICTED BY IDOCK:   -6.08 KCAL/MOL
REMARK 924 INTRA-LIGAND FREE ENERGY PREDICTED BY IDOCK:   -0.89 KCAL/MOL
REMARK 927      BINDING AFFINITY PREDICTED BY RF-SCORE:    0.00 PKD
ROOT
HETATM    1  C   UNL     1      -8.030   7.372  66.782  1.00  0.00    -0.115 C  
HETATM    2  O   UNL     1      -5.137   5.986  65.911  1.00  0.00    -0.011 OA 
HETATM    3  O   UNL     1      -8.236   6.356  65.790  1.00  0.00    -0.120 OA 
HETATM    4  H   UNL     1      -4.840   7.932  67.492  1.00  0.00     0.000 HD 
HETATM    5  C   UNL     1      -7.454   5.200  66.143  1.00  0.00    -0.086 C  
HETATM    6  H   UNL     1      -4.363   6.326  66.345  1.00  0.00     0.000 HD 
HETATM    7  C   UNL     1      -6.214   5.745  66.838  1.00  0.00    -0.034 C  
HETATM    8  O   UNL     1      -5.687   8.105  67.098  1.00  0.00    -0.036 OA 
HETATM    9  C   UNL     1      -6.651   7.090  67.423  1.00  0.00    -0.055 C  
ENDROOT
BRANCH   1  10
HETATM   10  O   UNL     1      -9.043   7.299  67.788  1.00  0.00    -0.126 OA 
BRANCH  10  11
HETATM   11  C   UNL     1      -9.159   8.405  68.726  1.00  0.00    -0.143 C  
HETATM   12  O   UNL     1      -7.722   7.338  70.366  1.00  0.00    -0.090 OA 
HETATM   13  H2  UNL     1     -11.882  11.874  70.217  1.00  0.00     0.000 HD 
HETATM   14  H   UNL     1      -7.630   7.055  71.268  1.00  0.00     0.000 HD 
HETATM   15  C   UNL     1      -9.009   7.946  70.185  1.00  0.00    -0.151 C  
HETATM   16  H1  UNL     1     -11.865  11.541  68.556  1.00  0.00     0.000 HD 
HETATM   17  C   UNL     1     -10.417   9.836  71.031  1.00  0.00    -0.230 C  
HETATM   18  N   UNL     1      -8.952   8.569  72.561  1.00  0.00    -0.333 NA 
HETATM   19  N   UNL     1     -11.789  11.157  69.498  1.00  0.00    -0.323 NA 
HETATM   20  H1  UNL     1      -9.011   9.335  73.232  1.00  0.00     0.000 HD 
HETATM   21  H2  UNL     1      -8.098   8.023  72.674  1.00  0.00     0.000 HD 
HETATM   22  C   UNL     1     -10.531  10.412  69.614  1.00  0.00    -0.243 C  
HETATM   23  C   UNL     1      -9.097   9.097  71.194  1.00  0.00    -0.205 C  
HETATM   24  C   UNL     1     -10.412   9.306  68.510  1.00  0.00    -0.206 C  
BRANCH  24  25
HETATM   25  O   UNL     1     -10.513   9.809  67.150  1.00  0.00    -0.243 OA 
BRANCH  25  26
HETATM   26  C   UNL     1      -9.550  10.795  66.758  1.00  0.00    -0.172 C  
HETATM   27  O   UNL     1      -8.612  10.257  65.823  1.00  0.00    -0.143 OA 
HETATM   28  C   UNL     1      -9.218   9.888  64.575  1.00  0.00    -0.261 C  
HETATM   29  C   UNL     1      -9.751  11.140  63.866  1.00  0.00    -0.286 C  
HETATM   30  H2  UNL     1     -10.861  12.885  67.963  1.00  0.00     0.000 HD 
HETATM   31  C   UNL     1     -10.783  11.817  64.770  1.00  0.00    -0.302 C  
HETATM   32  O   UNL     1     -10.414  10.857  62.625  1.00  0.00    -0.760 OA 
HETATM   33  H1  UNL     1     -11.674  13.538  66.653  1.00  0.00     0.000 HD 
HETATM   34  H   UNL     1     -10.744  11.632  62.186  1.00  0.00     0.000 HD 
HETATM   35  H   UNL     1     -11.838  13.477  64.729  1.00  0.00     0.000 HD 
HETATM   36  N   UNL     1     -11.243  12.696  67.037  1.00  0.00    -0.284 NA 
HETATM   37  O   UNL     1     -11.198  13.056  64.168  1.00  0.00    -0.362 OA 
HETATM   38  C   UNL     1     -10.210  12.082  66.171  1.00  0.00    -0.226 C  
BRANCH  28  39
HETATM   39  C   UNL     1      -8.167   9.112  63.763  1.00  0.00    -0.173 C  
HETATM   40  H2  UNL     1      -6.616   9.351  65.101  1.00  0.00     0.000 HD 
HETATM   41  N   UNL     1      -6.781   9.462  64.101  1.00  0.00    -0.092 NA 
HETATM   42  H1  UNL     1      -6.084   8.947  63.562  1.00  0.00     0.000 HD 
ENDBRANCH  28  39
ENDBRANCH  25  26
ENDBRANCH  24  25
ENDBRANCH  10  11
ENDBRANCH   1  10
BRANCH   5  43
HETATM   43  C   UNL     1      -8.233   4.223  67.033  1.00  0.00    -0.101 C  
HETATM   44  O   UNL     1      -9.366   3.723  66.314  1.00  0.00    -0.161 OA 
HETATM   45  H   UNL     1      -9.849   3.118  66.865  1.00  0.00     0.000 HD 
ENDBRANCH   5  43
TORSDOF 6
ENDMDL
MODEL      239
REMARK 921   NORMALIZED FREE ENERGY PREDICTED BY IDOCK:   -3.94 KCAL/MOL
REMARK 922        TOTAL FREE ENERGY PREDICTED BY IDOCK:   -6.96 KCAL/MOL
REMARK 923 INTER-LIGAND FREE ENERGY PREDICTED BY IDOCK:   -6.26 KCAL/MOL
REMARK 924 INTRA-LIGAND FREE ENERGY PREDICTED BY IDOCK:   -0.70 KCAL/MOL
REMARK 927      BINDING AFFINITY PREDICTED BY RF-SCORE:    0.00 PKD
ROOT
HETATM    1  C   UNL     1     -10.180  12.685  66.037  1.00  0.00    -0.272 C  
HETATM    2  O   UNL     1     -13.421  13.421  66.040  1.00  0.00     0.085 OA 
HETATM    3  O   UNL     1     -10.656  12.870  64.696  1.00  0.00    -0.323 OA 
HETATM    4  H   UNL     1     -12.553  12.867  68.345  1.00  0.00     0.000 HD 
HETATM    5  C   UNL     1     -11.487  14.045  64.658  1.00  0.00    -0.383 C  
HETATM    6  H   UNL     1     -13.840  13.464  66.891  1.00  0.00     0.000 HD 
HETATM    7  C   UNL     1     -12.157  14.113  66.023  1.00  0.00    -0.432 C  
HETATM    8  O   UNL     1     -11.927  12.440  67.773  1.00  0.00    -0.429 OA 
HETATM    9  C   UNL     1     -11.200  13.382  66.968  1.00  0.00    -0.305 C  
ENDROOT
BRANCH   1  10
HETATM   10  O   UNL     1      -8.897  13.297  66.199  1.00  0.00     0.114 OA 
BRANCH  10  11
HETATM   11  C   UNL     1      -8.516  13.747  67.528  1.00  0.00    -0.196 C  
HETATM   12  O   UNL     1      -9.548  15.924  67.231  1.00  0.00    -0.216 OA 
HETATM   13  H2  UNL     1      -5.385  13.325  70.948  1.00  0.00     0.000 HD 
HETATM   14  H   UNL     1      -9.429  16.866  67.270  1.00  0.00     0.000 HD 
HETATM   15  C   UNL     1      -8.324  15.270  67.591  1.00  0.00    -0.164 C  
HETATM   16  H1  UNL     1      -5.819  11.926  70.096  1.00  0.00     0.000 HD 
HETATM   17  C   UNL     1      -6.682  15.088  69.474  1.00  0.00    -0.167 C  
HETATM   18  N   UNL     1      -7.776  17.239  68.956  1.00  0.00    -0.216 NA 
HETATM   19  N   UNL     1      -5.677  12.936  70.052  1.00  0.00    -0.124 NA 
HETATM   20  H1  UNL     1      -7.528  17.575  69.886  1.00  0.00     0.000 HD 
HETATM   21  H2  UNL     1      -8.597  17.715  68.581  1.00  0.00     0.000 HD 
HETATM   22  C   UNL     1      -6.895  13.571  69.539  1.00  0.00     0.048 C  
HETATM   23  C   UNL     1      -7.950  15.777  68.989  1.00  0.00    -0.214 C  
HETATM   24  C   UNL     1      -7.321  12.968  68.156  1.00  0.00    -0.118 C  
BRANCH  24  25
HETATM   25  O   UNL     1      -7.536  11.531  68.172  1.00  0.00    -0.090 OA 
BRANCH  25  26
HETATM   26  C   UNL     1      -8.418  11.026  69.182  1.00  0.00    -0.012 C  
HETATM   27  O   UNL     1      -9.608  10.484  68.604  1.00  0.00    -0.156 OA 
HETATM   28  C   UNL     1      -9.356   9.328  67.792  1.00  0.00    -0.128 C  
HETATM   29  C   UNL     1      -8.830   8.182  68.668  1.00  0.00    -0.134 C  
HETATM   30  H2  UNL     1      -6.594  11.273  71.221  1.00  0.00     0.000 HD 
HETATM   31  C   UNL     1      -7.538   8.635  69.349  1.00  0.00    -0.092 C  
HETATM   32  O   UNL     1      -8.510   6.995  67.927  1.00  0.00    -0.123 OA 
HETATM   33  H1  UNL     1      -6.018   9.704  71.312  1.00  0.00     0.000 HD 
HETATM   34  H   UNL     1      -8.185   6.286  68.470  1.00  0.00     0.000 HD 
HETATM   35  H   UNL     1      -6.302   7.897  70.690  1.00  0.00     0.000 HD 
HETATM   36  N   UNL     1      -6.462  10.399  70.712  1.00  0.00    -0.335 NA 
HETATM   37  O   UNL     1      -7.105   7.615  70.267  1.00  0.00    -0.056 OA 
HETATM   38  C   UNL     1      -7.738   9.962  70.099  1.00  0.00    -0.175 C  
BRANCH  28  39
HETATM   39  C   UNL     1     -10.659   8.993  67.047  1.00  0.00    -0.200 C  
HETATM   40  H2  UNL     1     -11.334   7.575  68.383  1.00  0.00     0.000 HD 
HETATM   41  N   UNL     1     -11.207   7.671  67.376  1.00  0.00    -0.410 NA 
HETATM   42  H1  UNL     1     -12.072   7.450  66.882  1.00  0.00     0.000 HD 
ENDBRANCH  28  39
ENDBRANCH  25  26
ENDBRANCH  24  25
ENDBRANCH  10  11
ENDBRANCH   1  10
BRANCH   5  43
HETATM   43  C   UNL     1     -10.683  15.313  64.345  1.00  0.00     0.210 C  
HETATM   44  O   UNL     1     -11.582  16.397  64.087  1.00  0.00    -1.249 OA 
HETATM   45  H   UNL     1     -11.084  17.183  63.892  1.00  0.00     0.000 HD 
ENDBRANCH   5  43
TORSDOF 6
ENDMDL
MODEL      240
REMARK 921   NORMALIZED FREE ENERGY PREDICTED BY IDOCK:   -3.88 KCAL/MOL
REMARK 922        TOTAL FREE ENERGY PREDICTED BY IDOCK:   -6.88 KCAL/MOL
REMARK 923 INTER-LIGAND FREE ENERGY PREDICTED BY IDOCK:   -6.59 KCAL/MOL
REMARK 924 INTRA-LIGAND FREE ENERGY PREDICTED BY IDOCK:   -0.29 KCAL/MOL
REMARK 927      BINDING AFFINITY PREDICTED BY RF-SCORE:    0.00 PKD
ROOT
HETATM    1  C   UNL     1      -9.157  12.843  68.289  1.00  0.00    -0.180 C  
HETATM    2  O   UNL     1      -9.784  10.201  70.207  1.00  0.00    -0.399 OA 
HETATM    3  O   UNL     1      -7.936  12.286  68.796  1.00  0.00    -0.087 OA 
HETATM    4  H   UNL     1     -11.891  11.370  69.451  1.00  0.00     0.000 HD 
HETATM    5  C   UNL     1      -7.989  10.854  68.661  1.00  0.00    -0.140 C  
HETATM    6  H   UNL     1     -10.699   9.970  70.314  1.00  0.00     0.000 HD 
HETATM    7  C   UNL     1      -9.456  10.484  68.833  1.00  0.00    -0.193 C  
HETATM    8  O   UNL     1     -11.232  12.051  69.382  1.00  0.00    -0.242 OA 
HETATM    9  C   UNL     1     -10.229  11.734  68.403  1.00  0.00    -0.206 C  
ENDROOT
BRANCH   1  10
HETATM   10  O   UNL     1      -9.004  13.213  66.917  1.00  0.00    -0.224 OA 
BRANCH  10  11
HETATM   11  C   UNL     1     -10.179  13.168  66.060  1.00  0.00    -0.286 C  
HETATM   12  O   UNL     1      -9.804  10.851  65.443  1.00  0.00    -0.225 OA 
HETATM   13  H2  UNL     1     -13.013  15.664  63.337  1.00  0.00     0.000 HD 
HETATM   14  H   UNL     1      -9.704  10.230  64.730  1.00  0.00     0.000 HD 
HETATM   15  C   UNL     1     -10.018  12.164  64.908  1.00  0.00    -0.212 C  
HETATM   16  H1  UNL     1     -12.431  16.393  64.751  1.00  0.00     0.000 HD 
HETATM   17  C   UNL     1     -11.587  13.446  63.436  1.00  0.00    -0.078 C  
HETATM   18  N   UNL     1     -11.010  11.100  62.928  1.00  0.00    -0.785 NA 
HETATM   19  N   UNL     1     -12.239  15.735  63.996  1.00  0.00    -0.623 NA 
HETATM   20  H1  UNL     1     -11.833  11.041  62.328  1.00  0.00     0.000 HD 
HETATM   21  H2  UNL     1     -10.731  10.188  63.289  1.00  0.00     0.000 HD 
HETATM   22  C   UNL     1     -11.876  14.435  64.572  1.00  0.00    -0.449 C  
HETATM   23  C   UNL     1     -11.254  12.074  64.006  1.00  0.00    -0.397 C  
HETATM   24  C   UNL     1     -10.675  14.563  65.571  1.00  0.00    -0.341 C  
BRANCH  24  25
HETATM   25  O   UNL     1     -10.907  15.490  66.666  1.00  0.00    -0.311 OA 
BRANCH  25  26
HETATM   26  C   UNL     1      -9.801  15.734  67.545  1.00  0.00    -0.229 C  
HETATM   27  O   UNL     1      -8.771  16.474  66.885  1.00  0.00    -0.180 OA 
HETATM   28  C   UNL     1      -9.186  17.798  66.517  1.00  0.00    -0.265 C  
HETATM   29  C   UNL     1      -9.467  18.624  67.780  1.00  0.00    -0.300 C  
HETATM   30  H2  UNL     1     -11.096  14.835  69.794  1.00  0.00     0.000 HD 
HETATM   31  C   UNL     1     -10.570  17.935  68.584  1.00  0.00    -0.149 C  
HETATM   32  O   UNL     1      -9.930  19.954  67.502  1.00  0.00    -0.366 OA 
HETATM   33  H1  UNL     1     -11.604  16.285  70.458  1.00  0.00     0.000 HD 
HETATM   34  H   UNL     1     -10.104  20.465  68.284  1.00  0.00     0.000 HD 
HETATM   35  H   UNL     1     -11.439  18.206  70.328  1.00  0.00     0.000 HD 
HETATM   36  N   UNL     1     -11.328  15.809  69.600  1.00  0.00    -0.307 NA 
HETATM   37  O   UNL     1     -10.754  18.634  69.828  1.00  0.00     0.838 OA 
HETATM   38  C   UNL     1     -10.224  16.462  68.858  1.00  0.00    -0.258 C  
BRANCH  28  39
HETATM   39  C   UNL     1      -8.089  18.392  65.616  1.00  0.00     0.447 C  
HETATM   40  H2  UNL     1      -6.925  19.153  67.138  1.00  0.00     0.000 HD 
HETATM   41  N   UNL     1      -7.319  19.468  66.252  1.00  0.00    -0.252 NA 
HETATM   42  H1  UNL     1      -6.591  19.862  65.655  1.00  0.00     0.000 HD 
ENDBRANCH  28  39
ENDBRANCH  25  26
ENDBRANCH  24  25
ENDBRANCH  10  11
ENDBRANCH   1  10
BRANCH   5  43
HETATM   43  C   UNL     1      -7.426  10.377  67.315  1.00  0.00    -0.094 C  
HETATM   44  O   UNL     1      -6.310  11.196  66.948  1.00  0.00    -0.090 OA 
HETATM   45  H   UNL     1      -5.962  10.902  66.115  1.00  0.00     0.000 HD 
ENDBRANCH   5  43
TORSDOF 6
ENDMDL
MODEL      241
REMARK 921   NORMALIZED FREE ENERGY PREDICTED BY IDOCK:   -3.88 KCAL/MOL
REMARK 922        TOTAL FREE ENERGY PREDICTED BY IDOCK:   -6.88 KCAL/MOL
REMARK 923 INTER-LIGAND FREE ENERGY PREDICTED BY IDOCK:   -6.09 KCAL/MOL
REMARK 924 INTRA-LIGAND FREE ENERGY PREDICTED BY IDOCK:   -0.79 KCAL/MOL
REMARK 927      BINDING AFFINITY PREDICTED BY RF-SCORE:    0.00 PKD
ROOT
HETATM    1  C   UNL     1      -9.031  12.154  68.203  1.00  0.00    -0.195 C  
HETATM    2  O   UNL     1     -10.073  10.001  70.512  1.00  0.00    -0.376 OA 
HETATM    3  O   UNL     1      -7.936  11.363  68.687  1.00  0.00    -0.135 OA 
HETATM    4  H   UNL     1     -11.898  11.578  69.766  1.00  0.00     0.000 HD 
HETATM    5  C   UNL     1      -8.353   9.988  68.756  1.00  0.00    -0.121 C  
HETATM    6  H   UNL     1     -10.999  10.027  70.720  1.00  0.00     0.000 HD 
HETATM    7  C   UNL     1      -9.838  10.030  69.091  1.00  0.00    -0.205 C  
HETATM    8  O   UNL     1     -11.104  12.054  69.551  1.00  0.00    -0.183 OA 
HETATM    9  C   UNL     1     -10.323  11.379  68.552  1.00  0.00    -0.205 C  
ENDROOT
BRANCH   1  10
HETATM   10  O   UNL     1      -8.943  12.312  66.785  1.00  0.00    -0.204 OA 
BRANCH  10  11
HETATM   11  C   UNL     1     -10.161  12.626  66.054  1.00  0.00    -0.272 C  
HETATM   12  O   UNL     1     -10.542  10.311  65.431  1.00  0.00    -0.152 OA 
HETATM   13  H2  UNL     1     -12.408  15.886  63.605  1.00  0.00     0.000 HD 
HETATM   14  H   UNL     1     -10.700   9.701  64.720  1.00  0.00     0.000 HD 
HETATM   15  C   UNL     1     -10.418  11.639  64.904  1.00  0.00    -0.288 C  
HETATM   16  H1  UNL     1     -11.498  16.389  64.943  1.00  0.00     0.000 HD 
HETATM   17  C   UNL     1     -11.687  13.348  63.585  1.00  0.00    -0.376 C  
HETATM   18  N   UNL     1     -11.874  10.946  63.050  1.00  0.00     0.133 NA 
HETATM   19  N   UNL     1     -11.584  15.717  64.180  1.00  0.00    -0.341 NA 
HETATM   20  H1  UNL     1     -12.734  11.139  62.539  1.00  0.00     0.000 HD 
HETATM   21  H2  UNL     1     -11.837   9.985  63.393  1.00  0.00     0.000 HD 
HETATM   22  C   UNL     1     -11.558  14.358  64.732  1.00  0.00    -0.408 C  
HETATM   23  C   UNL     1     -11.711  11.929  64.135  1.00  0.00    -0.340 C  
HETATM   24  C   UNL     1     -10.277  14.113  65.601  1.00  0.00    -0.339 C  
BRANCH  24  25
HETATM   25  O   UNL     1     -10.116  15.047  66.702  1.00  0.00    -0.250 OA 
BRANCH  25  26
HETATM   26  C   UNL     1     -11.142  16.035  66.861  1.00  0.00    -0.039 C  
HETATM   27  O   UNL     1     -12.095  15.636  67.849  1.00  0.00     0.031 OA 
HETATM   28  C   UNL     1     -11.529  15.548  69.165  1.00  0.00    -0.348 C  
HETATM   29  C   UNL     1     -11.089  16.942  69.635  1.00  0.00     0.116 C  
HETATM   30  H2  UNL     1      -9.879  17.924  65.318  1.00  0.00     0.000 HD 
HETATM   31  C   UNL     1     -10.051  17.488  68.654  1.00  0.00    -0.361 C  
HETATM   32  O   UNL     1     -10.470  16.940  70.930  1.00  0.00     0.869 OA 
HETATM   33  H1  UNL     1      -9.159  18.861  66.504  1.00  0.00     0.000 HD 
HETATM   34  H   UNL     1     -10.198  17.803  71.221  1.00  0.00     0.000 HD 
HETATM   35  H   UNL     1      -9.079  19.181  68.407  1.00  0.00     0.000 HD 
HETATM   36  N   UNL     1      -9.531  17.939  66.276  1.00  0.00    -0.448 NA 
HETATM   37  O   UNL     1      -9.724  18.842  69.017  1.00  0.00    -0.350 OA 
HETATM   38  C   UNL     1     -10.572  17.446  67.208  1.00  0.00    -0.284 C  
BRANCH  28  39
HETATM   39  C   UNL     1     -12.577  14.886  70.075  1.00  0.00    -0.218 C  
HETATM   40  H2  UNL     1     -13.644  16.603  70.488  1.00  0.00     0.000 HD 
HETATM   41  N   UNL     1     -13.234  15.821  70.999  1.00  0.00    -0.614 NA 
HETATM   42  H1  UNL     1     -13.930  15.382  71.602  1.00  0.00     0.000 HD 
ENDBRANCH  28  39
ENDBRANCH  25  26
ENDBRANCH  24  25
ENDBRANCH  10  11
ENDBRANCH   1  10
BRANCH   5  43
HETATM   43  C   UNL     1      -8.075   9.231  67.451  1.00  0.00    -0.110 C  
HETATM   44  O   UNL     1      -7.018   8.288  67.661  1.00  0.00    -0.075 OA 
HETATM   45  H   UNL     1      -6.846   7.819  66.853  1.00  0.00     0.000 HD 
ENDBRANCH   5  43
TORSDOF 6
ENDMDL
MODEL      242
REMARK 921   NORMALIZED FREE ENERGY PREDICTED BY IDOCK:   -3.87 KCAL/MOL
REMARK 922        TOTAL FREE ENERGY PREDICTED BY IDOCK:   -6.88 KCAL/MOL
REMARK 923 INTER-LIGAND FREE ENERGY PREDICTED BY IDOCK:   -5.86 KCAL/MOL
REMARK 924 INTRA-LIGAND FREE ENERGY PREDICTED BY IDOCK:   -1.02 KCAL/MOL
REMARK 927      BINDING AFFINITY PREDICTED BY RF-SCORE:    0.00 PKD
ROOT
HETATM    1  C   UNL     1      -8.629   7.165  68.358  1.00  0.00    -0.123 C  
HETATM    2  O   UNL     1      -6.141   5.113  69.168  1.00  0.00    -0.020 OA 
HETATM    3  O   UNL     1      -8.327   6.282  67.268  1.00  0.00    -0.109 OA 
HETATM    4  H   UNL     1      -6.588   6.844  70.951  1.00  0.00     0.000 HD 
HETATM    5  C   UNL     1      -8.166   4.948  67.784  1.00  0.00    -0.101 C  
HETATM    6  H   UNL     1      -5.778   5.221  70.039  1.00  0.00     0.000 HD 
HETATM    7  C   UNL     1      -7.582   5.120  69.180  1.00  0.00    -0.069 C  
HETATM    8  O   UNL     1      -6.943   7.248  70.168  1.00  0.00    -0.058 OA 
HETATM    9  C   UNL     1      -8.051   6.506  69.632  1.00  0.00    -0.125 C  
ENDROOT
BRANCH   1  10
HETATM   10  O   UNL     1     -10.043   7.314  68.503  1.00  0.00    -0.161 OA 
BRANCH  10  11
HETATM   11  C   UNL     1     -10.548   7.893  69.738  1.00  0.00    -0.242 C  
HETATM   12  O   UNL     1     -11.089   5.726  70.688  1.00  0.00    -0.278 OA 
HETATM   13  H2  UNL     1     -12.568  11.622  71.657  1.00  0.00     0.000 HD 
HETATM   14  H   UNL     1     -11.760   5.185  71.089  1.00  0.00     0.000 HD 
HETATM   15  C   UNL     1     -11.632   7.018  70.387  1.00  0.00    -0.295 C  
HETATM   16  H1  UNL     1     -11.413  11.884  70.445  1.00  0.00     0.000 HD 
HETATM   17  C   UNL     1     -12.711   8.993  71.487  1.00  0.00    -0.399 C  
HETATM   18  N   UNL     1     -13.199   6.698  72.253  1.00  0.00    -0.515 NA 
HETATM   19  N   UNL     1     -12.148  11.270  70.797  1.00  0.00    -0.364 NA 
HETATM   20  H1  UNL     1     -13.551   7.079  73.131  1.00  0.00     0.000 HD 
HETATM   21  H2  UNL     1     -12.866   5.739  72.355  1.00  0.00     0.000 HD 
HETATM   22  C   UNL     1     -11.607   9.916  70.956  1.00  0.00    -0.389 C  
HETATM   23  C   UNL     1     -12.162   7.590  71.707  1.00  0.00    -0.314 C  
HETATM   24  C   UNL     1     -10.977   9.387  69.623  1.00  0.00    -0.197 C  
BRANCH  24  25
HETATM   25  O   UNL     1      -9.923  10.231  69.084  1.00  0.00    -0.199 OA 
BRANCH  25  26
HETATM   26  C   UNL     1     -10.309  11.175  68.078  1.00  0.00    -0.185 C  
HETATM   27  O   UNL     1      -9.581  12.398  68.210  1.00  0.00    -0.212 OA 
HETATM   28  C   UNL     1      -8.174  12.236  67.975  1.00  0.00    -0.163 C  
HETATM   29  C   UNL     1      -7.935  11.835  66.513  1.00  0.00    -0.009 C  
HETATM   30  H2  UNL     1     -11.809   9.377  66.642  1.00  0.00     0.000 HD 
HETATM   31  C   UNL     1      -8.667  10.521  66.237  1.00  0.00    -0.151 C  
HETATM   32  O   UNL     1      -6.553  11.610  66.200  1.00  0.00    -0.368 OA 
HETATM   33  H1  UNL     1     -10.718   8.948  65.448  1.00  0.00     0.000 HD 
HETATM   34  H   UNL     1      -6.405  11.362  65.295  1.00  0.00     0.000 HD 
HETATM   35  H   UNL     1      -9.005   9.384  64.667  1.00  0.00     0.000 HD 
HETATM   36  N   UNL     1     -10.822   9.315  66.394  1.00  0.00     0.183 NA 
HETATM   37  O   UNL     1      -8.550  10.200  64.839  1.00  0.00    -0.158 OA 
HETATM   38  C   UNL     1     -10.149  10.613  66.631  1.00  0.00    -0.220 C  
BRANCH  28  39
HETATM   39  C   UNL     1      -7.484  13.550  68.381  1.00  0.00    -0.124 C  
HETATM   40  H2  UNL     1      -8.999  14.808  67.766  1.00  0.00     0.000 HD 
HETATM   41  N   UNL     1      -7.987  14.729  67.663  1.00  0.00    -0.160 NA 
HETATM   42  H1  UNL     1      -7.530  15.601  67.933  1.00  0.00     0.000 HD 
ENDBRANCH  28  39
ENDBRANCH  25  26
ENDBRANCH  24  25
ENDBRANCH  10  11
ENDBRANCH   1  10
BRANCH   5  43
HETATM   43  C   UNL     1      -9.487   4.168  67.802  1.00  0.00    -0.175 C  
HETATM   44  O   UNL     1      -9.255   2.845  68.297  1.00  0.00    -0.157 OA 
HETATM   45  H   UNL     1     -10.073   2.363  68.308  1.00  0.00     0.000 HD 
ENDBRANCH   5  43
TORSDOF 6
ENDMDL
MODEL      243
REMARK 921   NORMALIZED FREE ENERGY PREDICTED BY IDOCK:   -3.87 KCAL/MOL
REMARK 922        TOTAL FREE ENERGY PREDICTED BY IDOCK:   -6.86 KCAL/MOL
REMARK 923 INTER-LIGAND FREE ENERGY PREDICTED BY IDOCK:   -6.00 KCAL/MOL
REMARK 924 INTRA-LIGAND FREE ENERGY PREDICTED BY IDOCK:   -0.87 KCAL/MOL
REMARK 927      BINDING AFFINITY PREDICTED BY RF-SCORE:    0.00 PKD
ROOT
HETATM    1  C   UNL     1      -8.413  10.158  67.008  1.00  0.00    -0.129 C  
HETATM    2  O   UNL     1      -5.167  10.875  67.043  1.00  0.00    -0.042 OA 
HETATM    3  O   UNL     1      -7.852  10.018  65.696  1.00  0.00    -0.125 OA 
HETATM    4  H   UNL     1      -6.276  11.306  69.269  1.00  0.00     0.000 HD 
HETATM    5  C   UNL     1      -6.601   9.313  65.800  1.00  0.00    -0.069 C  
HETATM    6  H   UNL     1      -4.803  11.126  67.883  1.00  0.00     0.000 HD 
HETATM    7  C   UNL     1      -6.018   9.716  67.147  1.00  0.00    -0.052 C  
HETATM    8  O   UNL     1      -7.002  11.348  68.658  1.00  0.00    -0.073 OA 
HETATM    9  C   UNL     1      -7.231  10.089  68.004  1.00  0.00    -0.082 C  
ENDROOT
BRANCH   1  10
HETATM   10  O   UNL     1      -9.321   9.087  67.279  1.00  0.00    -0.135 OA 
BRANCH  10  11
HETATM   11  C   UNL     1      -9.517   8.688  68.664  1.00  0.00    -0.142 C  
HETATM   12  O   UNL     1      -8.218   6.654  68.399  1.00  0.00    -0.114 OA 
HETATM   13  H2  UNL     1     -12.362   8.932  72.340  1.00  0.00     0.000 HD 
HETATM   14  H   UNL     1      -8.200   5.710  68.505  1.00  0.00     0.000 HD 
HETATM   15  C   UNL     1      -9.486   7.161  68.836  1.00  0.00    -0.142 C  
HETATM   16  H1  UNL     1     -12.207  10.311  71.368  1.00  0.00     0.000 HD 
HETATM   17  C   UNL     1     -10.965   7.257  70.855  1.00  0.00    -0.275 C  
HETATM   18  N   UNL     1      -9.628   5.241  70.363  1.00  0.00    -0.168 NA 
HETATM   19  N   UNL     1     -12.208   9.291  71.399  1.00  0.00    -0.329 NA 
HETATM   20  H1  UNL     1      -9.744   4.943  71.332  1.00  0.00     0.000 HD 
HETATM   21  H2  UNL     1      -8.785   4.854  69.940  1.00  0.00     0.000 HD 
HETATM   22  C   UNL     1     -10.962   8.790  70.808  1.00  0.00    -0.247 C  
HETATM   23  C   UNL     1      -9.660   6.712  70.291  1.00  0.00    -0.161 C  
HETATM   24  C   UNL     1     -10.750   9.342  69.357  1.00  0.00    -0.208 C  
BRANCH  24  25
HETATM   25  O   UNL     1     -10.739  10.792  69.266  1.00  0.00    -0.205 OA 
BRANCH  25  26
HETATM   26  C   UNL     1     -11.973  11.422  68.898  1.00  0.00    -0.304 C  
HETATM   27  O   UNL     1     -12.790  11.665  70.046  1.00  0.00     0.073 OA 
HETATM   28  C   UNL     1     -12.206  12.611  70.954  1.00  0.00    -0.185 C  
HETATM   29  C   UNL     1     -12.115  13.988  70.282  1.00  0.00    -0.355 C  
HETATM   30  H2  UNL     1     -11.223  11.891  66.298  1.00  0.00     0.000 HD 
HETATM   31  C   UNL     1     -11.251  13.867  69.026  1.00  0.00    -0.274 C  
HETATM   32  O   UNL     1     -11.501  14.988  71.108  1.00  0.00    -0.343 OA 
HETATM   33  H1  UNL     1     -10.742  13.490  66.399  1.00  0.00     0.000 HD 
HETATM   34  H   UNL     1     -11.445  15.841  70.692  1.00  0.00     0.000 HD 
HETATM   35  H   UNL     1     -10.723  15.047  67.543  1.00  0.00     0.000 HD 
HETATM   36  N   UNL     1     -10.880  12.624  66.918  1.00  0.00    -0.249 NA 
HETATM   37  O   UNL     1     -11.260  15.123  68.324  1.00  0.00    -0.280 OA 
HETATM   38  C   UNL     1     -11.760  12.748  68.104  1.00  0.00    -0.345 C  
BRANCH  28  39
HETATM   39  C   UNL     1     -13.053  12.600  72.239  1.00  0.00    -0.261 C  
HETATM   40  H2  UNL     1     -13.789  14.517  72.048  1.00  0.00     0.000 HD 
HETATM   41  N   UNL     1     -13.349  13.940  72.764  1.00  0.00    -0.617 NA 
HETATM   42  H1  UNL     1     -13.911  13.933  73.616  1.00  0.00     0.000 HD 
ENDBRANCH  28  39
ENDBRANCH  25  26
ENDBRANCH  24  25
ENDBRANCH  10  11
ENDBRANCH   1  10
BRANCH   5  43
HETATM   43  C   UNL     1      -6.780   7.794  65.678  1.00  0.00    -0.045 C  
HETATM   44  O   UNL     1      -7.811   7.509  64.725  1.00  0.00    -0.113 OA 
HETATM   45  H   UNL     1      -7.922   6.569  64.650  1.00  0.00     0.000 HD 
ENDBRANCH   5  43
TORSDOF 6
ENDMDL
MODEL      244
REMARK 921   NORMALIZED FREE ENERGY PREDICTED BY IDOCK:   -3.86 KCAL/MOL
REMARK 922        TOTAL FREE ENERGY PREDICTED BY IDOCK:   -6.86 KCAL/MOL
REMARK 923 INTER-LIGAND FREE ENERGY PREDICTED BY IDOCK:   -6.50 KCAL/MOL
REMARK 924 INTRA-LIGAND FREE ENERGY PREDICTED BY IDOCK:   -0.36 KCAL/MOL
REMARK 927      BINDING AFFINITY PREDICTED BY RF-SCORE:    0.00 PKD
ROOT
HETATM    1  C   UNL     1     -10.016  10.391  67.531  1.00  0.00    -0.181 C  
HETATM    2  O   UNL     1      -7.312   9.180  66.024  1.00  0.00    -0.092 OA 
HETATM    3  O   UNL     1      -8.905  10.360  68.438  1.00  0.00    -0.127 OA 
HETATM    4  H   UNL     1      -9.367   9.066  64.562  1.00  0.00     0.000 HD 
HETATM    5  C   UNL     1      -7.740  10.867  67.760  1.00  0.00    -0.107 C  
HETATM    6  H   UNL     1      -7.417   8.928  65.114  1.00  0.00     0.000 HD 
HETATM    7  C   UNL     1      -7.910  10.461  66.302  1.00  0.00    -0.132 C  
HETATM    8  O   UNL     1      -9.730   9.100  65.438  1.00  0.00    -0.207 OA 
HETATM    9  C   UNL     1      -9.423  10.336  66.103  1.00  0.00    -0.181 C  
ENDROOT
BRANCH   1  10
HETATM   10  O   UNL     1     -10.755  11.604  67.689  1.00  0.00    -0.192 OA 
BRANCH  10  11
HETATM   11  C   UNL     1     -11.004  12.084  69.040  1.00  0.00    -0.210 C  
HETATM   12  O   UNL     1     -11.685   9.894  69.835  1.00  0.00    -0.403 OA 
HETATM   13  H2  UNL     1     -12.235  15.760  71.617  1.00  0.00     0.000 HD 
HETATM   14  H   UNL     1     -12.357   9.388  70.276  1.00  0.00     0.000 HD 
HETATM   15  C   UNL     1     -12.091  11.266  69.754  1.00  0.00    -0.325 C  
HETATM   16  H1  UNL     1     -11.236  16.034  70.277  1.00  0.00     0.000 HD 
HETATM   17  C   UNL     1     -12.740  13.204  71.203  1.00  0.00    -0.386 C  
HETATM   18  N   UNL     1     -13.411  10.904  71.795  1.00  0.00    -0.362 NA 
HETATM   19  N   UNL     1     -11.987  15.469  70.672  1.00  0.00    -0.345 NA 
HETATM   20  H1  UNL     1     -13.585  11.213  72.751  1.00  0.00     0.000 HD 
HETATM   21  H2  UNL     1     -13.195   9.908  71.747  1.00  0.00     0.000 HD 
HETATM   22  C   UNL     1     -11.610  14.053  70.607  1.00  0.00    -0.058 C  
HETATM   23  C   UNL     1     -12.353  11.731  71.191  1.00  0.00    -0.224 C  
HETATM   24  C   UNL     1     -11.246  13.620  69.146  1.00  0.00    -0.261 C  
BRANCH  24  25
HETATM   25  O   UNL     1     -10.177  14.398  68.542  1.00  0.00    -0.231 OA 
BRANCH  25  26
HETATM   26  C   UNL     1     -10.084  15.773  68.934  1.00  0.00    -0.222 C  
HETATM   27  O   UNL     1      -8.726  16.152  69.169  1.00  0.00    -0.244 OA 
HETATM   28  C   UNL     1      -7.921  16.103  67.982  1.00  0.00    -0.145 C  
HETATM   29  C   UNL     1      -8.415  17.151  66.975  1.00  0.00    -0.211 C  
HETATM   30  H2  UNL     1     -12.711  16.347  68.376  1.00  0.00     0.000 HD 
HETATM   31  C   UNL     1      -9.875  16.853  66.631  1.00  0.00    -0.287 C  
HETATM   32  O   UNL     1      -7.690  17.141  65.736  1.00  0.00    -0.421 OA 
HETATM   33  H1  UNL     1     -12.561  17.042  66.861  1.00  0.00     0.000 HD 
HETATM   34  H   UNL     1      -7.996  17.790  65.114  1.00  0.00     0.000 HD 
HETATM   35  H   UNL     1     -11.291  17.714  65.570  1.00  0.00     0.000 HD 
HETATM   36  N   UNL     1     -12.135  16.409  67.538  1.00  0.00     0.967 NA 
HETATM   37  O   UNL     1     -10.384  17.899  65.784  1.00  0.00    -0.577 OA 
HETATM   38  C   UNL     1     -10.737  16.741  67.898  1.00  0.00    -0.347 C  
BRANCH  28  39
HETATM   39  C   UNL     1      -6.455  16.293  68.409  1.00  0.00    -0.130 C  
HETATM   40  H2  UNL     1      -5.629  15.996  66.543  1.00  0.00     0.000 HD 
HETATM   41  N   UNL     1      -5.487  15.668  67.498  1.00  0.00    -0.310 NA 
HETATM   42  H1  UNL     1      -4.515  15.794  67.782  1.00  0.00     0.000 HD 
ENDBRANCH  28  39
ENDBRANCH  25  26
ENDBRANCH  24  25
ENDBRANCH  10  11
ENDBRANCH   1  10
BRANCH   5  43
HETATM   43  C   UNL     1      -7.588  12.384  67.925  1.00  0.00    -0.130 C  
HETATM   44  O   UNL     1      -6.811  12.907  66.841  1.00  0.00    -0.414 OA 
HETATM   45  H   UNL     1      -6.717  13.846  66.943  1.00  0.00     0.000 HD 
ENDBRANCH   5  43
TORSDOF 6
ENDMDL
MODEL      245
REMARK 921   NORMALIZED FREE ENERGY PREDICTED BY IDOCK:   -3.84 KCAL/MOL
REMARK 922        TOTAL FREE ENERGY PREDICTED BY IDOCK:   -6.84 KCAL/MOL
REMARK 923 INTER-LIGAND FREE ENERGY PREDICTED BY IDOCK:   -5.56 KCAL/MOL
REMARK 924 INTRA-LIGAND FREE ENERGY PREDICTED BY IDOCK:   -1.28 KCAL/MOL
REMARK 927      BINDING AFFINITY PREDICTED BY RF-SCORE:    0.00 PKD
ROOT
HETATM    1  C   UNL     1      -8.156   6.865  68.652  1.00  0.00    -0.121 C  
HETATM    2  O   UNL     1      -8.885   3.645  69.035  1.00  0.00    -0.086 OA 
HETATM    3  O   UNL     1      -9.238   6.487  67.790  1.00  0.00    -0.116 OA 
HETATM    4  H   UNL     1      -6.850   4.340  70.358  1.00  0.00     0.000 HD 
HETATM    5  C   UNL     1     -10.167   5.682  68.539  1.00  0.00    -0.193 C  
HETATM    6  H   UNL     1      -8.358   3.169  69.666  1.00  0.00     0.000 HD 
HETATM    7  C   UNL     1      -9.321   4.919  69.548  1.00  0.00    -0.130 C  
HETATM    8  O   UNL     1      -6.894   4.996  69.673  1.00  0.00    -0.049 OA 
HETATM    9  C   UNL     1      -8.085   5.795  69.767  1.00  0.00    -0.104 C  
ENDROOT
BRANCH   1  10
HETATM   10  O   UNL     1      -8.410   8.144  69.240  1.00  0.00    -0.126 OA 
BRANCH  10  11
HETATM   11  C   UNL     1      -7.310   9.092  69.319  1.00  0.00    -0.070 C  
HETATM   12  O   UNL     1      -6.500   8.179  71.418  1.00  0.00    -0.038 OA 
HETATM   13  H2  UNL     1      -5.860  13.360  68.155  1.00  0.00     0.000 HD 
HETATM   14  H   UNL     1      -6.252   8.366  72.316  1.00  0.00     0.000 HD 
HETATM   15  C   UNL     1      -6.908   9.393  70.772  1.00  0.00    -0.109 C  
HETATM   16  H1  UNL     1      -6.797  12.509  67.029  1.00  0.00     0.000 HD 
HETATM   17  C   UNL     1      -6.060  11.672  70.173  1.00  0.00    -0.155 C  
HETATM   18  N   UNL     1      -5.419  10.606  72.305  1.00  0.00    -0.255 NA 
HETATM   19  N   UNL     1      -6.610  12.684  68.016  1.00  0.00    -0.082 NA 
HETATM   20  H1  UNL     1      -4.636  11.254  72.380  1.00  0.00     0.000 HD 
HETATM   21  H2  UNL     1      -5.249   9.738  72.812  1.00  0.00     0.000 HD 
HETATM   22  C   UNL     1      -6.341  11.408  68.688  1.00  0.00    -0.053 C  
HETATM   23  C   UNL     1      -5.730  10.368  70.885  1.00  0.00    -0.082 C  
HETATM   24  C   UNL     1      -7.511  10.387  68.476  1.00  0.00    -0.089 C  
BRANCH  24  25
HETATM   25  O   UNL     1      -7.811  10.106  67.082  1.00  0.00    -0.099 OA 
BRANCH  25  26
HETATM   26  C   UNL     1      -9.189   9.887  66.754  1.00  0.00    -0.148 C  
HETATM   27  O   UNL     1      -9.942  11.099  66.852  1.00  0.00    -0.190 OA 
HETATM   28  C   UNL     1      -9.537  12.085  65.892  1.00  0.00    -0.223 C  
HETATM   29  C   UNL     1      -9.846  11.587  64.473  1.00  0.00    -0.241 C  
HETATM   30  H2  UNL     1      -8.801   7.329  65.833  1.00  0.00     0.000 HD 
HETATM   31  C   UNL     1      -9.088  10.280  64.234  1.00  0.00    -0.243 C  
HETATM   32  O   UNL     1      -9.432  12.497  63.444  1.00  0.00    -0.596 OA 
HETATM   33  H1  UNL     1      -8.724   7.603  64.183  1.00  0.00     0.000 HD 
HETATM   34  H   UNL     1      -9.624  12.188  62.566  1.00  0.00     0.000 HD 
HETATM   35  H   UNL     1      -8.996   8.930  62.806  1.00  0.00     0.000 HD 
HETATM   36  N   UNL     1      -8.599   8.017  65.107  1.00  0.00    -0.104 NA 
HETATM   37  O   UNL     1      -9.466   9.742  62.954  1.00  0.00    -0.227 OA 
HETATM   38  C   UNL     1      -9.380   9.254  65.340  1.00  0.00    -0.226 C  
BRANCH  28  39
HETATM   39  C   UNL     1     -10.243  13.403  66.256  1.00  0.00    -0.298 C  
HETATM   40  H2  UNL     1      -8.941  14.649  65.254  1.00  0.00     0.000 HD 
HETATM   41  N   UNL     1      -9.372  14.583  66.176  1.00  0.00    -0.475 NA 
HETATM   42  H1  UNL     1      -9.841  15.457  66.417  1.00  0.00     0.000 HD 
ENDBRANCH  28  39
ENDBRANCH  25  26
ENDBRANCH  24  25
ENDBRANCH  10  11
ENDBRANCH   1  10
BRANCH   5  43
HETATM   43  C   UNL     1     -11.253   6.529  69.216  1.00  0.00    -0.328 C  
HETATM   44  O   UNL     1     -11.476   6.045  70.545  1.00  0.00    -0.304 OA 
HETATM   45  H   UNL     1     -12.148   6.569  70.964  1.00  0.00     0.000 HD 
ENDBRANCH   5  43
TORSDOF 6
ENDMDL
MODEL      246
REMARK 921   NORMALIZED FREE ENERGY PREDICTED BY IDOCK:   -3.84 KCAL/MOL
REMARK 922        TOTAL FREE ENERGY PREDICTED BY IDOCK:   -6.83 KCAL/MOL
REMARK 923 INTER-LIGAND FREE ENERGY PREDICTED BY IDOCK:   -6.13 KCAL/MOL
REMARK 924 INTRA-LIGAND FREE ENERGY PREDICTED BY IDOCK:   -0.71 KCAL/MOL
REMARK 927      BINDING AFFINITY PREDICTED BY RF-SCORE:    0.00 PKD
ROOT
HETATM    1  C   UNL     1      -7.698  10.137  68.025  1.00  0.00    -0.089 C  
HETATM    2  O   UNL     1      -6.257   7.314  69.027  1.00  0.00    -0.032 OA 
HETATM    3  O   UNL     1      -8.607   9.034  67.898  1.00  0.00    -0.124 OA 
HETATM    4  H   UNL     1      -4.656   9.267  69.015  1.00  0.00     0.000 HD 
HETATM    5  C   UNL     1      -8.534   8.235  69.093  1.00  0.00    -0.127 C  
HETATM    6  H   UNL     1      -5.358   7.387  69.327  1.00  0.00     0.000 HD 
HETATM    7  C   UNL     1      -7.095   8.351  69.573  1.00  0.00    -0.053 C  
HETATM    8  O   UNL     1      -5.326   9.536  68.398  1.00  0.00    -0.037 OA 
HETATM    9  C   UNL     1      -6.607   9.697  69.029  1.00  0.00    -0.049 C  
ENDROOT
BRANCH   1  10
HETATM   10  O   UNL     1      -8.378  11.285  68.539  1.00  0.00    -0.144 OA 
BRANCH  10  11
HETATM   11  C   UNL     1      -7.957  12.597  68.072  1.00  0.00    -0.155 C  
HETATM   12  O   UNL     1      -6.574  12.996  70.027  1.00  0.00    -0.359 OA 
HETATM   13  H2  UNL     1      -9.150  16.301  65.516  1.00  0.00     0.000 HD 
HETATM   14  H   UNL     1      -6.374  13.586  70.745  1.00  0.00     0.000 HD 
HETATM   15  C   UNL     1      -7.633  13.549  69.233  1.00  0.00     0.290 C  
HETATM   16  H1  UNL     1      -9.594  14.769  64.943  1.00  0.00     0.000 HD 
HETATM   17  C   UNL     1      -8.206  15.571  67.869  1.00  0.00    -0.149 C  
HETATM   18  N   UNL     1      -6.880  15.779  69.940  1.00  0.00    -0.109 NA 
HETATM   19  N   UNL     1      -9.430  15.352  65.764  1.00  0.00    -0.328 NA 
HETATM   20  H1  UNL     1      -6.564  16.698  69.631  1.00  0.00     0.000 HD 
HETATM   21  H2  UNL     1      -6.220  15.342  70.584  1.00  0.00     0.000 HD 
HETATM   22  C   UNL     1      -8.452  14.693  66.636  1.00  0.00    -0.017 C  
HETATM   23  C   UNL     1      -7.158  14.931  68.769  1.00  0.00    -0.115 C  
HETATM   24  C   UNL     1      -8.906  13.242  67.017  1.00  0.00    -0.212 C  
BRANCH  24  25
HETATM   25  O   UNL     1      -9.149  12.374  65.878  1.00  0.00    -0.073 OA 
BRANCH  25  26
HETATM   26  C   UNL     1     -10.315  11.543  65.941  1.00  0.00    -0.247 C  
HETATM   27  O   UNL     1     -11.137  11.891  67.057  1.00  0.00    -0.267 OA 
HETATM   28  C   UNL     1     -11.690  13.212  66.951  1.00  0.00    -0.387 C  
HETATM   29  C   UNL     1     -12.658  13.275  65.762  1.00  0.00    -0.347 C  
HETATM   30  H2  UNL     1      -9.909  10.394  63.480  1.00  0.00     0.000 HD 
HETATM   31  C   UNL     1     -11.893  12.924  64.485  1.00  0.00    -0.375 C  
HETATM   32  O   UNL     1     -13.227  14.577  65.556  1.00  0.00    -0.495 OA 
HETATM   33  H1  UNL     1     -10.939  11.315  62.535  1.00  0.00     0.000 HD 
HETATM   34  H   UNL     1     -13.826  14.616  64.819  1.00  0.00     0.000 HD 
HETATM   35  H   UNL     1     -12.342  12.642  62.590  1.00  0.00     0.000 HD 
HETATM   36  N   UNL     1     -10.389  11.289  63.393  1.00  0.00    -0.387 NA 
HETATM   37  O   UNL     1     -12.817  12.861  63.383  1.00  0.00    -0.650 OA 
HETATM   38  C   UNL     1     -11.156  11.583  64.627  1.00  0.00    -0.250 C  
BRANCH  28  39
HETATM   39  C   UNL     1     -12.343  13.549  68.303  1.00  0.00     0.095 C  
HETATM   40  H2  UNL     1     -12.779  15.517  67.866  1.00  0.00     0.000 HD 
HETATM   41  N   UNL     1     -12.344  14.984  68.618  1.00  0.00    -0.589 NA 
HETATM   42  H1  UNL     1     -12.777  15.207  69.515  1.00  0.00     0.000 HD 
ENDBRANCH  28  39
ENDBRANCH  25  26
ENDBRANCH  24  25
ENDBRANCH  10  11
ENDBRANCH   1  10
BRANCH   5  43
HETATM   43  C   UNL     1      -9.539   8.693  70.158  1.00  0.00    -0.172 C  
HETATM   44  O   UNL     1      -8.967   8.521  71.460  1.00  0.00    -0.173 OA 
HETATM   45  H   UNL     1      -9.589   8.804  72.119  1.00  0.00     0.000 HD 
ENDBRANCH   5  43
TORSDOF 6
ENDMDL
MODEL      247
REMARK 921   NORMALIZED FREE ENERGY PREDICTED BY IDOCK:   -3.83 KCAL/MOL
REMARK 922        TOTAL FREE ENERGY PREDICTED BY IDOCK:   -6.82 KCAL/MOL
REMARK 923 INTER-LIGAND FREE ENERGY PREDICTED BY IDOCK:   -5.84 KCAL/MOL
REMARK 924 INTRA-LIGAND FREE ENERGY PREDICTED BY IDOCK:   -0.98 KCAL/MOL
REMARK 927      BINDING AFFINITY PREDICTED BY RF-SCORE:    0.00 PKD
ROOT
HETATM    1  C   UNL     1      -8.271   6.436  66.815  1.00  0.00    -0.110 C  
HETATM    2  O   UNL     1      -7.855   4.233  64.361  1.00  0.00    -0.082 OA 
HETATM    3  O   UNL     1      -6.970   6.575  66.228  1.00  0.00    -0.062 OA 
HETATM    4  H   UNL     1     -10.036   3.911  65.591  1.00  0.00     0.000 HD 
HETATM    5  C   UNL     1      -7.102   6.532  64.795  1.00  0.00    -0.053 C  
HETATM    6  H   UNL     1      -8.588   3.652  64.192  1.00  0.00     0.000 HD 
HETATM    7  C   UNL     1      -8.276   5.601  64.523  1.00  0.00    -0.125 C  
HETATM    8  O   UNL     1      -9.499   4.369  66.226  1.00  0.00    -0.146 OA 
HETATM    9  C   UNL     1      -9.145   5.689  65.781  1.00  0.00    -0.128 C  
ENDROOT
BRANCH   1  10
HETATM   10  O   UNL     1      -8.841   7.722  67.075  1.00  0.00    -0.122 OA 
BRANCH  10  11
HETATM   11  C   UNL     1      -7.979   8.755  67.627  1.00  0.00    -0.106 C  
HETATM   12  O   UNL     1      -6.712   7.170  68.960  1.00  0.00    -0.052 OA 
HETATM   13  H2  UNL     1      -7.683  13.247  68.811  1.00  0.00     0.000 HD 
HETATM   14  H   UNL     1      -6.392   6.945  69.826  1.00  0.00     0.000 HD 
HETATM   15  C   UNL     1      -7.462   8.390  69.028  1.00  0.00    -0.093 C  
HETATM   16  H1  UNL     1      -8.551  12.854  67.410  1.00  0.00     0.000 HD 
HETATM   17  C   UNL     1      -7.230  10.797  69.680  1.00  0.00    -0.127 C  
HETATM   18  N   UNL     1      -6.087   9.025  70.963  1.00  0.00    -0.048 NA 
HETATM   19  N   UNL     1      -8.277  12.560  68.348  1.00  0.00    -0.158 NA 
HETATM   20  H1  UNL     1      -5.465   9.729  71.358  1.00  0.00     0.000 HD 
HETATM   21  H2  UNL     1      -5.662   8.098  70.953  1.00  0.00     0.000 HD 
HETATM   22  C   UNL     1      -7.643  11.239  68.270  1.00  0.00    -0.114 C  
HETATM   23  C   UNL     1      -6.526   9.449  69.622  1.00  0.00    -0.040 C  
HETATM   24  C   UNL     1      -8.575  10.194  67.567  1.00  0.00    -0.118 C  
BRANCH  24  25
HETATM   25  O   UNL     1      -8.990  10.572  66.226  1.00  0.00    -0.151 OA 
BRANCH  25  26
HETATM   26  C   UNL     1     -10.357  10.314  65.881  1.00  0.00    -0.171 C  
HETATM   27  O   UNL     1     -11.237  10.695  66.941  1.00  0.00    -0.224 OA 
HETATM   28  C   UNL     1     -11.231  12.108  67.190  1.00  0.00    -0.314 C  
HETATM   29  C   UNL     1     -11.795  12.853  65.972  1.00  0.00    -0.430 C  
HETATM   30  H2  UNL     1      -9.821   9.727  63.252  1.00  0.00     0.000 HD 
HETATM   31  C   UNL     1     -10.929  12.531  64.753  1.00  0.00    -0.303 C  
HETATM   32  O   UNL     1     -11.786  14.280  66.119  1.00  0.00    -0.365 OA 
HETATM   33  H1  UNL     1     -10.189  11.190  62.527  1.00  0.00     0.000 HD 
HETATM   34  H   UNL     1     -12.135  14.741  65.365  1.00  0.00     0.000 HD 
HETATM   35  H   UNL     1     -10.983  12.925  62.826  1.00  0.00     0.000 HD 
HETATM   36  N   UNL     1      -9.908  10.732  63.395  1.00  0.00    -0.334 NA 
HETATM   37  O   UNL     1     -11.521  13.125  63.584  1.00  0.00    -0.409 OA 
HETATM   38  C   UNL     1     -10.786  11.014  64.554  1.00  0.00    -0.264 C  
BRANCH  28  39
HETATM   39  C   UNL     1     -12.018  12.353  68.489  1.00  0.00    -0.223 C  
HETATM   40  H2  UNL     1     -10.409  12.963  69.625  1.00  0.00     0.000 HD 
HETATM   41  N   UNL     1     -11.189  12.311  69.701  1.00  0.00    -0.479 NA 
HETATM   42  H1  UNL     1     -11.712  12.473  70.562  1.00  0.00     0.000 HD 
ENDBRANCH  28  39
ENDBRANCH  25  26
ENDBRANCH  24  25
ENDBRANCH  10  11
ENDBRANCH   1  10
BRANCH   5  43
HETATM   43  C   UNL     1      -7.316   7.925  64.189  1.00  0.00    -0.097 C  
HETATM   44  O   UNL     1      -8.718   8.166  64.029  1.00  0.00    -0.387 OA 
HETATM   45  H   UNL     1      -8.851   9.029  63.654  1.00  0.00     0.000 HD 
ENDBRANCH   5  43
TORSDOF 6
ENDMDL
MODEL      248
REMARK 921   NORMALIZED FREE ENERGY PREDICTED BY IDOCK:   -3.82 KCAL/MOL
REMARK 922        TOTAL FREE ENERGY PREDICTED BY IDOCK:   -6.80 KCAL/MOL
REMARK 923 INTER-LIGAND FREE ENERGY PREDICTED BY IDOCK:   -5.64 KCAL/MOL
REMARK 924 INTRA-LIGAND FREE ENERGY PREDICTED BY IDOCK:   -1.16 KCAL/MOL
REMARK 927      BINDING AFFINITY PREDICTED BY RF-SCORE:    0.00 PKD
ROOT
HETATM    1  C   UNL     1     -10.508   9.363  67.364  1.00  0.00    -0.278 C  
HETATM    2  O   UNL     1     -12.167  12.196  66.841  1.00  0.00    -0.537 OA 
HETATM    3  O   UNL     1     -10.347   9.800  66.006  1.00  0.00    -0.221 OA 
HETATM    4  H   UNL     1     -12.577  11.246  69.144  1.00  0.00     0.000 HD 
HETATM    5  C   UNL     1     -10.076  11.214  66.004  1.00  0.00    -0.244 C  
HETATM    6  H   UNL     1     -12.641  12.547  67.586  1.00  0.00     0.000 HD 
HETATM    7  C   UNL     1     -10.836  11.775  67.198  1.00  0.00    -0.258 C  
HETATM    8  O   UNL     1     -12.304  10.485  68.645  1.00  0.00    -0.214 OA 
HETATM    9  C   UNL     1     -10.951  10.603  68.176  1.00  0.00    -0.269 C  
ENDROOT
BRANCH   1  10
HETATM   10  O   UNL     1      -9.267   8.877  67.882  1.00  0.00    -0.138 OA 
BRANCH  10  11
HETATM   11  C   UNL     1      -9.024   7.444  67.846  1.00  0.00    -0.131 C  
HETATM   12  O   UNL     1      -8.721   7.422  65.437  1.00  0.00    -0.311 OA 
HETATM   13  H2  UNL     1      -9.914   3.369  69.915  1.00  0.00     0.000 HD 
HETATM   14  H   UNL     1      -8.987   7.034  64.612  1.00  0.00     0.000 HD 
HETATM   15  C   UNL     1      -9.455   6.817  66.510  1.00  0.00    -0.150 C  
HETATM   16  H1  UNL     1      -9.692   4.727  70.904  1.00  0.00     0.000 HD 
HETATM   17  C   UNL     1      -9.885   4.592  67.577  1.00  0.00    -0.191 C  
HETATM   18  N   UNL     1      -9.632   4.792  65.130  1.00  0.00    -0.301 NA 
HETATM   19  N   UNL     1     -10.031   4.378  70.008  1.00  0.00    -0.221 NA 
HETATM   20  H1  UNL     1      -9.450   3.790  65.079  1.00  0.00     0.000 HD 
HETATM   21  H2  UNL     1      -9.213   5.298  64.349  1.00  0.00     0.000 HD 
HETATM   22  C   UNL     1      -9.375   5.117  68.924  1.00  0.00    -0.125 C  
HETATM   23  C   UNL     1      -9.182   5.310  66.433  1.00  0.00    -0.144 C  
HETATM   24  C   UNL     1      -9.577   6.664  69.077  1.00  0.00    -0.133 C  
BRANCH  24  25
HETATM   25  O   UNL     1      -9.106   7.205  70.340  1.00  0.00    -0.154 OA 
BRANCH  25  26
HETATM   26  C   UNL     1      -7.847   6.714  70.819  1.00  0.00    -0.105 C  
HETATM   27  O   UNL     1      -6.765   7.203  70.023  1.00  0.00    -0.049 OA 
HETATM   28  C   UNL     1      -6.608   8.627  70.111  1.00  0.00    -0.038 C  
HETATM   29  C   UNL     1      -6.204   9.017  71.539  1.00  0.00    -0.075 C  
HETATM   30  H2  UNL     1      -8.884   5.646  73.127  1.00  0.00     0.000 HD 
HETATM   31  C   UNL     1      -7.295   8.550  72.504  1.00  0.00    -0.032 C  
HETATM   32  O   UNL     1      -6.066  10.433  71.728  1.00  0.00    -0.215 OA 
HETATM   33  H1  UNL     1      -8.526   6.863  74.219  1.00  0.00     0.000 HD 
HETATM   34  H   UNL     1      -5.816  10.675  72.613  1.00  0.00     0.000 HD 
HETATM   35  H   UNL     1      -7.546   8.512  74.455  1.00  0.00     0.000 HD 
HETATM   36  N   UNL     1      -8.688   6.641  73.237  1.00  0.00    -0.123 NA 
HETATM   37  O   UNL     1      -6.869   8.802  73.856  1.00  0.00    -0.323 OA 
HETATM   38  C   UNL     1      -7.600   7.055  72.322  1.00  0.00    -0.090 C  
BRANCH  28  39
HETATM   39  C   UNL     1      -5.587   9.046  69.039  1.00  0.00    -0.036 C  
HETATM   40  H2  UNL     1      -6.277   7.789  67.557  1.00  0.00     0.000 HD 
HETATM   41  N   UNL     1      -5.387   8.040  67.986  1.00  0.00    -0.032 NA 
HETATM   42  H1  UNL     1      -4.710   8.319  67.276  1.00  0.00     0.000 HD 
ENDBRANCH  28  39
ENDBRANCH  25  26
ENDBRANCH  24  25
ENDBRANCH  10  11
ENDBRANCH   1  10
BRANCH   5  43
HETATM   43  C   UNL     1      -8.574  11.517  66.081  1.00  0.00    -0.094 C  
HETATM   44  O   UNL     1      -8.377  12.827  66.623  1.00  0.00    -0.405 OA 
HETATM   45  H   UNL     1      -7.448  13.015  66.670  1.00  0.00     0.000 HD 
ENDBRANCH   5  43
TORSDOF 6
ENDMDL
MODEL      249
REMARK 921   NORMALIZED FREE ENERGY PREDICTED BY IDOCK:   -3.80 KCAL/MOL
REMARK 922        TOTAL FREE ENERGY PREDICTED BY IDOCK:   -6.77 KCAL/MOL
REMARK 923 INTER-LIGAND FREE ENERGY PREDICTED BY IDOCK:   -5.60 KCAL/MOL
REMARK 924 INTRA-LIGAND FREE ENERGY PREDICTED BY IDOCK:   -1.17 KCAL/MOL
REMARK 927      BINDING AFFINITY PREDICTED BY RF-SCORE:    0.00 PKD
ROOT
HETATM    1  C   UNL     1      -9.982   5.053  68.336  1.00  0.00    -0.136 C  
HETATM    2  O   UNL     1     -10.146   3.095  65.654  1.00  0.00    -0.366 OA 
HETATM    3  O   UNL     1      -9.779   3.680  68.700  1.00  0.00    -0.132 OA 
HETATM    4  H   UNL     1     -10.707   5.500  65.132  1.00  0.00     0.000 HD 
HETATM    5  C   UNL     1      -8.873   3.079  67.756  1.00  0.00    -0.133 C  
HETATM    6  H   UNL     1     -10.315   3.531  64.828  1.00  0.00     0.000 HD 
HETATM    7  C   UNL     1      -9.144   3.779  66.432  1.00  0.00    -0.152 C  
HETATM    8  O   UNL     1     -10.883   5.438  66.063  1.00  0.00    -0.154 OA 
HETATM    9  C   UNL     1      -9.695   5.154  66.819  1.00  0.00    -0.165 C  
ENDROOT
BRANCH   1  10
HETATM   10  O   UNL     1      -9.072   5.896  69.046  1.00  0.00    -0.121 OA 
BRANCH  10  11
HETATM   11  C   UNL     1      -9.563   6.597  70.223  1.00  0.00    -0.161 C  
HETATM   12  O   UNL     1      -9.529   4.593  71.593  1.00  0.00    -0.140 OA 
HETATM   13  H2  UNL     1     -12.134  10.169  71.740  1.00  0.00     0.000 HD 
HETATM   14  H   UNL     1     -10.024   4.023  72.169  1.00  0.00     0.000 HD 
HETATM   15  C   UNL     1     -10.364   5.673  71.154  1.00  0.00    -0.232 C  
HETATM   16  H1  UNL     1     -11.190  10.407  70.353  1.00  0.00     0.000 HD 
HETATM   17  C   UNL     1     -11.725   7.580  72.041  1.00  0.00    -0.333 C  
HETATM   18  N   UNL     1     -11.630   5.428  73.246  1.00  0.00    -0.515 NA 
HETATM   19  N   UNL     1     -11.736   9.744  70.903  1.00  0.00    -0.320 NA 
HETATM   20  H1  UNL     1     -11.966   5.898  74.086  1.00  0.00     0.000 HD 
HETATM   21  H2  UNL     1     -11.091   4.590  73.463  1.00  0.00     0.000 HD 
HETATM   22  C   UNL     1     -10.904   8.577  71.214  1.00  0.00    -0.251 C  
HETATM   23  C   UNL     1     -10.869   6.379  72.418  1.00  0.00    -0.236 C  
HETATM   24  C   UNL     1     -10.311   7.929  69.915  1.00  0.00    -0.224 C  
BRANCH  24  25
HETATM   25  O   UNL     1      -9.523   8.839  69.101  1.00  0.00    -0.155 OA 
BRANCH  25  26
HETATM   26  C   UNL     1      -8.173   8.445  68.824  1.00  0.00    -0.119 C  
HETATM   27  O   UNL     1      -7.920   8.422  67.417  1.00  0.00    -0.104 OA 
HETATM   28  C   UNL     1      -8.005   9.721  66.814  1.00  0.00    -0.105 C  
HETATM   29  C   UNL     1      -6.890  10.622  67.362  1.00  0.00    -0.077 C  
HETATM   30  H2  UNL     1      -7.357   8.575  71.444  1.00  0.00     0.000 HD 
HETATM   31  C   UNL     1      -7.050  10.737  68.879  1.00  0.00    -0.082 C  
HETATM   32  O   UNL     1      -6.927  11.959  66.842  1.00  0.00    -0.252 OA 
HETATM   33  H1  UNL     1      -6.634  10.084  71.468  1.00  0.00     0.000 HD 
HETATM   34  H   UNL     1      -6.236  12.516  67.181  1.00  0.00     0.000 HD 
HETATM   35  H   UNL     1      -6.038  11.549  70.358  1.00  0.00     0.000 HD 
HETATM   36  N   UNL     1      -7.321   9.492  71.001  1.00  0.00    -0.319 NA 
HETATM   37  O   UNL     1      -5.939  11.478  69.416  1.00  0.00    -0.061 OA 
HETATM   38  C   UNL     1      -7.123   9.351  69.540  1.00  0.00    -0.062 C  
BRANCH  28  39
HETATM   39  C   UNL     1      -7.956   9.527  65.289  1.00  0.00    -0.112 C  
HETATM   40  H2  UNL     1      -8.132  11.521  64.795  1.00  0.00     0.000 HD 
HETATM   41  N   UNL     1      -8.557  10.632  64.531  1.00  0.00    -0.293 NA 
HETATM   42  H1  UNL     1      -8.524  10.503  63.520  1.00  0.00     0.000 HD 
ENDBRANCH  28  39
ENDBRANCH  25  26
ENDBRANCH  24  25
ENDBRANCH  10  11
ENDBRANCH   1  10
BRANCH   5  43
HETATM   43  C   UNL     1      -7.408   3.214  68.193  1.00  0.00    -0.050 C  
HETATM   44  O   UNL     1      -7.313   3.028  69.609  1.00  0.00    -0.044 OA 
HETATM   45  H   UNL     1      -6.406   3.111  69.880  1.00  0.00     0.000 HD 
ENDBRANCH   5  43
TORSDOF 6
ENDMDL
MODEL      250
REMARK 921   NORMALIZED FREE ENERGY PREDICTED BY IDOCK:   -3.79 KCAL/MOL
REMARK 922        TOTAL FREE ENERGY PREDICTED BY IDOCK:   -6.76 KCAL/MOL
REMARK 923 INTER-LIGAND FREE ENERGY PREDICTED BY IDOCK:   -5.36 KCAL/MOL
REMARK 924 INTRA-LIGAND FREE ENERGY PREDICTED BY IDOCK:   -1.41 KCAL/MOL
REMARK 927      BINDING AFFINITY PREDICTED BY RF-SCORE:    0.00 PKD
ROOT
HETATM    1  C   UNL     1     -10.494   6.500  70.186  1.00  0.00    -0.214 C  
HETATM    2  O   UNL     1     -11.700   5.003  72.899  1.00  0.00    -0.268 OA 
HETATM    3  O   UNL     1     -11.924   6.608  70.229  1.00  0.00    -0.387 OA 
HETATM    4  H   UNL     1      -9.211   4.671  72.636  1.00  0.00     0.000 HD 
HETATM    5  C   UNL     1     -12.321   6.971  71.564  1.00  0.00    -0.379 C  
HETATM    6  H   UNL     1     -11.060   4.599  73.472  1.00  0.00     0.000 HD 
HETATM    7  C   UNL     1     -11.296   6.322  72.483  1.00  0.00    -0.275 C  
HETATM    8  O   UNL     1      -9.495   4.862  71.750  1.00  0.00    -0.143 OA 
HETATM    9  C   UNL     1     -10.032   6.189  71.629  1.00  0.00    -0.177 C  
ENDROOT
BRANCH   1  10
HETATM   10  O   UNL     1      -9.914   7.734  69.759  1.00  0.00    -0.184 OA 
BRANCH  10  11
HETATM   11  C   UNL     1      -8.466   7.863  69.806  1.00  0.00    -0.132 C  
HETATM   12  O   UNL     1      -8.494   8.874  72.013  1.00  0.00    -0.367 OA 
HETATM   13  H2  UNL     1      -4.598   8.397  67.271  1.00  0.00     0.000 HD 
HETATM   14  H   UNL     1      -8.217   9.609  72.548  1.00  0.00     0.000 HD 
HETATM   15  C   UNL     1      -8.017   9.051  70.672  1.00  0.00    -0.141 C  
HETATM   16  H1  UNL     1      -5.821   7.404  66.647  1.00  0.00     0.000 HD 
HETATM   17  C   UNL     1      -5.895   9.329  69.371  1.00  0.00    -0.034 C  
HETATM   18  N   UNL     1      -6.153  10.355  71.601  1.00  0.00    -0.184 NA 
HETATM   19  N   UNL     1      -5.601   8.227  67.208  1.00  0.00    -0.037 NA 
HETATM   20  H1  UNL     1      -5.140  10.449  71.661  1.00  0.00     0.000 HD 
HETATM   21  H2  UNL     1      -6.591  10.308  72.521  1.00  0.00     0.000 HD 
HETATM   22  C   UNL     1      -6.226   8.091  68.528  1.00  0.00    -0.045 C  
HETATM   23  C   UNL     1      -6.493   9.192  70.764  1.00  0.00    -0.069 C  
HETATM   24  C   UNL     1      -7.770   7.845  68.412  1.00  0.00    -0.114 C  
BRANCH  24  25
HETATM   25  O   UNL     1      -8.130   6.679  67.622  1.00  0.00    -0.116 OA 
BRANCH  25  26
HETATM   26  C   UNL     1      -9.213   6.840  66.697  1.00  0.00    -0.159 C  
HETATM   27  O   UNL     1      -8.831   7.663  65.593  1.00  0.00    -0.140 OA 
HETATM   28  C   UNL     1      -7.805   7.069  64.784  1.00  0.00    -0.126 C  
HETATM   29  C   UNL     1      -8.344   5.799  64.113  1.00  0.00    -0.047 C  
HETATM   30  H2  UNL     1     -10.811   4.950  67.889  1.00  0.00     0.000 HD 
HETATM   31  C   UNL     1      -8.788   4.818  65.198  1.00  0.00    -0.151 C  
HETATM   32  O   UNL     1      -7.366   5.115  63.315  1.00  0.00    -0.047 OA 
HETATM   33  H1  UNL     1     -10.514   3.629  66.905  1.00  0.00     0.000 HD 
HETATM   34  H   UNL     1      -7.700   4.328  62.899  1.00  0.00     0.000 HD 
HETATM   35  H   UNL     1      -9.683   3.066  65.254  1.00  0.00     0.000 HD 
HETATM   36  N   UNL     1     -10.149   4.519  67.244  1.00  0.00    -0.135 NA 
HETATM   37  O   UNL     1      -9.407   3.676  64.579  1.00  0.00    -0.131 OA 
HETATM   38  C   UNL     1      -9.770   5.477  66.179  1.00  0.00    -0.123 C  
BRANCH  28  39
HETATM   39  C   UNL     1      -7.322   8.141  63.792  1.00  0.00    -0.101 C  
HETATM   40  H2  UNL     1      -5.941   9.016  65.049  1.00  0.00     0.000 HD 
HETATM   41  N   UNL     1      -6.702   9.307  64.435  1.00  0.00    -0.084 NA 
HETATM   42  H1  UNL     1      -6.381  10.017  63.776  1.00  0.00     0.000 HD 
ENDBRANCH  28  39
ENDBRANCH  25  26
ENDBRANCH  24  25
ENDBRANCH  10  11
ENDBRANCH   1  10
BRANCH   5  43
HETATM   43  C   UNL     1     -12.390   8.492  71.755  1.00  0.00    -0.338 C  
HETATM   44  O   UNL     1     -13.210   9.065  70.731  1.00  0.00    -0.509 OA 
HETATM   45  H   UNL     1     -13.253  10.007  70.849  1.00  0.00     0.000 HD 
ENDBRANCH   5  43
TORSDOF 6
ENDMDL
MODEL      251
REMARK 921   NORMALIZED FREE ENERGY PREDICTED BY IDOCK:   -3.79 KCAL/MOL
REMARK 922        TOTAL FREE ENERGY PREDICTED BY IDOCK:   -6.76 KCAL/MOL
REMARK 923 INTER-LIGAND FREE ENERGY PREDICTED BY IDOCK:   -5.90 KCAL/MOL
REMARK 924 INTRA-LIGAND FREE ENERGY PREDICTED BY IDOCK:   -0.86 KCAL/MOL
REMARK 927      BINDING AFFINITY PREDICTED BY RF-SCORE:    0.00 PKD
ROOT
HETATM    1  C   UNL     1      -7.824   8.675  66.424  1.00  0.00    -0.099 C  
HETATM    2  O   UNL     1      -7.688   5.823  64.721  1.00  0.00    -0.084 OA 
HETATM    3  O   UNL     1      -6.469   8.362  66.071  1.00  0.00    -0.052 OA 
HETATM    4  H   UNL     1     -10.011   6.333  65.569  1.00  0.00     0.000 HD 
HETATM    5  C   UNL     1      -6.436   7.938  64.695  1.00  0.00    -0.048 C  
HETATM    6  H   UNL     1      -8.518   5.386  64.571  1.00  0.00     0.000 HD 
HETATM    7  C   UNL     1      -7.766   7.237  64.455  1.00  0.00    -0.120 C  
HETATM    8  O   UNL     1      -9.455   6.832  66.156  1.00  0.00    -0.121 OA 
HETATM    9  C   UNL     1      -8.729   7.863  65.467  1.00  0.00    -0.081 C  
ENDROOT
BRANCH   1  10
HETATM   10  O   UNL     1      -8.078  10.070  66.243  1.00  0.00    -0.113 OA 
BRANCH  10  11
HETATM   11  C   UNL     1      -9.460  10.504  66.115  1.00  0.00    -0.180 C  
HETATM   12  O   UNL     1      -9.464  10.223  63.704  1.00  0.00    -0.274 OA 
HETATM   13  H2  UNL     1     -12.809  13.166  67.953  1.00  0.00     0.000 HD 
HETATM   14  H   UNL     1      -9.636  10.629  62.863  1.00  0.00     0.000 HD 
HETATM   15  C   UNL     1      -9.737  11.161  64.754  1.00  0.00    -0.257 C  
HETATM   16  H1  UNL     1     -11.766  12.360  69.018  1.00  0.00     0.000 HD 
HETATM   17  C   UNL     1     -11.587  12.564  65.693  1.00  0.00    -0.435 C  
HETATM   18  N   UNL     1     -11.369  12.227  63.258  1.00  0.00    -0.697 NA 
HETATM   19  N   UNL     1     -11.865  12.813  68.109  1.00  0.00    -0.341 NA 
HETATM   20  H1  UNL     1     -12.339  12.520  63.142  1.00  0.00     0.000 HD 
HETATM   21  H2  UNL     1     -11.059  11.617  62.500  1.00  0.00     0.000 HD 
HETATM   22  C   UNL     1     -11.437  11.883  67.059  1.00  0.00    -0.316 C  
HETATM   23  C   UNL     1     -11.195  11.602  64.580  1.00  0.00    -0.269 C  
HETATM   24  C   UNL     1      -9.981  11.362  67.308  1.00  0.00    -0.194 C  
BRANCH  24  25
HETATM   25  O   UNL     1      -9.793  10.707  68.592  1.00  0.00    -0.164 OA 
BRANCH  25  26
HETATM   26  C   UNL     1     -10.375   9.405  68.739  1.00  0.00    -0.209 C  
HETATM   27  O   UNL     1      -9.367   8.401  68.873  1.00  0.00    -0.147 OA 
HETATM   28  C   UNL     1      -8.595   8.544  70.074  1.00  0.00    -0.134 C  
HETATM   29  C   UNL     1      -9.492   8.315  71.298  1.00  0.00    -0.172 C  
HETATM   30  H2  UNL     1     -12.941  10.338  69.045  1.00  0.00     0.000 HD 
HETATM   31  C   UNL     1     -10.625   9.342  71.279  1.00  0.00    -0.330 C  
HETATM   32  O   UNL     1      -8.807   8.481  72.549  1.00  0.00    -0.261 OA 
HETATM   33  H1  UNL     1     -13.086  10.303  70.712  1.00  0.00     0.000 HD 
HETATM   34  H   UNL     1      -9.363   8.339  73.307  1.00  0.00     0.000 HD 
HETATM   35  H   UNL     1     -12.242   9.697  72.341  1.00  0.00     0.000 HD 
HETATM   36  N   UNL     1     -12.434  10.357  69.929  1.00  0.00    -0.144 NA 
HETATM   37  O   UNL     1     -11.539   9.059  72.354  1.00  0.00    -0.272 OA 
HETATM   38  C   UNL     1     -11.373   9.323  69.937  1.00  0.00    -0.061 C  
BRANCH  28  39
HETATM   39  C   UNL     1      -7.410   7.567  69.980  1.00  0.00    -0.081 C  
HETATM   40  H2  UNL     1      -6.101   8.680  71.122  1.00  0.00     0.000 HD 
HETATM   41  N   UNL     1      -6.105   8.196  70.224  1.00  0.00    -0.032 NA 
HETATM   42  H1  UNL     1      -5.319   7.548  70.162  1.00  0.00     0.000 HD 
ENDBRANCH  28  39
ENDBRANCH  25  26
ENDBRANCH  24  25
ENDBRANCH  10  11
ENDBRANCH   1  10
BRANCH   5  43
HETATM   43  C   UNL     1      -6.217   9.111  63.731  1.00  0.00    -0.088 C  
HETATM   44  O   UNL     1      -5.867  10.282  64.476  1.00  0.00    -0.119 OA 
HETATM   45  H   UNL     1      -5.731  11.009  63.880  1.00  0.00     0.000 HD 
ENDBRANCH   5  43
TORSDOF 6
ENDMDL
MODEL      252
REMARK 921   NORMALIZED FREE ENERGY PREDICTED BY IDOCK:   -3.78 KCAL/MOL
REMARK 922        TOTAL FREE ENERGY PREDICTED BY IDOCK:   -6.75 KCAL/MOL
REMARK 923 INTER-LIGAND FREE ENERGY PREDICTED BY IDOCK:   -6.55 KCAL/MOL
REMARK 924 INTRA-LIGAND FREE ENERGY PREDICTED BY IDOCK:   -0.20 KCAL/MOL
REMARK 927      BINDING AFFINITY PREDICTED BY RF-SCORE:    0.00 PKD
ROOT
HETATM    1  C   UNL     1     -10.157  13.267  65.704  1.00  0.00    -0.272 C  
HETATM    2  O   UNL     1     -13.477  13.419  65.653  1.00  0.00    -0.325 OA 
HETATM    3  O   UNL     1     -10.623  13.673  64.410  1.00  0.00    -0.423 OA 
HETATM    4  H   UNL     1     -12.584  12.502  67.829  1.00  0.00     0.000 HD 
HETATM    5  C   UNL     1     -11.652  14.666  64.579  1.00  0.00    -0.370 C  
HETATM    6  H   UNL     1     -13.918  13.192  66.463  1.00  0.00     0.000 HD 
HETATM    7  C   UNL     1     -12.359  14.301  65.877  1.00  0.00    -0.403 C  
HETATM    8  O   UNL     1     -11.876  12.332  67.220  1.00  0.00    -0.500 OA 
HETATM    9  C   UNL     1     -11.310  13.545  66.697  1.00  0.00    -0.322 C  
ENDROOT
BRANCH   1  10
HETATM   10  O   UNL     1      -9.011  14.033  66.084  1.00  0.00    -0.025 OA 
BRANCH  10  11
HETATM   11  C   UNL     1      -8.495  13.870  67.434  1.00  0.00    -0.199 C  
HETATM   12  O   UNL     1      -8.950  16.179  68.029  1.00  0.00    -0.183 OA 
HETATM   13  H2  UNL     1      -5.488  11.535  70.114  1.00  0.00     0.000 HD 
HETATM   14  H   UNL     1      -8.595  16.989  68.378  1.00  0.00     0.000 HD 
HETATM   15  C   UNL     1      -7.922  15.180  67.998  1.00  0.00    -0.132 C  
HETATM   16  H1  UNL     1      -6.283  10.679  68.887  1.00  0.00     0.000 HD 
HETATM   17  C   UNL     1      -6.333  13.958  69.500  1.00  0.00    -0.118 C  
HETATM   18  N   UNL     1      -6.861  16.338  69.888  1.00  0.00    -0.023 NA 
HETATM   19  N   UNL     1      -5.891  11.575  69.179  1.00  0.00    -0.046 NA 
HETATM   20  H1  UNL     1      -6.512  16.247  70.841  1.00  0.00     0.000 HD 
HETATM   21  H2  UNL     1      -7.543  17.091  69.797  1.00  0.00     0.000 HD 
HETATM   22  C   UNL     1      -6.922  12.612  69.060  1.00  0.00    -0.062 C  
HETATM   23  C   UNL     1      -7.398  15.044  69.432  1.00  0.00    -0.194 C  
HETATM   24  C   UNL     1      -7.520  12.667  67.613  1.00  0.00    -0.143 C  
BRANCH  24  25
HETATM   25  O   UNL     1      -8.092  11.411  67.155  1.00  0.00    -0.140 OA 
BRANCH  25  26
HETATM   26  C   UNL     1      -7.226  10.269  67.171  1.00  0.00    -0.090 C  
HETATM   27  O   UNL     1      -7.974   9.056  67.284  1.00  0.00    -0.099 OA 
HETATM   28  C   UNL     1      -8.809   8.809  66.143  1.00  0.00    -0.168 C  
HETATM   29  C   UNL     1      -7.937   8.577  64.902  1.00  0.00    -0.137 C  
HETATM   30  H2  UNL     1      -4.968  11.685  66.509  1.00  0.00     0.000 HD 
HETATM   31  C   UNL     1      -7.079   9.819  64.663  1.00  0.00    -0.127 C  
HETATM   32  O   UNL     1      -8.695   8.363  63.702  1.00  0.00    -0.415 OA 
HETATM   33  H1  UNL     1      -4.890  11.392  64.863  1.00  0.00     0.000 HD 
HETATM   34  H   UNL     1      -8.155   8.219  62.934  1.00  0.00     0.000 HD 
HETATM   35  H   UNL     1      -5.637  10.336  63.428  1.00  0.00     0.000 HD 
HETATM   36  N   UNL     1      -5.503  11.435  65.678  1.00  0.00    -0.158 NA 
HETATM   37  O   UNL     1      -6.171   9.564  63.576  1.00  0.00    -0.091 OA 
HETATM   38  C   UNL     1      -6.290  10.204  65.924  1.00  0.00    -0.098 C  
BRANCH  28  39
HETATM   39  C   UNL     1      -9.727   7.624  66.491  1.00  0.00    -0.181 C  
HETATM   40  H2  UNL     1     -11.479   8.707  66.589  1.00  0.00     0.000 HD 
HETATM   41  N   UNL     1     -10.979   8.017  67.150  1.00  0.00    -0.447 NA 
HETATM   42  H1  UNL     1     -11.587   7.231  67.380  1.00  0.00     0.000 HD 
ENDBRANCH  28  39
ENDBRANCH  25  26
ENDBRANCH  24  25
ENDBRANCH  10  11
ENDBRANCH   1  10
BRANCH   5  43
HETATM   43  C   UNL     1     -11.082  16.091  64.612  1.00  0.00    -0.332 C  
HETATM   44  O   UNL     1     -10.605  16.384  65.930  1.00  0.00    -0.329 OA 
HETATM   45  H   UNL     1     -10.253  17.266  65.950  1.00  0.00     0.000 HD 
ENDBRANCH   5  43
TORSDOF 6
ENDMDL
MODEL      253
REMARK 921   NORMALIZED FREE ENERGY PREDICTED BY IDOCK:   -3.77 KCAL/MOL
REMARK 922        TOTAL FREE ENERGY PREDICTED BY IDOCK:   -6.74 KCAL/MOL
REMARK 923 INTER-LIGAND FREE ENERGY PREDICTED BY IDOCK:   -6.73 KCAL/MOL
REMARK 924 INTRA-LIGAND FREE ENERGY PREDICTED BY IDOCK:   -0.01 KCAL/MOL
REMARK 927      BINDING AFFINITY PREDICTED BY RF-SCORE:    0.00 PKD
ROOT
HETATM    1  C   UNL     1      -6.100  16.164  68.010  1.00  0.00    -0.120 C  
HETATM    2  O   UNL     1      -5.140  15.176  71.036  1.00  0.00    -0.128 OA 
HETATM    3  O   UNL     1      -5.182  15.066  67.915  1.00  0.00    -0.141 OA 
HETATM    4  H   UNL     1      -6.588  17.244  71.107  1.00  0.00     0.000 HD 
HETATM    5  C   UNL     1      -5.554  14.067  68.882  1.00  0.00    -0.082 C  
HETATM    6  H   UNL     1      -5.508  15.656  71.768  1.00  0.00     0.000 HD 
HETATM    7  C   UNL     1      -6.141  14.837  70.056  1.00  0.00    -0.150 C  
HETATM    8  O   UNL     1      -6.235  17.261  70.225  1.00  0.00    -0.055 OA 
HETATM    9  C   UNL     1      -6.674  16.136  69.446  1.00  0.00    -0.205 C  
ENDROOT
BRANCH   1  10
HETATM   10  O   UNL     1      -7.167  16.006  67.072  1.00  0.00    -0.207 OA 
BRANCH  10  11
HETATM   11  C   UNL     1      -7.670  17.193  66.399  1.00  0.00    -0.310 C  
HETATM   12  O   UNL     1      -5.447  18.107  66.063  1.00  0.00    -0.151 OA 
HETATM   13  H2  UNL     1     -11.259  20.135  66.026  1.00  0.00     0.000 HD 
HETATM   14  H   UNL     1      -4.875  18.857  66.184  1.00  0.00     0.000 HD 
HETATM   15  C   UNL     1      -6.746  18.405  66.593  1.00  0.00    -0.194 C  
HETATM   16  H1  UNL     1     -11.604  18.491  66.249  1.00  0.00     0.000 HD 
HETATM   17  C   UNL     1      -8.641  20.022  66.335  1.00  0.00    -0.350 C  
HETATM   18  N   UNL     1      -6.301  20.774  66.116  1.00  0.00    -0.243 NA 
HETATM   19  N   UNL     1     -10.961  19.257  66.450  1.00  0.00    -0.242 NA 
HETATM   20  H1  UNL     1      -6.628  21.611  65.634  1.00  0.00     0.000 HD 
HETATM   21  H2  UNL     1      -5.343  20.533  65.861  1.00  0.00     0.000 HD 
HETATM   22  C   UNL     1      -9.608  18.870  66.034  1.00  0.00    -0.116 C  
HETATM   23  C   UNL     1      -7.237  19.664  65.869  1.00  0.00    -0.300 C  
HETATM   24  C   UNL     1      -9.162  17.525  66.705  1.00  0.00    -0.265 C  
BRANCH  24  25
HETATM   25  O   UNL     1     -10.050  16.405  66.444  1.00  0.00    -0.285 OA 
BRANCH  25  26
HETATM   26  C   UNL     1     -11.260  16.353  67.211  1.00  0.00     0.093 C  
HETATM   27  O   UNL     1     -12.010  15.174  66.912  1.00  0.00    -0.126 OA 
HETATM   28  C   UNL     1     -11.333  13.970  67.301  1.00  0.00    -0.330 C  
HETATM   29  C   UNL     1     -11.189  13.925  68.829  1.00  0.00    -0.272 C  
HETATM   30  H2  UNL     1     -10.598  18.476  68.823  1.00  0.00     0.000 HD 
HETATM   31  C   UNL     1     -10.390  15.146  69.285  1.00  0.00    -0.257 C  
HETATM   32  O   UNL     1     -10.483  12.769  69.304  1.00  0.00    -0.432 OA 
HETATM   33  H1  UNL     1     -10.019  17.671  70.172  1.00  0.00     0.000 HD 
HETATM   34  H   UNL     1     -10.394  12.742  70.249  1.00  0.00     0.000 HD 
HETATM   35  H   UNL     1      -9.859  15.936  71.007  1.00  0.00     0.000 HD 
HETATM   36  N   UNL     1     -10.186  17.609  69.167  1.00  0.00    -0.311 NA 
HETATM   37  O   UNL     1     -10.356  15.177  70.723  1.00  0.00    -0.043 OA 
HETATM   38  C   UNL     1     -11.004  16.448  68.747  1.00  0.00    -0.344 C  
BRANCH  28  39
HETATM   39  C   UNL     1     -12.121  12.786  66.715  1.00  0.00    -0.220 C  
HETATM   40  H2  UNL     1     -11.642  13.142  64.741  1.00  0.00     0.000 HD 
HETATM   41  N   UNL     1     -12.474  12.953  65.299  1.00  0.00    -0.524 NA 
HETATM   42  H1  UNL     1     -12.997  12.168  64.910  1.00  0.00     0.000 HD 
ENDBRANCH  28  39
ENDBRANCH  25  26
ENDBRANCH  24  25
ENDBRANCH  10  11
ENDBRANCH   1  10
BRANCH   5  43
HETATM   43  C   UNL     1      -6.542  13.043  68.308  1.00  0.00    -0.094 C  
HETATM   44  O   UNL     1      -7.466  12.648  69.327  1.00  0.00    -0.323 OA 
HETATM   45  H   UNL     1      -8.078  12.014  68.972  1.00  0.00     0.000 HD 
ENDBRANCH   5  43
TORSDOF 6
ENDMDL
MODEL      254
REMARK 921   NORMALIZED FREE ENERGY PREDICTED BY IDOCK:   -3.75 KCAL/MOL
REMARK 922        TOTAL FREE ENERGY PREDICTED BY IDOCK:   -6.70 KCAL/MOL
REMARK 923 INTER-LIGAND FREE ENERGY PREDICTED BY IDOCK:   -6.88 KCAL/MOL
REMARK 924 INTRA-LIGAND FREE ENERGY PREDICTED BY IDOCK:    0.18 KCAL/MOL
REMARK 927      BINDING AFFINITY PREDICTED BY RF-SCORE:    0.00 PKD
ROOT
HETATM    1  C   UNL     1      -9.022  16.674  66.371  1.00  0.00    -0.291 C  
HETATM    2  O   UNL     1      -8.311  19.341  68.224  1.00  0.00    -0.312 OA 
HETATM    3  O   UNL     1      -8.057  17.504  65.711  1.00  0.00    -0.551 OA 
HETATM    4  H   UNL     1     -10.163  17.940  69.215  1.00  0.00     0.000 HD 
HETATM    5  C   UNL     1      -7.060  17.907  66.669  1.00  0.00    -0.219 C  
HETATM    6  H   UNL     1      -8.769  19.408  69.053  1.00  0.00     0.000 HD 
HETATM    7  C   UNL     1      -7.795  18.014  67.997  1.00  0.00    -0.256 C  
HETATM    8  O   UNL     1     -10.188  17.707  68.295  1.00  0.00    -0.331 OA 
HETATM    9  C   UNL     1      -8.981  17.054  67.870  1.00  0.00    -0.228 C  
ENDROOT
BRANCH   1  10
HETATM   10  O   UNL     1      -8.677  15.294  66.224  1.00  0.00    -0.283 OA 
BRANCH  10  11
HETATM   11  C   UNL     1      -9.754  14.317  66.208  1.00  0.00    -0.302 C  
HETATM   12  O   UNL     1     -10.797  15.301  64.249  1.00  0.00    -0.592 OA 
HETATM   13  H2  UNL     1     -12.370  11.478  68.812  1.00  0.00     0.000 HD 
HETATM   14  H   UNL     1     -11.596  15.653  63.873  1.00  0.00     0.000 HD 
HETATM   15  C   UNL     1     -11.045  14.887  65.600  1.00  0.00    -0.348 C  
HETATM   16  H1  UNL     1     -10.733  11.641  69.219  1.00  0.00     0.000 HD 
HETATM   17  C   UNL     1     -12.483  13.332  66.937  1.00  0.00    -0.045 C  
HETATM   18  N   UNL     1     -13.385  14.497  64.957  1.00  0.00    -0.098 NA 
HETATM   19  N   UNL     1     -11.561  12.098  68.836  1.00  0.00    -0.299 NA 
HETATM   20  H1  UNL     1     -14.146  13.820  64.920  1.00  0.00     0.000 HD 
HETATM   21  H2  UNL     1     -13.194  14.912  64.045  1.00  0.00     0.000 HD 
HETATM   22  C   UNL     1     -11.239  12.645  67.514  1.00  0.00    -0.288 C  
HETATM   23  C   UNL     1     -12.189  13.868  65.543  1.00  0.00    -0.444 C  
HETATM   24  C   UNL     1     -10.001  13.606  67.573  1.00  0.00    -0.230 C  
BRANCH  24  25
HETATM   25  O   UNL     1      -8.798  12.995  68.112  1.00  0.00    -0.186 OA 
BRANCH  25  26
HETATM   26  C   UNL     1      -8.796  11.566  68.219  1.00  0.00    -0.166 C  
HETATM   27  O   UNL     1      -9.168  10.955  66.981  1.00  0.00    -0.151 OA 
HETATM   28  C   UNL     1      -8.219  11.199  65.932  1.00  0.00    -0.048 C  
HETATM   29  C   UNL     1      -6.883  10.526  66.275  1.00  0.00    -0.127 C  
HETATM   30  H2  UNL     1      -7.609  11.525  70.695  1.00  0.00     0.000 HD 
HETATM   31  C   UNL     1      -6.365  11.102  67.593  1.00  0.00    -0.054 C  
HETATM   32  O   UNL     1      -5.859  10.756  65.295  1.00  0.00    -0.251 OA 
HETATM   33  H1  UNL     1      -6.017  11.232  70.270  1.00  0.00     0.000 HD 
HETATM   34  H   UNL     1      -5.032  10.339  65.507  1.00  0.00     0.000 HD 
HETATM   35  H   UNL     1      -4.855  10.749  68.804  1.00  0.00     0.000 HD 
HETATM   36  N   UNL     1      -6.913  11.603  69.954  1.00  0.00     0.095 NA 
HETATM   37  O   UNL     1      -5.176  10.391  67.984  1.00  0.00    -0.035 OA 
HETATM   38  C   UNL     1      -7.425  10.999  68.702  1.00  0.00    -0.112 C  
BRANCH  28  39
HETATM   39  C   UNL     1      -8.847  10.704  64.618  1.00  0.00    -0.177 C  
HETATM   40  H2  UNL     1      -7.188   9.682  63.939  1.00  0.00     0.000 HD 
HETATM   41  N   UNL     1      -7.861  10.361  63.583  1.00  0.00    -0.291 NA 
HETATM   42  H1  UNL     1      -8.277  10.033  62.712  1.00  0.00     0.000 HD 
ENDBRANCH  28  39
ENDBRANCH  25  26
ENDBRANCH  24  25
ENDBRANCH  10  11
ENDBRANCH   1  10
BRANCH   5  43
HETATM   43  C   UNL     1      -5.887  16.921  66.734  1.00  0.00    -0.154 C  
HETATM   44  O   UNL     1      -5.656  16.543  68.096  1.00  0.00    -0.106 OA 
HETATM   45  H   UNL     1      -4.929  15.933  68.137  1.00  0.00     0.000 HD 
ENDBRANCH   5  43
TORSDOF 6
ENDMDL
MODEL      255
REMARK 921   NORMALIZED FREE ENERGY PREDICTED BY IDOCK:   -3.73 KCAL/MOL
REMARK 922        TOTAL FREE ENERGY PREDICTED BY IDOCK:   -6.69 KCAL/MOL
REMARK 923 INTER-LIGAND FREE ENERGY PREDICTED BY IDOCK:   -6.37 KCAL/MOL
REMARK 924 INTRA-LIGAND FREE ENERGY PREDICTED BY IDOCK:   -0.32 KCAL/MOL
REMARK 927      BINDING AFFINITY PREDICTED BY RF-SCORE:    0.00 PKD
ROOT
HETATM    1  C   UNL     1      -7.956  13.991  68.431  1.00  0.00    -0.143 C  
HETATM    2  O   UNL     1      -6.253  13.243  71.186  1.00  0.00    -0.534 OA 
HETATM    3  O   UNL     1      -8.182  14.978  69.447  1.00  0.00    -0.196 OA 
HETATM    4  H   UNL     1      -6.083  11.443  69.424  1.00  0.00     0.000 HD 
HETATM    5  C   UNL     1      -6.920  15.318  70.050  1.00  0.00    -0.054 C  
HETATM    6  H   UNL     1      -5.734  12.449  71.154  1.00  0.00     0.000 HD 
HETATM    7  C   UNL     1      -6.089  14.044  69.999  1.00  0.00    -0.148 C  
HETATM    8  O   UNL     1      -6.886  11.893  69.192  1.00  0.00    -0.101 OA 
HETATM    9  C   UNL     1      -6.648  13.258  68.810  1.00  0.00    -0.099 C  
ENDROOT
BRANCH   1  10
HETATM   10  O   UNL     1      -7.795  14.617  67.155  1.00  0.00    -0.197 OA 
BRANCH  10  11
HETATM   11  C   UNL     1      -8.963  14.733  66.296  1.00  0.00    -0.118 C  
HETATM   12  O   UNL     1      -8.425  17.010  65.649  1.00  0.00    -0.437 OA 
HETATM   13  H2  UNL     1     -13.332  13.293  65.581  1.00  0.00     0.000 HD 
HETATM   14  H   UNL     1      -8.735  17.906  65.585  1.00  0.00     0.000 HD 
HETATM   15  C   UNL     1      -9.463  16.182  66.191  1.00  0.00    -0.327 C  
HETATM   16  H1  UNL     1     -12.207  12.157  66.142  1.00  0.00     0.000 HD 
HETATM   17  C   UNL     1     -11.814  15.446  65.741  1.00  0.00     0.301 C  
HETATM   18  N   UNL     1     -11.094  17.751  65.232  1.00  0.00    -0.331 NA 
HETATM   19  N   UNL     1     -12.500  13.134  66.148  1.00  0.00    -0.423 NA 
HETATM   20  H1  UNL     1     -11.901  17.854  64.618  1.00  0.00     0.000 HD 
HETATM   21  H2  UNL     1     -10.328  18.372  64.970  1.00  0.00     0.000 HD 
HETATM   22  C   UNL     1     -11.373  13.976  65.732  1.00  0.00    -0.312 C  
HETATM   23  C   UNL     1     -10.676  16.339  65.267  1.00  0.00    -0.332 C  
HETATM   24  C   UNL     1     -10.108  13.728  66.624  1.00  0.00    -0.277 C  
BRANCH  24  25
HETATM   25  O   UNL     1      -9.654  12.348  66.644  1.00  0.00    -0.217 OA 
BRANCH  25  26
HETATM   26  C   UNL     1     -10.648  11.349  66.898  1.00  0.00    -0.252 C  
HETATM   27  O   UNL     1     -10.292  10.101  66.298  1.00  0.00    -0.226 OA 
HETATM   28  C   UNL     1      -9.108   9.527  66.871  1.00  0.00    -0.135 C  
HETATM   29  C   UNL     1      -9.366   9.157  68.338  1.00  0.00    -0.135 C  
HETATM   30  H2  UNL     1     -12.039  12.869  68.714  1.00  0.00     0.000 HD 
HETATM   31  C   UNL     1      -9.757  10.422  69.103  1.00  0.00    -0.220 C  
HETATM   32  O   UNL     1      -8.216   8.613  69.002  1.00  0.00    -0.118 OA 
HETATM   33  H1  UNL     1     -11.437  12.260  70.152  1.00  0.00     0.000 HD 
HETATM   34  H   UNL     1      -8.377   8.384  69.910  1.00  0.00     0.000 HD 
HETATM   35  H   UNL     1     -10.364  10.852  70.925  1.00  0.00     0.000 HD 
HETATM   36  N   UNL     1     -11.255  12.391  69.157  1.00  0.00    -0.248 NA 
HETATM   37  O   UNL     1     -10.120  10.066  70.449  1.00  0.00    -0.247 OA 
HETATM   38  C   UNL     1     -10.927  11.149  68.420  1.00  0.00    -0.227 C  
BRANCH  28  39
HETATM   39  C   UNL     1      -8.701   8.332  65.990  1.00  0.00    -0.155 C  
HETATM   40  H2  UNL     1      -7.656   7.314  67.447  1.00  0.00     0.000 HD 
HETATM   41  N   UNL     1      -7.521   7.609  66.481  1.00  0.00    -0.090 NA 
HETATM   42  H1  UNL     1      -7.252   6.817  65.897  1.00  0.00     0.000 HD 
ENDBRANCH  28  39
ENDBRANCH  25  26
ENDBRANCH  24  25
ENDBRANCH  10  11
ENDBRANCH   1  10
BRANCH   5  43
HETATM   43  C   UNL     1      -6.232  16.488  69.334  1.00  0.00    -0.197 C  
HETATM   44  O   UNL     1      -7.127  17.051  68.369  1.00  0.00    -0.172 OA 
HETATM   45  H   UNL     1      -6.701  17.775  67.926  1.00  0.00     0.000 HD 
ENDBRANCH   5  43
TORSDOF 6
ENDMDL
MODEL      256
REMARK 921   NORMALIZED FREE ENERGY PREDICTED BY IDOCK:   -3.71 KCAL/MOL
REMARK 922        TOTAL FREE ENERGY PREDICTED BY IDOCK:   -6.65 KCAL/MOL
REMARK 923 INTER-LIGAND FREE ENERGY PREDICTED BY IDOCK:   -5.94 KCAL/MOL
REMARK 924 INTRA-LIGAND FREE ENERGY PREDICTED BY IDOCK:   -0.71 KCAL/MOL
REMARK 927      BINDING AFFINITY PREDICTED BY RF-SCORE:    0.00 PKD
ROOT
HETATM    1  C   UNL     1     -10.241  14.819  69.293  1.00  0.00    -0.185 C  
HETATM    2  O   UNL     1     -12.263  16.441  71.374  1.00  0.00    -0.575 OA 
HETATM    3  O   UNL     1     -10.404  14.083  70.514  1.00  0.00     1.151 OA 
HETATM    4  H   UNL     1     -11.749  17.771  69.290  1.00  0.00     0.000 HD 
HETATM    5  C   UNL     1     -11.799  14.081  70.869  1.00  0.00    -0.173 C  
HETATM    6  H   UNL     1     -12.605  17.271  71.062  1.00  0.00     0.000 HD 
HETATM    7  C   UNL     1     -12.348  15.410  70.370  1.00  0.00    -0.402 C  
HETATM    8  O   UNL     1     -11.017  17.168  69.344  1.00  0.00    -0.116 OA 
HETATM    9  C   UNL     1     -11.433  15.800  69.205  1.00  0.00    -0.365 C  
ENDROOT
BRANCH   1  10
HETATM   10  O   UNL     1     -10.273  13.934  68.170  1.00  0.00    -0.235 OA 
BRANCH  10  11
HETATM   11  C   UNL     1     -11.129  14.283  67.048  1.00  0.00    -0.312 C  
HETATM   12  O   UNL     1     -12.577  12.364  67.384  1.00  0.00     0.132 OA 
HETATM   13  H2  UNL     1     -11.313  16.386  62.898  1.00  0.00     0.000 HD 
HETATM   14  H   UNL     1     -12.978  11.599  66.988  1.00  0.00     0.000 HD 
HETATM   15  C   UNL     1     -11.778  13.046  66.408  1.00  0.00    -0.390 C  
HETATM   16  H1  UNL     1     -10.349  17.091  64.100  1.00  0.00     0.000 HD 
HETATM   17  C   UNL     1     -11.952  14.166  64.174  1.00  0.00    -0.421 C  
HETATM   18  N   UNL     1     -13.280  12.149  64.682  1.00  0.00    -0.510 NA 
HETATM   19  N   UNL     1     -10.715  16.223  63.708  1.00  0.00     1.120 NA 
HETATM   20  H1  UNL     1     -13.900  12.376  63.905  1.00  0.00     0.000 HD 
HETATM   21  H2  UNL     1     -13.746  11.585  65.393  1.00  0.00     0.000 HD 
HETATM   22  C   UNL     1     -11.401  15.471  64.764  1.00  0.00    -0.357 C  
HETATM   23  C   UNL     1     -12.710  13.387  65.239  1.00  0.00    -0.422 C  
HETATM   24  C   UNL     1     -10.464  15.220  65.994  1.00  0.00    -0.317 C  
BRANCH  24  25
HETATM   25  O   UNL     1      -9.920  16.431  66.586  1.00  0.00    -0.250 OA 
BRANCH  25  26
HETATM   26  C   UNL     1      -8.619  16.834  66.141  1.00  0.00    -0.264 C  
HETATM   27  O   UNL     1      -8.525  18.258  66.046  1.00  0.00    -0.494 OA 
HETATM   28  C   UNL     1      -8.644  18.910  67.318  1.00  0.00    -0.277 C  
HETATM   29  C   UNL     1      -7.453  18.532  68.209  1.00  0.00    -0.281 C  
HETATM   30  H2  UNL     1      -7.514  14.330  66.365  1.00  0.00     0.000 HD 
HETATM   31  C   UNL     1      -7.440  17.015  68.398  1.00  0.00    -0.213 C  
HETATM   32  O   UNL     1      -7.514  19.110  69.522  1.00  0.00    -0.154 OA 
HETATM   33  H1  UNL     1      -6.757  14.458  67.852  1.00  0.00     0.000 HD 
HETATM   34  H   UNL     1      -6.776  18.876  70.073  1.00  0.00     0.000 HD 
HETATM   35  H   UNL     1      -6.251  15.696  69.246  1.00  0.00     0.000 HD 
HETATM   36  N   UNL     1      -7.505  14.818  67.260  1.00  0.00    -0.189 NA 
HETATM   37  O   UNL     1      -6.259  16.639  69.129  1.00  0.00    -0.161 OA 
HETATM   38  C   UNL     1      -7.474  16.283  67.047  1.00  0.00    -0.222 C  
BRANCH  28  39
HETATM   39  C   UNL     1      -8.768  20.420  67.053  1.00  0.00    -0.287 C  
HETATM   40  H2  UNL     1     -10.687  20.627  67.780  1.00  0.00     0.000 HD 
HETATM   41  N   UNL     1     -10.156  20.891  66.951  1.00  0.00    -0.306 NA 
HETATM   42  H1  UNL     1     -10.239  21.893  66.775  1.00  0.00     0.000 HD 
ENDBRANCH  28  39
ENDBRANCH  25  26
ENDBRANCH  24  25
ENDBRANCH  10  11
ENDBRANCH   1  10
BRANCH   5  43
HETATM   43  C   UNL     1     -12.549  12.884  70.270  1.00  0.00    -0.013 C  
HETATM   44  O   UNL     1     -11.647  11.782  70.119  1.00  0.00    -0.457 OA 
HETATM   45  H   UNL     1     -12.110  11.041  69.747  1.00  0.00     0.000 HD 
ENDBRANCH   5  43
TORSDOF 6
ENDMDL
MODEL      257
REMARK 921   NORMALIZED FREE ENERGY PREDICTED BY IDOCK:   -3.67 KCAL/MOL
REMARK 922        TOTAL FREE ENERGY PREDICTED BY IDOCK:   -6.61 KCAL/MOL
REMARK 923 INTER-LIGAND FREE ENERGY PREDICTED BY IDOCK:   -6.01 KCAL/MOL
REMARK 924 INTRA-LIGAND FREE ENERGY PREDICTED BY IDOCK:   -0.60 KCAL/MOL
REMARK 927      BINDING AFFINITY PREDICTED BY RF-SCORE:    0.00 PKD
ROOT
HETATM    1  C   UNL     1     -10.790   9.669  68.940  1.00  0.00    -0.174 C  
HETATM    2  O   UNL     1     -12.138  12.433  67.676  1.00  0.00    -0.470 OA 
HETATM    3  O   UNL     1     -10.806   9.613  67.506  1.00  0.00    -0.286 OA 
HETATM    4  H   UNL     1     -12.271  12.356  70.196  1.00  0.00     0.000 HD 
HETATM    5  C   UNL     1     -10.361  10.881  66.989  1.00  0.00    -0.231 C  
HETATM    6  H   UNL     1     -12.431  13.081  68.306  1.00  0.00     0.000 HD 
HETATM    7  C   UNL     1     -10.831  11.919  67.998  1.00  0.00    -0.216 C  
HETATM    8  O   UNL     1     -12.187  11.440  69.959  1.00  0.00    -0.309 OA 
HETATM    9  C   UNL     1     -10.928  11.161  69.325  1.00  0.00    -0.247 C  
ENDROOT
BRANCH   1  10
HETATM   10  O   UNL     1      -9.553   9.163  69.446  1.00  0.00    -0.159 OA 
BRANCH  10  11
HETATM   11  C   UNL     1      -9.592   7.988  70.302  1.00  0.00    -0.171 C  
HETATM   12  O   UNL     1     -11.142   9.013  71.863  1.00  0.00    -0.355 OA 
HETATM   13  H2  UNL     1      -7.215   4.273  71.795  1.00  0.00     0.000 HD 
HETATM   14  H   UNL     1     -11.317   9.237  72.770  1.00  0.00     0.000 HD 
HETATM   15  C   UNL     1      -9.875   8.349  71.769  1.00  0.00    -0.243 C  
HETATM   16  H1  UNL     1      -7.038   4.725  70.171  1.00  0.00     0.000 HD 
HETATM   17  C   UNL     1      -8.658   6.327  72.608  1.00  0.00    -0.123 C  
HETATM   18  N   UNL     1     -10.216   7.562  74.072  1.00  0.00    -0.345 NA 
HETATM   19  N   UNL     1      -7.196   5.044  71.128  1.00  0.00    -0.062 NA 
HETATM   20  H1  UNL     1     -10.266   6.748  74.684  1.00  0.00     0.000 HD 
HETATM   21  H2  UNL     1     -11.050   8.146  74.138  1.00  0.00     0.000 HD 
HETATM   22  C   UNL     1      -8.421   5.849  71.170  1.00  0.00    -0.124 C  
HETATM   23  C   UNL     1      -9.951   7.126  72.690  1.00  0.00    -0.177 C  
HETATM   24  C   UNL     1      -8.368   7.035  70.148  1.00  0.00    -0.138 C  
BRANCH  24  25
HETATM   25  O   UNL     1      -8.147   6.627  68.771  1.00  0.00    -0.116 OA 
BRANCH  25  26
HETATM   26  C   UNL     1      -9.306   6.546  67.932  1.00  0.00    -0.111 C  
HETATM   27  O   UNL     1      -9.063   7.144  66.657  1.00  0.00    -0.138 OA 
HETATM   28  C   UNL     1      -8.066   6.446  65.895  1.00  0.00    -0.124 C  
HETATM   29  C   UNL     1      -8.574   5.042  65.539  1.00  0.00    -0.139 C  
HETATM   30  H2  UNL     1     -10.685   4.866  69.611  1.00  0.00     0.000 HD 
HETATM   31  C   UNL     1      -8.870   4.283  66.833  1.00  0.00    -0.116 C  
HETATM   32  O   UNL     1      -7.619   4.256  64.811  1.00  0.00    -0.075 OA 
HETATM   33  H1  UNL     1     -10.381   3.388  68.887  1.00  0.00     0.000 HD 
HETATM   34  H   UNL     1      -7.934   3.387  64.591  1.00  0.00     0.000 HD 
HETATM   35  H   UNL     1      -9.646   2.540  67.314  1.00  0.00     0.000 HD 
HETATM   36  N   UNL     1     -10.049   4.344  69.009  1.00  0.00    -0.028 NA 
HETATM   37  O   UNL     1      -9.462   3.011  66.510  1.00  0.00    -0.122 OA 
HETATM   38  C   UNL     1      -9.814   5.082  67.746  1.00  0.00    -0.154 C  
BRANCH  28  39
HETATM   39  C   UNL     1      -7.729   7.315  64.671  1.00  0.00    -0.116 C  
HETATM   40  H2  UNL     1      -8.744   8.999  65.293  1.00  0.00     0.000 HD 
HETATM   41  N   UNL     1      -8.668   8.424  64.455  1.00  0.00    -0.404 NA 
HETATM   42  H1  UNL     1      -8.444   9.000  63.643  1.00  0.00     0.000 HD 
ENDBRANCH  28  39
ENDBRANCH  25  26
ENDBRANCH  24  25
ENDBRANCH  10  11
ENDBRANCH   1  10
BRANCH   5  43
HETATM   43  C   UNL     1      -8.841  10.921  66.782  1.00  0.00    -0.145 C  
HETATM   44  O   UNL     1      -8.473  12.170  66.186  1.00  0.00    -0.394 OA 
HETATM   45  H   UNL     1      -7.533  12.196  66.058  1.00  0.00     0.000 HD 
ENDBRANCH   5  43
TORSDOF 6
ENDMDL
MODEL      258
REMARK 921   NORMALIZED FREE ENERGY PREDICTED BY IDOCK:   -3.62 KCAL/MOL
REMARK 922        TOTAL FREE ENERGY PREDICTED BY IDOCK:   -6.53 KCAL/MOL
REMARK 923 INTER-LIGAND FREE ENERGY PREDICTED BY IDOCK:   -5.01 KCAL/MOL
REMARK 924 INTRA-LIGAND FREE ENERGY PREDICTED BY IDOCK:   -1.52 KCAL/MOL
REMARK 927      BINDING AFFINITY PREDICTED BY RF-SCORE:    0.00 PKD
ROOT
HETATM    1  C   UNL     1      -9.363   4.935  67.429  1.00  0.00    -0.132 C  
HETATM    2  O   UNL     1     -11.487   4.260  64.962  1.00  0.00    -1.020 OA 
HETATM    3  O   UNL     1      -9.292   3.548  67.067  1.00  0.00    -0.179 OA 
HETATM    4  H   UNL     1     -11.704   6.630  65.805  1.00  0.00     0.000 HD 
HETATM    5  C   UNL     1      -9.267   3.446  65.631  1.00  0.00    -0.154 C  
HETATM    6  H   UNL     1     -12.006   4.990  64.646  1.00  0.00     0.000 HD 
HETATM    7  C   UNL     1     -10.100   4.615  65.126  1.00  0.00    -0.054 C  
HETATM    8  O   UNL     1     -11.311   6.177  66.542  1.00  0.00    -0.054 OA 
HETATM    9  C   UNL     1     -10.003   5.672  66.229  1.00  0.00    -0.115 C  
ENDROOT
BRANCH   1  10
HETATM   10  O   UNL     1      -8.052   5.458  67.660  1.00  0.00    -0.100 OA 
BRANCH  10  11
HETATM   11  C   UNL     1      -7.901   6.899  67.783  1.00  0.00    -0.113 C  
HETATM   12  O   UNL     1      -7.214   7.158  65.470  1.00  0.00    -0.066 OA 
HETATM   13  H2  UNL     1      -6.931  10.398  70.697  1.00  0.00     0.000 HD 
HETATM   14  H   UNL     1      -6.557   7.502  64.875  1.00  0.00     0.000 HD 
HETATM   15  C   UNL     1      -6.839   7.455  66.822  1.00  0.00    -0.066 C  
HETATM   16  H1  UNL     1      -7.851   9.106  71.292  1.00  0.00     0.000 HD 
HETATM   17  C   UNL     1      -6.333   9.386  68.334  1.00  0.00    -0.053 C  
HETATM   18  N   UNL     1      -5.641   9.422  65.965  1.00  0.00    -0.044 NA 
HETATM   19  N   UNL     1      -7.111   9.396  70.652  1.00  0.00    -0.113 NA 
HETATM   20  H1  UNL     1      -5.535  10.434  66.024  1.00  0.00     0.000 HD 
HETATM   21  H2  UNL     1      -5.827   9.109  65.012  1.00  0.00     0.000 HD 
HETATM   22  C   UNL     1      -7.446   8.950  69.296  1.00  0.00    -0.075 C  
HETATM   23  C   UNL     1      -6.680   8.977  66.909  1.00  0.00    -0.072 C  
HETATM   24  C   UNL     1      -7.706   7.405  69.245  1.00  0.00    -0.107 C  
BRANCH  24  25
HETATM   25  O   UNL     1      -8.755   6.947  70.140  1.00  0.00    -0.139 OA 
BRANCH  25  26
HETATM   26  C   UNL     1      -8.397   5.926  71.079  1.00  0.00    -0.123 C  
HETATM   27  O   UNL     1      -7.749   6.483  72.225  1.00  0.00    -0.096 OA 
HETATM   28  C   UNL     1      -8.612   7.335  72.993  1.00  0.00    -0.124 C  
HETATM   29  C   UNL     1      -9.756   6.509  73.596  1.00  0.00    -0.192 C  
HETATM   30  H2  UNL     1      -9.788   3.937  69.795  1.00  0.00     0.000 HD 
HETATM   31  C   UNL     1     -10.543   5.854  72.460  1.00  0.00    -0.218 C  
HETATM   32  O   UNL     1     -10.694   7.293  74.348  1.00  0.00    -0.402 OA 
HETATM   33  H1  UNL     1     -11.195   3.909  70.701  1.00  0.00     0.000 HD 
HETATM   34  H   UNL     1     -11.402   6.781  74.721  1.00  0.00     0.000 HD 
HETATM   35  H   UNL     1     -12.029   4.573  72.312  1.00  0.00     0.000 HD 
HETATM   36  N   UNL     1     -10.398   4.474  70.410  1.00  0.00    -0.075 NA 
HETATM   37  O   UNL     1     -11.540   4.980  73.018  1.00  0.00    -0.312 OA 
HETATM   38  C   UNL     1      -9.617   5.061  71.524  1.00  0.00    -0.158 C  
BRANCH  28  39
HETATM   39  C   UNL     1      -7.741   8.051  74.041  1.00  0.00    -0.197 C  
HETATM   40  H2  UNL     1      -6.942   9.455  72.759  1.00  0.00     0.000 HD 
HETATM   41  N   UNL     1      -6.614   8.796  73.465  1.00  0.00    -0.315 NA 
HETATM   42  H1  UNL     1      -6.037   9.270  74.160  1.00  0.00     0.000 HD 
ENDBRANCH  28  39
ENDBRANCH  25  26
ENDBRANCH  24  25
ENDBRANCH  10  11
ENDBRANCH   1  10
BRANCH   5  43
HETATM   43  C   UNL     1      -7.838   3.468  65.073  1.00  0.00    -0.086 C  
HETATM   44  O   UNL     1      -6.949   2.848  66.009  1.00  0.00    -0.054 OA 
HETATM   45  H   UNL     1      -6.065   2.862  65.664  1.00  0.00     0.000 HD 
ENDBRANCH   5  43
TORSDOF 6
ENDMDL
MODEL      259
REMARK 921   NORMALIZED FREE ENERGY PREDICTED BY IDOCK:   -3.61 KCAL/MOL
REMARK 922        TOTAL FREE ENERGY PREDICTED BY IDOCK:   -6.52 KCAL/MOL
REMARK 923 INTER-LIGAND FREE ENERGY PREDICTED BY IDOCK:   -5.97 KCAL/MOL
REMARK 924 INTRA-LIGAND FREE ENERGY PREDICTED BY IDOCK:   -0.56 KCAL/MOL
REMARK 927      BINDING AFFINITY PREDICTED BY RF-SCORE:    0.00 PKD
ROOT
HETATM    1  C   UNL     1     -11.113  10.239  69.596  1.00  0.00    -0.274 C  
HETATM    2  O   UNL     1     -13.131   8.662  71.716  1.00  0.00    -0.330 OA 
HETATM    3  O   UNL     1     -12.425  10.820  69.572  1.00  0.00    -0.295 OA 
HETATM    4  H   UNL     1     -10.865   7.564  71.539  1.00  0.00     0.000 HD 
HETATM    5  C   UNL     1     -12.887  10.977  70.926  1.00  0.00    -0.301 C  
HETATM    6  H   UNL     1     -12.748   7.941  72.200  1.00  0.00     0.000 HD 
HETATM    7  C   UNL     1     -12.273   9.820  71.701  1.00  0.00    -0.404 C  
HETATM    8  O   UNL     1     -10.935   8.041  70.721  1.00  0.00    -0.239 OA 
HETATM    9  C   UNL     1     -11.000   9.462  70.929  1.00  0.00    -0.320 C  
ENDROOT
BRANCH   1  10
HETATM   10  O   UNL     1     -10.114  11.261  69.559  1.00  0.00     0.003 OA 
BRANCH  10  11
HETATM   11  C   UNL     1      -9.802  11.868  68.275  1.00  0.00    -0.199 C  
HETATM   12  O   UNL     1     -10.162  14.121  69.104  1.00  0.00    -0.391 OA 
HETATM   13  H2  UNL     1      -9.847  11.267  63.659  1.00  0.00     0.000 HD 
HETATM   14  H   UNL     1     -10.617  14.946  68.977  1.00  0.00     0.000 HD 
HETATM   15  C   UNL     1     -10.539  13.201  68.071  1.00  0.00    -0.236 C  
HETATM   16  H1  UNL     1      -9.450   9.934  64.626  1.00  0.00     0.000 HD 
HETATM   17  C   UNL     1     -10.527  12.943  65.579  1.00  0.00    -0.305 C  
HETATM   18  N   UNL     1     -10.959  15.139  66.620  1.00  0.00    -0.320 NA 
HETATM   19  N   UNL     1      -9.997  10.791  64.548  1.00  0.00    -0.307 NA 
HETATM   20  H1  UNL     1     -10.737  15.590  65.732  1.00  0.00     0.000 HD 
HETATM   21  H2  UNL     1     -10.799  15.758  67.415  1.00  0.00     0.000 HD 
HETATM   22  C   UNL     1      -9.704  11.654  65.697  1.00  0.00    -0.236 C  
HETATM   23  C   UNL     1     -10.206  13.879  66.736  1.00  0.00    -0.268 C  
HETATM   24  C   UNL     1      -9.952  10.911  67.054  1.00  0.00    -0.192 C  
BRANCH  24  25
HETATM   25  O   UNL     1      -9.191   9.683  67.210  1.00  0.00    -0.133 OA 
BRANCH  25  26
HETATM   26  C   UNL     1      -9.349   8.695  66.183  1.00  0.00    -0.226 C  
HETATM   27  O   UNL     1      -8.106   8.424  65.532  1.00  0.00    -0.113 OA 
HETATM   28  C   UNL     1      -7.138   7.824  66.406  1.00  0.00    -0.071 C  
HETATM   29  C   UNL     1      -7.623   6.436  66.843  1.00  0.00    -0.095 C  
HETATM   30  H2  UNL     1     -11.922   8.044  66.890  1.00  0.00     0.000 HD 
HETATM   31  C   UNL     1      -8.961   6.586  67.567  1.00  0.00    -0.110 C  
HETATM   32  O   UNL     1      -6.732   5.779  67.756  1.00  0.00    -0.054 OA 
HETATM   33  H1  UNL     1     -11.652   6.669  67.805  1.00  0.00     0.000 HD 
HETATM   34  H   UNL     1      -7.032   4.919  68.027  1.00  0.00     0.000 HD 
HETATM   35  H   UNL     1     -10.315   5.373  68.323  1.00  0.00     0.000 HD 
HETATM   36  N   UNL     1     -11.244   7.536  67.458  1.00  0.00     0.129 NA 
HETATM   37  O   UNL     1      -9.483   5.280  67.872  1.00  0.00    -0.116 OA 
HETATM   38  C   UNL     1      -9.973   7.368  66.715  1.00  0.00    -0.230 C  
BRANCH  28  39
HETATM   39  C   UNL     1      -5.791   7.808  65.662  1.00  0.00    -0.038 C  
HETATM   40  H2  UNL     1      -5.131   9.641  66.338  1.00  0.00     0.000 HD 
HETATM   41  N   UNL     1      -5.215   9.143  65.452  1.00  0.00    -0.036 NA 
HETATM   42  H1  UNL     1      -4.322   9.132  64.959  1.00  0.00     0.000 HD 
ENDBRANCH  28  39
ENDBRANCH  25  26
ENDBRANCH  24  25
ENDBRANCH  10  11
ENDBRANCH   1  10
BRANCH   5  43
HETATM   43  C   UNL     1     -12.501  12.339  71.517  1.00  0.00    -0.027 C  
HETATM   44  O   UNL     1     -12.702  13.360  70.533  1.00  0.00    -0.231 OA 
HETATM   45  H   UNL     1     -12.462  14.204  70.899  1.00  0.00     0.000 HD 
ENDBRANCH   5  43
TORSDOF 6
ENDMDL
MODEL      260
REMARK 921   NORMALIZED FREE ENERGY PREDICTED BY IDOCK:   -3.61 KCAL/MOL
REMARK 922        TOTAL FREE ENERGY PREDICTED BY IDOCK:   -6.52 KCAL/MOL
REMARK 923 INTER-LIGAND FREE ENERGY PREDICTED BY IDOCK:   -6.74 KCAL/MOL
REMARK 924 INTRA-LIGAND FREE ENERGY PREDICTED BY IDOCK:    0.22 KCAL/MOL
REMARK 927      BINDING AFFINITY PREDICTED BY RF-SCORE:    0.00 PKD
ROOT
HETATM    1  C   UNL     1     -10.848  14.370  67.714  1.00  0.00    -0.258 C  
HETATM    2  O   UNL     1     -11.012  16.556  70.213  1.00  0.00    -0.342 OA 
HETATM    3  O   UNL     1     -10.068  15.537  67.416  1.00  0.00    -0.241 OA 
HETATM    4  H   UNL     1     -12.531  14.570  70.564  1.00  0.00     0.000 HD 
HETATM    5  C   UNL     1      -9.300  15.889  68.581  1.00  0.00    -0.212 C  
HETATM    6  H   UNL     1     -11.546  16.302  70.956  1.00  0.00     0.000 HD 
HETATM    7  C   UNL     1     -10.157  15.483  69.771  1.00  0.00    -0.285 C  
HETATM    8  O   UNL     1     -12.411  14.583  69.622  1.00  0.00    -0.306 OA 
HETATM    9  C   UNL     1     -11.043  14.349  69.248  1.00  0.00    -0.271 C  
ENDROOT
BRANCH   1  10
HETATM   10  O   UNL     1     -10.152  13.188  67.310  1.00  0.00    -0.229 OA 
BRANCH  10  11
HETATM   11  C   UNL     1     -10.076  12.890  65.889  1.00  0.00    -0.289 C  
HETATM   12  O   UNL     1     -11.882  14.416  65.337  1.00  0.00    -0.353 OA 
HETATM   13  H2  UNL     1      -8.976   9.660  62.721  1.00  0.00     0.000 HD 
HETATM   14  H   UNL     1     -12.721  14.522  64.903  1.00  0.00     0.000 HD 
HETATM   15  C   UNL     1     -11.433  13.062  65.187  1.00  0.00    -0.306 C  
HETATM   16  H1  UNL     1      -8.006   9.772  64.106  1.00  0.00     0.000 HD 
HETATM   17  C   UNL     1     -10.852  11.376  63.429  1.00  0.00    -0.375 C  
HETATM   18  N   UNL     1     -12.714  12.961  63.092  1.00  0.00    -0.599 NA 
HETATM   19  N   UNL     1      -8.944   9.875  63.717  1.00  0.00    -0.235 NA 
HETATM   20  H1  UNL     1     -12.675  12.775  62.091  1.00  0.00     0.000 HD 
HETATM   21  H2  UNL     1     -13.105  13.881  63.298  1.00  0.00     0.000 HD 
HETATM   22  C   UNL     1      -9.443  11.222  64.013  1.00  0.00    -0.180 C  
HETATM   23  C   UNL     1     -11.375  12.783  63.681  1.00  0.00    -0.453 C  
HETATM   24  C   UNL     1      -9.398  11.528  65.550  1.00  0.00    -0.185 C  
BRANCH  24  25
HETATM   25  O   UNL     1      -8.079  11.396  66.146  1.00  0.00    -0.123 OA 
BRANCH  25  26
HETATM   26  C   UNL     1      -8.011  10.724  67.410  1.00  0.00    -0.112 C  
HETATM   27  O   UNL     1      -9.310  10.325  67.853  1.00  0.00    -0.137 OA 
HETATM   28  C   UNL     1      -9.912   9.342  67.000  1.00  0.00    -0.224 C  
HETATM   29  C   UNL     1      -9.101   8.040  67.054  1.00  0.00    -0.144 C  
HETATM   30  H2  UNL     1      -5.270  10.540  67.421  1.00  0.00     0.000 HD 
HETATM   31  C   UNL     1      -7.673   8.329  66.592  1.00  0.00    -0.093 C  
HETATM   32  O   UNL     1      -9.612   7.011  66.193  1.00  0.00    -0.379 OA 
HETATM   33  H1  UNL     1      -5.063   8.973  66.872  1.00  0.00     0.000 HD 
HETATM   34  H   UNL     1      -9.110   6.205  66.227  1.00  0.00     0.000 HD 
HETATM   35  H   UNL     1      -5.986   7.324  66.469  1.00  0.00     0.000 HD 
HETATM   36  N   UNL     1      -5.688   9.778  66.888  1.00  0.00    -0.050 NA 
HETATM   37  O   UNL     1      -6.874   7.144  66.756  1.00  0.00    -0.064 OA 
HETATM   38  C   UNL     1      -7.054   9.491  67.385  1.00  0.00    -0.086 C  
BRANCH  28  39
HETATM   39  C   UNL     1     -11.377   9.182  67.442  1.00  0.00     0.973 C  
HETATM   40  H2  UNL     1     -11.830  11.193  67.479  1.00  0.00     0.000 HD 
HETATM   41  N   UNL     1     -11.936  10.379  68.083  1.00  0.00    -0.661 NA 
HETATM   42  H1  UNL     1     -12.908  10.273  68.376  1.00  0.00     0.000 HD 
ENDBRANCH  28  39
ENDBRANCH  25  26
ENDBRANCH  24  25
ENDBRANCH  10  11
ENDBRANCH   1  10
BRANCH   5  43
HETATM   43  C   UNL     1      -7.925  15.207  68.597  1.00  0.00    -0.151 C  
HETATM   44  O   UNL     1      -7.569  14.883  69.946  1.00  0.00    -0.372 OA 
HETATM   45  H   UNL     1      -6.718  14.461  69.956  1.00  0.00     0.000 HD 
ENDBRANCH   5  43
TORSDOF 6
ENDMDL
MODEL      261
REMARK 921   NORMALIZED FREE ENERGY PREDICTED BY IDOCK:   -3.59 KCAL/MOL
REMARK 922        TOTAL FREE ENERGY PREDICTED BY IDOCK:   -6.49 KCAL/MOL
REMARK 923 INTER-LIGAND FREE ENERGY PREDICTED BY IDOCK:   -7.05 KCAL/MOL
REMARK 924 INTRA-LIGAND FREE ENERGY PREDICTED BY IDOCK:    0.56 KCAL/MOL
REMARK 927      BINDING AFFINITY PREDICTED BY RF-SCORE:    0.00 PKD
ROOT
HETATM    1  C   UNL     1      -9.481   8.843  67.501  1.00  0.00    -0.141 C  
HETATM    2  O   UNL     1      -7.680   9.660  70.173  1.00  0.00    -0.135 OA 
HETATM    3  O   UNL     1     -10.325   8.992  68.652  1.00  0.00    -0.201 OA 
HETATM    4  H   UNL     1      -6.247   9.166  68.154  1.00  0.00     0.000 HD 
HETATM    5  C   UNL     1      -9.938  10.186  69.357  1.00  0.00    -0.228 C  
HETATM    6  H   UNL     1      -6.744   9.744  70.037  1.00  0.00     0.000 HD 
HETATM    7  C   UNL     1      -8.438  10.319  69.138  1.00  0.00    -0.162 C  
HETATM    8  O   UNL     1      -7.053   8.703  67.962  1.00  0.00    -0.079 OA 
HETATM    9  C   UNL     1      -8.168   9.597  67.815  1.00  0.00    -0.114 C  
ENDROOT
BRANCH   1  10
HETATM   10  O   UNL     1     -10.098   9.427  66.351  1.00  0.00    -0.263 OA 
BRANCH  10  11
HETATM   11  C   UNL     1      -9.453   9.244  65.060  1.00  0.00    -0.049 C  
HETATM   12  O   UNL     1      -8.732   6.988  65.591  1.00  0.00    -0.243 OA 
HETATM   13  H2  UNL     1      -7.303  11.390  61.532  1.00  0.00     0.000 HD 
HETATM   14  H   UNL     1      -8.000   6.384  65.638  1.00  0.00     0.000 HD 
HETATM   15  C   UNL     1      -8.269   8.267  65.137  1.00  0.00    -0.154 C  
HETATM   16  H1  UNL     1      -8.613  12.182  62.259  1.00  0.00     0.000 HD 
HETATM   17  C   UNL     1      -7.112   9.356  63.202  1.00  0.00    -0.097 C  
HETATM   18  N   UNL     1      -6.464   7.095  63.951  1.00  0.00    -0.043 NA 
HETATM   19  N   UNL     1      -7.823  11.552  62.394  1.00  0.00     0.010 NA 
HETATM   20  H1  UNL     1      -6.011   6.940  63.050  1.00  0.00     0.000 HD 
HETATM   21  H2  UNL     1      -6.754   6.222  64.391  1.00  0.00     0.000 HD 
HETATM   22  C   UNL     1      -8.301  10.304  62.998  1.00  0.00    -0.170 C  
HETATM   23  C   UNL     1      -7.588   8.033  63.784  1.00  0.00    -0.129 C  
HETATM   24  C   UNL     1      -9.084  10.571  64.329  1.00  0.00    -0.228 C  
BRANCH  24  25
HETATM   25  O   UNL     1     -10.222  11.463  64.183  1.00  0.00    -0.267 OA 
BRANCH  25  26
HETATM   26  C   UNL     1     -10.888  11.857  65.389  1.00  0.00    -0.294 C  
HETATM   27  O   UNL     1     -10.008  12.582  66.251  1.00  0.00    -0.241 OA 
HETATM   28  C   UNL     1      -9.588  13.836  65.693  1.00  0.00    -0.012 C  
HETATM   29  C   UNL     1     -10.797  14.770  65.549  1.00  0.00    -0.351 C  
HETATM   30  H2  UNL     1     -13.388  11.124  64.518  1.00  0.00     0.000 HD 
HETATM   31  C   UNL     1     -11.827  14.107  64.633  1.00  0.00    -0.431 C  
HETATM   32  O   UNL     1     -10.474  16.037  64.956  1.00  0.00    -0.558 OA 
HETATM   33  H1  UNL     1     -13.986  12.604  64.016  1.00  0.00     0.000 HD 
HETATM   34  H   UNL     1     -11.223  16.615  64.868  1.00  0.00     0.000 HD 
HETATM   35  H   UNL     1     -13.654  14.508  64.022  1.00  0.00     0.000 HD 
HETATM   36  N   UNL     1     -13.143  12.058  64.191  1.00  0.00    -0.685 NA 
HETATM   37  O   UNL     1     -13.014  14.920  64.591  1.00  0.00    -0.325 OA 
HETATM   38  C   UNL     1     -12.178  12.692  65.120  1.00  0.00    -0.481 C  
BRANCH  28  39
HETATM   39  C   UNL     1      -8.474  14.393  66.595  1.00  0.00     0.071 C  
HETATM   40  H2  UNL     1      -9.260  13.720  68.379  1.00  0.00     0.000 HD 
HETATM   41  N   UNL     1      -8.884  14.586  67.992  1.00  0.00    -0.168 NA 
HETATM   42  H1  UNL     1      -8.145  14.955  68.591  1.00  0.00     0.000 HD 
ENDBRANCH  28  39
ENDBRANCH  25  26
ENDBRANCH  24  25
ENDBRANCH  10  11
ENDBRANCH   1  10
BRANCH   5  43
HETATM   43  C   UNL     1     -10.705  11.422  68.869  1.00  0.00    -0.210 C  
HETATM   44  O   UNL     1     -11.967  11.018  68.326  1.00  0.00    -0.668 OA 
HETATM   45  H   UNL     1     -12.442  11.783  68.024  1.00  0.00     0.000 HD 
ENDBRANCH   5  43
TORSDOF 6
ENDMDL
MODEL      262
REMARK 921   NORMALIZED FREE ENERGY PREDICTED BY IDOCK:   -3.57 KCAL/MOL
REMARK 922        TOTAL FREE ENERGY PREDICTED BY IDOCK:   -6.46 KCAL/MOL
REMARK 923 INTER-LIGAND FREE ENERGY PREDICTED BY IDOCK:   -5.51 KCAL/MOL
REMARK 924 INTRA-LIGAND FREE ENERGY PREDICTED BY IDOCK:   -0.95 KCAL/MOL
REMARK 927      BINDING AFFINITY PREDICTED BY RF-SCORE:    0.00 PKD
ROOT
HETATM    1  C   UNL     1     -12.058  14.197  66.126  1.00  0.00    -0.435 C  
HETATM    2  O   UNL     1     -12.070  16.055  63.370  1.00  0.00    -0.725 OA 
HETATM    3  O   UNL     1     -13.043  13.718  65.199  1.00  0.00    -0.762 OA 
HETATM    4  H   UNL     1     -10.517  16.963  65.142  1.00  0.00     0.000 HD 
HETATM    5  C   UNL     1     -12.460  13.684  63.883  1.00  0.00    -0.213 C  
HETATM    6  H   UNL     1     -11.450  16.774  63.348  1.00  0.00     0.000 HD 
HETATM    7  C   UNL     1     -11.467  14.836  63.848  1.00  0.00     0.426 C  
HETATM    8  O   UNL     1     -11.132  16.441  65.644  1.00  0.00    -0.116 OA 
HETATM    9  C   UNL     1     -11.057  15.046  65.308  1.00  0.00    -0.386 C  
ENDROOT
BRANCH   1  10
HETATM   10  O   UNL     1     -11.366  13.100  66.728  1.00  0.00    -0.293 OA 
BRANCH  10  11
HETATM   11  C   UNL     1     -10.694  13.329  67.998  1.00  0.00    -0.240 C  
HETATM   12  O   UNL     1     -12.663  14.320  69.014  1.00  0.00    -0.449 OA 
HETATM   13  H2  UNL     1      -6.598  14.151  70.053  1.00  0.00     0.000 HD 
HETATM   14  H   UNL     1     -13.020  15.069  69.478  1.00  0.00     0.000 HD 
HETATM   15  C   UNL     1     -11.271  14.539  68.749  1.00  0.00    -0.261 C  
HETATM   16  H1  UNL     1      -6.623  13.079  68.741  1.00  0.00     0.000 HD 
HETATM   17  C   UNL     1      -9.101  14.975  69.922  1.00  0.00     0.231 C  
HETATM   18  N   UNL     1     -11.205  15.964  70.751  1.00  0.00    -0.365 NA 
HETATM   19  N   UNL     1      -7.034  13.912  69.163  1.00  0.00    -0.110 NA 
HETATM   20  H1  UNL     1     -10.759  16.127  71.653  1.00  0.00     0.000 HD 
HETATM   21  H2  UNL     1     -12.218  15.879  70.832  1.00  0.00     0.000 HD 
HETATM   22  C   UNL     1      -8.483  13.723  69.286  1.00  0.00     0.549 C  
HETATM   23  C   UNL     1     -10.600  14.786  70.106  1.00  0.00     0.046 C  
HETATM   24  C   UNL     1      -9.138  13.370  67.907  1.00  0.00    -0.208 C  
BRANCH  24  25
HETATM   25  O   UNL     1      -8.584  12.188  67.269  1.00  0.00    -0.165 OA 
BRANCH  25  26
HETATM   26  C   UNL     1      -8.124  11.145  68.138  1.00  0.00    -0.128 C  
HETATM   27  O   UNL     1      -9.208  10.321  68.574  1.00  0.00    -0.135 OA 
HETATM   28  C   UNL     1      -9.822   9.594  67.500  1.00  0.00    -0.169 C  
HETATM   29  C   UNL     1      -8.822   8.588  66.915  1.00  0.00    -0.137 C  
HETATM   30  H2  UNL     1      -5.459  11.619  67.673  1.00  0.00     0.000 HD 
HETATM   31  C   UNL     1      -7.600   9.351  66.400  1.00  0.00    -0.097 C  
HETATM   32  O   UNL     1      -9.341   7.845  65.802  1.00  0.00    -0.397 OA 
HETATM   33  H1  UNL     1      -5.132  10.446  66.525  1.00  0.00     0.000 HD 
HETATM   34  H   UNL     1      -8.722   7.222  65.441  1.00  0.00     0.000 HD 
HETATM   35  H   UNL     1      -5.845   8.882  65.643  1.00  0.00     0.000 HD 
HETATM   36  N   UNL     1      -5.859  11.022  66.950  1.00  0.00    -0.070 NA 
HETATM   37  O   UNL     1      -6.605   8.408  65.962  1.00  0.00    -0.052 OA 
HETATM   38  C   UNL     1      -7.013  10.264  67.488  1.00  0.00    -0.085 C  
BRANCH  28  39
HETATM   39  C   UNL     1     -11.104   8.948  68.053  1.00  0.00     0.268 C  
HETATM   40  H2  UNL     1     -10.364   7.026  68.166  1.00  0.00     0.000 HD 
HETATM   41  N   UNL     1     -11.191   7.502  67.807  1.00  0.00    -0.390 NA 
HETATM   42  H1  UNL     1     -12.041   7.073  68.174  1.00  0.00     0.000 HD 
ENDBRANCH  28  39
ENDBRANCH  25  26
ENDBRANCH  24  25
ENDBRANCH  10  11
ENDBRANCH   1  10
BRANCH   5  43
HETATM   43  C   UNL     1     -11.794  12.336  63.578  1.00  0.00    -0.514 C  
HETATM   44  O   UNL     1     -12.758  11.285  63.708  1.00  0.00    -0.134 OA 
HETATM   45  H   UNL     1     -12.345  10.451  63.520  1.00  0.00     0.000 HD 
ENDBRANCH   5  43
TORSDOF 6
ENDMDL
MODEL      263
REMARK 921   NORMALIZED FREE ENERGY PREDICTED BY IDOCK:   -3.54 KCAL/MOL
REMARK 922        TOTAL FREE ENERGY PREDICTED BY IDOCK:   -6.42 KCAL/MOL
REMARK 923 INTER-LIGAND FREE ENERGY PREDICTED BY IDOCK:   -5.21 KCAL/MOL
REMARK 924 INTRA-LIGAND FREE ENERGY PREDICTED BY IDOCK:   -1.21 KCAL/MOL
REMARK 927      BINDING AFFINITY PREDICTED BY RF-SCORE:    0.00 PKD
ROOT
HETATM    1  C   UNL     1     -10.578   8.819  69.436  1.00  0.00    -0.209 C  
HETATM    2  O   UNL     1     -12.073  11.731  68.853  1.00  0.00    -0.300 OA 
HETATM    3  O   UNL     1     -10.644   9.079  68.026  1.00  0.00    -0.229 OA 
HETATM    4  H   UNL     1     -12.109  11.097  71.296  1.00  0.00     0.000 HD 
HETATM    5  C   UNL     1     -10.266  10.447  67.790  1.00  0.00    -0.193 C  
HETATM    6  H   UNL     1     -12.366  12.211  69.618  1.00  0.00     0.000 HD 
HETATM    7  C   UNL     1     -10.736  11.217  69.016  1.00  0.00    -0.225 C  
HETATM    8  O   UNL     1     -12.000  10.260  70.860  1.00  0.00    -0.315 OA 
HETATM    9  C   UNL     1     -10.756  10.182  70.145  1.00  0.00    -0.300 C  
ENDROOT
BRANCH   1  10
HETATM   10  O   UNL     1      -9.305   8.269  69.782  1.00  0.00    -0.157 OA 
BRANCH  10  11
HETATM   11  C   UNL     1      -9.270   7.163  70.726  1.00  0.00    -0.157 C  
HETATM   12  O   UNL     1      -9.268   8.636  72.656  1.00  0.00    -0.299 OA 
HETATM   13  H2  UNL     1      -7.895   2.767  71.404  1.00  0.00     0.000 HD 
HETATM   14  H   UNL     1      -8.836   8.872  73.468  1.00  0.00     0.000 HD 
HETATM   15  C   UNL     1      -8.571   7.545  72.040  1.00  0.00    -0.107 C  
HETATM   16  H1  UNL     1      -8.485   3.183  69.871  1.00  0.00     0.000 HD 
HETATM   17  C   UNL     1      -7.867   5.180  72.471  1.00  0.00    -0.101 C  
HETATM   18  N   UNL     1      -7.853   6.852  74.286  1.00  0.00    -0.108 NA 
HETATM   19  N   UNL     1      -7.980   3.499  70.699  1.00  0.00    -0.053 NA 
HETATM   20  H1  UNL     1      -7.836   6.095  74.968  1.00  0.00     0.000 HD 
HETATM   21  H2  UNL     1      -8.260   7.706  74.669  1.00  0.00     0.000 HD 
HETATM   22  C   UNL     1      -8.626   4.706  71.226  1.00  0.00    -0.113 C  
HETATM   23  C   UNL     1      -8.546   6.405  73.066  1.00  0.00    -0.119 C  
HETATM   24  C   UNL     1      -8.736   5.824  70.133  1.00  0.00    -0.139 C  
BRANCH  24  25
HETATM   25  O   UNL     1      -9.450   5.419  68.934  1.00  0.00    -0.122 OA 
BRANCH  25  26
HETATM   26  C   UNL     1      -8.846   5.762  67.681  1.00  0.00    -0.105 C  
HETATM   27  O   UNL     1      -7.745   4.900  67.385  1.00  0.00    -0.089 OA 
HETATM   28  C   UNL     1      -8.143   3.536  67.186  1.00  0.00    -0.087 C  
HETATM   29  C   UNL     1      -9.025   3.430  65.935  1.00  0.00    -0.145 C  
HETATM   30  H2  UNL     1     -10.820   7.529  66.954  1.00  0.00     0.000 HD 
HETATM   31  C   UNL     1     -10.259   4.313  66.125  1.00  0.00    -0.132 C  
HETATM   32  O   UNL     1      -9.505   2.100  65.683  1.00  0.00    -0.340 OA 
HETATM   33  H1  UNL     1     -11.743   6.564  65.946  1.00  0.00     0.000 HD 
HETATM   34  H   UNL     1     -10.051   2.035  64.908  1.00  0.00     0.000 HD 
HETATM   35  H   UNL     1     -11.796   4.865  65.028  1.00  0.00     0.000 HD 
HETATM   36  N   UNL     1     -11.078   6.571  66.719  1.00  0.00    -0.293 NA 
HETATM   37  O   UNL     1     -11.030   4.316  64.909  1.00  0.00    -0.253 OA 
HETATM   38  C   UNL     1      -9.865   5.750  66.498  1.00  0.00    -0.161 C  
BRANCH  28  39
HETATM   39  C   UNL     1      -6.862   2.686  67.119  1.00  0.00    -0.044 C  
HETATM   40  H2  UNL     1      -7.011   1.890  69.015  1.00  0.00     0.000 HD 
HETATM   41  N   UNL     1      -6.307   2.346  68.436  1.00  0.00    -0.028 NA 
HETATM   42  H1  UNL     1      -5.458   1.783  68.391  1.00  0.00     0.000 HD 
ENDBRANCH  28  39
ENDBRANCH  25  26
ENDBRANCH  24  25
ENDBRANCH  10  11
ENDBRANCH   1  10
BRANCH   5  43
HETATM   43  C   UNL     1      -8.757  10.599  67.555  1.00  0.00    -0.125 C  
HETATM   44  O   UNL     1      -8.515  10.877  66.171  1.00  0.00    -0.163 OA 
HETATM   45  H   UNL     1      -7.582  10.971  66.025  1.00  0.00     0.000 HD 
ENDBRANCH   5  43
TORSDOF 6
ENDMDL
MODEL      264
REMARK 921   NORMALIZED FREE ENERGY PREDICTED BY IDOCK:   -3.50 KCAL/MOL
REMARK 922        TOTAL FREE ENERGY PREDICTED BY IDOCK:   -6.37 KCAL/MOL
REMARK 923 INTER-LIGAND FREE ENERGY PREDICTED BY IDOCK:   -6.29 KCAL/MOL
REMARK 924 INTRA-LIGAND FREE ENERGY PREDICTED BY IDOCK:   -0.08 KCAL/MOL
REMARK 927      BINDING AFFINITY PREDICTED BY RF-SCORE:    0.00 PKD
ROOT
HETATM    1  C   UNL     1      -8.299   6.193  66.240  1.00  0.00    -0.124 C  
HETATM    2  O   UNL     1      -6.958   3.151  66.296  1.00  0.00    -0.051 OA 
HETATM    3  O   UNL     1      -8.166   5.676  64.909  1.00  0.00    -0.125 OA 
HETATM    4  H   UNL     1      -7.026   4.221  68.582  1.00  0.00     0.000 HD 
HETATM    5  C   UNL     1      -8.615   4.308  64.897  1.00  0.00    -0.126 C  
HETATM    6  H   UNL     1      -6.742   2.806  67.154  1.00  0.00     0.000 HD 
HETATM    7  C   UNL     1      -8.267   3.754  66.271  1.00  0.00    -0.101 C  
HETATM    8  O   UNL     1      -7.057   4.968  67.997  1.00  0.00    -0.060 OA 
HETATM    9  C   UNL     1      -8.249   4.976  67.194  1.00  0.00    -0.107 C  
ENDROOT
BRANCH   1  10
HETATM   10  O   UNL     1      -9.553   6.861  66.393  1.00  0.00    -0.166 OA 
BRANCH  10  11
HETATM   11  C   UNL     1      -9.587   8.304  66.212  1.00  0.00    -0.196 C  
HETATM   12  O   UNL     1      -8.890   8.164  63.891  1.00  0.00    -0.313 OA 
HETATM   13  H2  UNL     1      -9.126  12.426  68.327  1.00  0.00     0.000 HD 
HETATM   14  H   UNL     1      -8.269   8.457  63.235  1.00  0.00     0.000 HD 
HETATM   15  C   UNL     1      -8.583   8.779  65.150  1.00  0.00    -0.182 C  
HETATM   16  H1  UNL     1      -9.888  11.179  69.183  1.00  0.00     0.000 HD 
HETATM   17  C   UNL     1      -8.356  11.030  66.224  1.00  0.00    -0.166 C  
HETATM   18  N   UNL     1      -7.624  10.662  63.896  1.00  0.00    -0.355 NA 
HETATM   19  N   UNL     1      -9.178  11.421  68.493  1.00  0.00    -0.182 NA 
HETATM   20  H1  UNL     1      -7.648  11.669  63.742  1.00  0.00     0.000 HD 
HETATM   21  H2  UNL     1      -7.749  10.137  63.030  1.00  0.00     0.000 HD 
HETATM   22  C   UNL     1      -9.425  10.665  67.261  1.00  0.00    -0.158 C  
HETATM   23  C   UNL     1      -8.619  10.294  64.917  1.00  0.00    -0.182 C  
HETATM   24  C   UNL     1      -9.489   9.123  67.535  1.00  0.00    -0.139 C  
BRANCH  24  25
HETATM   25  O   UNL     1     -10.490   8.731  68.511  1.00  0.00    -0.206 OA 
BRANCH  25  26
HETATM   26  C   UNL     1     -10.214   9.055  69.880  1.00  0.00    -0.202 C  
HETATM   27  O   UNL     1     -11.341   8.778  70.714  1.00  0.00    -0.265 OA 
HETATM   28  C   UNL     1     -11.659   7.380  70.775  1.00  0.00    -0.290 C  
HETATM   29  C   UNL     1     -10.514   6.617  71.455  1.00  0.00    -0.215 C  
HETATM   30  H2  UNL     1      -7.532   9.488  69.473  1.00  0.00     0.000 HD 
HETATM   31  C   UNL     1      -9.232   6.828  70.649  1.00  0.00    -0.155 C  
HETATM   32  O   UNL     1     -10.731   5.199  71.520  1.00  0.00    -0.189 OA 
HETATM   33  H1  UNL     1      -6.903   8.018  69.969  1.00  0.00     0.000 HD 
HETATM   34  H   UNL     1     -10.022   4.727  71.942  1.00  0.00     0.000 HD 
HETATM   35  H   UNL     1      -7.334   6.350  70.843  1.00  0.00     0.000 HD 
HETATM   36  N   UNL     1      -7.729   8.497  69.609  1.00  0.00    -0.091 NA 
HETATM   37  O   UNL     1      -8.130   6.218  71.345  1.00  0.00    -0.114 OA 
HETATM   38  C   UNL     1      -8.950   8.323  70.429  1.00  0.00    -0.146 C  
BRANCH  28  39
HETATM   39  C   UNL     1     -13.012   7.245  71.494  1.00  0.00    -0.389 C  
HETATM   40  H2  UNL     1     -14.050   8.552  70.284  1.00  0.00     0.000 HD 
HETATM   41  N   UNL     1     -13.913   8.385  71.280  1.00  0.00    -0.604 NA 
HETATM   42  H1  UNL     1     -14.810   8.295  71.757  1.00  0.00     0.000 HD 
ENDBRANCH  28  39
ENDBRANCH  25  26
ENDBRANCH  24  25
ENDBRANCH  10  11
ENDBRANCH   1  10
BRANCH   5  43
HETATM   43  C   UNL     1     -10.113   4.192  64.588  1.00  0.00    -0.175 C  
HETATM   44  O   UNL     1     -10.858   4.251  65.809  1.00  0.00    -0.519 OA 
HETATM   45  H   UNL     1     -11.786   4.179  65.619  1.00  0.00     0.000 HD 
ENDBRANCH   5  43
TORSDOF 6
ENDMDL
MODEL      265
REMARK 921   NORMALIZED FREE ENERGY PREDICTED BY IDOCK:   -3.48 KCAL/MOL
REMARK 922        TOTAL FREE ENERGY PREDICTED BY IDOCK:   -6.35 KCAL/MOL
REMARK 923 INTER-LIGAND FREE ENERGY PREDICTED BY IDOCK:   -6.30 KCAL/MOL
REMARK 924 INTRA-LIGAND FREE ENERGY PREDICTED BY IDOCK:   -0.05 KCAL/MOL
REMARK 927      BINDING AFFINITY PREDICTED BY RF-SCORE:    0.00 PKD
ROOT
HETATM    1  C   UNL     1      -6.756   8.813  68.387  1.00  0.00    -0.064 C  
HETATM    2  O   UNL     1      -7.817   7.367  65.588  1.00  0.00    -0.098 OA 
HETATM    3  O   UNL     1      -6.040   9.323  67.253  1.00  0.00    -0.055 OA 
HETATM    4  H   UNL     1      -8.873   6.370  67.653  1.00  0.00     0.000 HD 
HETATM    5  C   UNL     1      -6.980   9.596  66.197  1.00  0.00    -0.093 C  
HETATM    6  H   UNL     1      -8.505   6.720  65.687  1.00  0.00     0.000 HD 
HETATM    7  C   UNL     1      -8.082   8.558  66.356  1.00  0.00    -0.103 C  
HETATM    8  O   UNL     1      -8.072   6.756  67.988  1.00  0.00    -0.112 OA 
HETATM    9  C   UNL     1      -8.059   8.185  67.841  1.00  0.00    -0.128 C  
ENDROOT
BRANCH   1  10
HETATM   10  O   UNL     1      -7.084   9.874  69.288  1.00  0.00    -0.060 OA 
BRANCH  10  11
HETATM   11  C   UNL     1      -7.788   9.538  70.515  1.00  0.00    -0.157 C  
HETATM   12  O   UNL     1      -5.837   8.485  71.503  1.00  0.00    -0.036 OA 
HETATM   13  H2  UNL     1     -11.930   8.517  72.380  1.00  0.00     0.000 HD 
HETATM   14  H   UNL     1      -5.485   7.705  71.916  1.00  0.00     0.000 HD 
HETATM   15  C   UNL     1      -7.219   8.276  71.183  1.00  0.00    -0.065 C  
HETATM   16  H1  UNL     1     -11.880   9.691  71.159  1.00  0.00     0.000 HD 
HETATM   17  C   UNL     1      -9.415   7.728  72.254  1.00  0.00    -0.225 C  
HETATM   18  N   UNL     1      -7.324   6.694  73.060  1.00  0.00    -0.081 NA 
HETATM   19  N   UNL     1     -11.472   8.831  71.525  1.00  0.00    -0.282 NA 
HETATM   20  H1  UNL     1      -7.794   6.454  73.932  1.00  0.00     0.000 HD 
HETATM   21  H2  UNL     1      -6.315   6.780  73.177  1.00  0.00     0.000 HD 
HETATM   22  C   UNL     1     -10.029   9.022  71.704  1.00  0.00    -0.313 C  
HETATM   23  C   UNL     1      -7.924   7.914  72.495  1.00  0.00    -0.120 C  
HETATM   24  C   UNL     1      -9.340   9.491  70.377  1.00  0.00    -0.257 C  
BRANCH  24  25
HETATM   25  O   UNL     1      -9.889  10.716  69.820  1.00  0.00    -0.107 OA 
BRANCH  25  26
HETATM   26  C   UNL     1     -11.302  10.734  69.578  1.00  0.00    -0.289 C  
HETATM   27  O   UNL     1     -11.940  11.776  70.319  1.00  0.00    -0.340 OA 
HETATM   28  C   UNL     1     -11.527  13.087  69.903  1.00  0.00    -0.081 C  
HETATM   29  C   UNL     1     -11.984  13.342  68.461  1.00  0.00    -0.328 C  
HETATM   30  H2  UNL     1     -11.201   8.919  67.518  1.00  0.00     0.000 HD 
HETATM   31  C   UNL     1     -11.360  12.284  67.551  1.00  0.00    -0.325 C  
HETATM   32  O   UNL     1     -11.575  14.619  67.948  1.00  0.00    -0.319 OA 
HETATM   33  H1  UNL     1     -11.228   9.948  66.199  1.00  0.00     0.000 HD 
HETATM   34  H   UNL     1     -11.859  14.777  67.055  1.00  0.00     0.000 HD 
HETATM   35  H   UNL     1     -11.491  11.783  65.653  1.00  0.00     0.000 HD 
HETATM   36  N   UNL     1     -10.999   9.862  67.189  1.00  0.00    -0.165 NA 
HETATM   37  O   UNL     1     -11.879  12.440  66.218  1.00  0.00    -0.473 OA 
HETATM   38  C   UNL     1     -11.652  10.864  68.063  1.00  0.00    -0.215 C  
BRANCH  28  39
HETATM   39  C   UNL     1     -12.090  14.093  70.922  1.00  0.00    -0.344 C  
HETATM   40  H2  UNL     1     -10.592  15.495  70.716  1.00  0.00     0.000 HD 
HETATM   41  N   UNL     1     -11.081  15.010  71.468  1.00  0.00    -0.575 NA 
HETATM   42  H1  UNL     1     -11.455  15.678  72.143  1.00  0.00     0.000 HD 
ENDBRANCH  28  39
ENDBRANCH  25  26
ENDBRANCH  24  25
ENDBRANCH  10  11
ENDBRANCH   1  10
BRANCH   5  43
HETATM   43  C   UNL     1      -7.523  11.030  66.261  1.00  0.00    -0.105 C  
HETATM   44  O   UNL     1      -8.473  11.228  65.208  1.00  0.00    -0.385 OA 
HETATM   45  H   UNL     1      -8.809  12.115  65.247  1.00  0.00     0.000 HD 
ENDBRANCH   5  43
TORSDOF 6
ENDMDL
MODEL      266
REMARK 921   NORMALIZED FREE ENERGY PREDICTED BY IDOCK:   -3.48 KCAL/MOL
REMARK 922        TOTAL FREE ENERGY PREDICTED BY IDOCK:   -6.34 KCAL/MOL
REMARK 923 INTER-LIGAND FREE ENERGY PREDICTED BY IDOCK:   -6.94 KCAL/MOL
REMARK 924 INTRA-LIGAND FREE ENERGY PREDICTED BY IDOCK:    0.60 KCAL/MOL
REMARK 927      BINDING AFFINITY PREDICTED BY RF-SCORE:    0.00 PKD
ROOT
HETATM    1  C   UNL     1     -11.664  12.485  67.537  1.00  0.00    -0.374 C  
HETATM    2  O   UNL     1     -12.765  11.851  70.609  1.00  0.00    -0.207 OA 
HETATM    3  O   UNL     1     -12.356  13.623  68.070  1.00  0.00    -0.238 OA 
HETATM    4  H   UNL     1     -11.727   9.825  69.516  1.00  0.00     0.000 HD 
HETATM    5  C   UNL     1     -11.923  13.834  69.426  1.00  0.00    -0.347 C  
HETATM    6  H   UNL     1     -12.573  10.986  70.951  1.00  0.00     0.000 HD 
HETATM    7  C   UNL     1     -11.616  12.448  69.975  1.00  0.00    -0.138 C  
HETATM    8  O   UNL     1     -11.976  10.364  68.774  1.00  0.00    -0.221 OA 
HETATM    9  C   UNL     1     -11.259  11.609  68.745  1.00  0.00    -0.245 C  
ENDROOT
BRANCH   1  10
HETATM   10  O   UNL     1     -10.488  12.898  66.837  1.00  0.00    -0.244 OA 
BRANCH  10  11
HETATM   11  C   UNL     1     -10.156  14.314  66.833  1.00  0.00    -0.264 C  
HETATM   12  O   UNL     1     -12.283  14.946  65.850  1.00  0.00    -0.107 OA 
HETATM   13  H2  UNL     1      -6.697  17.421  66.597  1.00  0.00     0.000 HD 
HETATM   14  H   UNL     1     -12.720  15.415  65.148  1.00  0.00     0.000 HD 
HETATM   15  C   UNL     1     -10.863  15.072  65.698  1.00  0.00    -0.349 C  
HETATM   16  H1  UNL     1      -6.423  15.998  67.475  1.00  0.00     0.000 HD 
HETATM   17  C   UNL     1      -9.052  16.798  65.584  1.00  0.00     0.256 C  
HETATM   18  N   UNL     1     -11.262  17.217  64.568  1.00  0.00    -0.924 NA 
HETATM   19  N   UNL     1      -6.899  16.425  66.680  1.00  0.00    -0.238 NA 
HETATM   20  H1  UNL     1     -11.056  18.216  64.562  1.00  0.00     0.000 HD 
HETATM   21  H2  UNL     1     -12.265  17.032  64.589  1.00  0.00     0.000 HD 
HETATM   22  C   UNL     1      -8.337  16.155  66.779  1.00  0.00    -0.264 C  
HETATM   23  C   UNL     1     -10.554  16.574  65.688  1.00  0.00    -0.304 C  
HETATM   24  C   UNL     1      -8.628  14.620  66.893  1.00  0.00    -0.204 C  
BRANCH  24  25
HETATM   25  O   UNL     1      -7.971  13.969  68.014  1.00  0.00    -0.127 OA 
BRANCH  25  26
HETATM   26  C   UNL     1      -6.569  13.708  67.872  1.00  0.00    -0.155 C  
HETATM   27  O   UNL     1      -5.839  14.180  69.006  1.00  0.00    -0.085 OA 
HETATM   28  C   UNL     1      -6.174  13.482  70.215  1.00  0.00    -0.052 C  
HETATM   29  C   UNL     1      -5.746  12.013  70.101  1.00  0.00    -0.152 C  
HETATM   30  H2  UNL     1      -6.858  12.120  65.649  1.00  0.00     0.000 HD 
HETATM   31  C   UNL     1      -6.470  11.379  68.913  1.00  0.00    -0.062 C  
HETATM   32  O   UNL     1      -6.083  11.228  71.254  1.00  0.00    -0.361 OA 
HETATM   33  H1  UNL     1      -6.803  10.599  66.346  1.00  0.00     0.000 HD 
HETATM   34  H   UNL     1      -5.818  10.318  71.184  1.00  0.00     0.000 HD 
HETATM   35  H   UNL     1      -6.433   9.644  67.985  1.00  0.00     0.000 HD 
HETATM   36  N   UNL     1      -7.006  11.586  66.505  1.00  0.00    -0.067 NA 
HETATM   37  O   UNL     1      -5.983  10.038  68.723  1.00  0.00    -0.038 OA 
HETATM   38  C   UNL     1      -6.259  12.198  67.629  1.00  0.00    -0.110 C  
BRANCH  28  39
HETATM   39  C   UNL     1      -5.512  14.235  71.382  1.00  0.00    -0.193 C  
HETATM   40  H2  UNL     1      -5.490  12.648  72.699  1.00  0.00     0.000 HD 
HETATM   41  N   UNL     1      -5.766  13.630  72.696  1.00  0.00    -0.410 NA 
HETATM   42  H1  UNL     1      -5.326  14.130  73.470  1.00  0.00     0.000 HD 
ENDBRANCH  28  39
ENDBRANCH  25  26
ENDBRANCH  24  25
ENDBRANCH  10  11
ENDBRANCH   1  10
BRANCH   5  43
HETATM   43  C   UNL     1     -10.710  14.770  69.509  1.00  0.00    -0.215 C  
HETATM   44  O   UNL     1     -10.412  15.045  70.882  1.00  0.00    -0.506 OA 
HETATM   45  H   UNL     1      -9.661  15.625  70.934  1.00  0.00     0.000 HD 
ENDBRANCH   5  43
TORSDOF 6
ENDMDL
MODEL      267
REMARK 921   NORMALIZED FREE ENERGY PREDICTED BY IDOCK:   -3.46 KCAL/MOL
REMARK 922        TOTAL FREE ENERGY PREDICTED BY IDOCK:   -6.32 KCAL/MOL
REMARK 923 INTER-LIGAND FREE ENERGY PREDICTED BY IDOCK:   -4.47 KCAL/MOL
REMARK 924 INTRA-LIGAND FREE ENERGY PREDICTED BY IDOCK:   -1.85 KCAL/MOL
REMARK 927      BINDING AFFINITY PREDICTED BY RF-SCORE:    0.00 PKD
ROOT
HETATM    1  C   UNL     1      -8.873   8.005  70.074  1.00  0.00    -0.143 C  
HETATM    2  O   UNL     1     -10.706   6.817  72.581  1.00  0.00    -0.219 OA 
HETATM    3  O   UNL     1      -8.860   8.914  71.184  1.00  0.00    -0.201 OA 
HETATM    4  H   UNL     1     -10.853   5.381  70.510  1.00  0.00     0.000 HD 
HETATM    5  C   UNL     1      -8.658   8.162  72.395  1.00  0.00    -0.185 C  
HETATM    6  H   UNL     1     -11.124   5.977  72.432  1.00  0.00     0.000 HD 
HETATM    7  C   UNL     1      -9.329   6.817  72.156  1.00  0.00    -0.140 C  
HETATM    8  O   UNL     1     -10.593   6.226  70.165  1.00  0.00    -0.211 OA 
HETATM    9  C   UNL     1      -9.296   6.627  70.637  1.00  0.00    -0.162 C  
ENDROOT
BRANCH   1  10
HETATM   10  O   UNL     1      -7.568   7.900  69.500  1.00  0.00    -0.094 OA 
BRANCH  10  11
HETATM   11  C   UNL     1      -7.319   8.578  68.238  1.00  0.00    -0.094 C  
HETATM   12  O   UNL     1      -6.793  10.686  69.323  1.00  0.00    -0.065 OA 
HETATM   13  H2  UNL     1      -8.384   8.725  63.708  1.00  0.00     0.000 HD 
HETATM   14  H   UNL     1      -6.981  11.616  69.373  1.00  0.00     0.000 HD 
HETATM   15  C   UNL     1      -7.622  10.083  68.319  1.00  0.00    -0.084 C  
HETATM   16  H1  UNL     1      -8.259   7.203  64.442  1.00  0.00     0.000 HD 
HETATM   17  C   UNL     1      -8.142  10.214  65.873  1.00  0.00    -0.136 C  
HETATM   18  N   UNL     1      -7.664  12.256  67.174  1.00  0.00    -0.252 NA 
HETATM   19  N   UNL     1      -8.512   8.183  64.563  1.00  0.00    -0.063 NA 
HETATM   20  H1  UNL     1      -7.476  12.752  66.303  1.00  0.00     0.000 HD 
HETATM   21  H2  UNL     1      -7.177  12.674  67.967  1.00  0.00     0.000 HD 
HETATM   22  C   UNL     1      -7.760   8.740  65.693  1.00  0.00    -0.091 C  
HETATM   23  C   UNL     1      -7.339  10.829  67.010  1.00  0.00    -0.110 C  
HETATM   24  C   UNL     1      -7.981   7.903  66.999  1.00  0.00    -0.112 C  
BRANCH  24  25
HETATM   25  O   UNL     1      -7.630   6.498  66.874  1.00  0.00    -0.092 OA 
BRANCH  25  26
HETATM   26  C   UNL     1      -8.577   5.552  67.387  1.00  0.00    -0.108 C  
HETATM   27  O   UNL     1      -9.541   5.197  66.394  1.00  0.00    -0.141 OA 
HETATM   28  C   UNL     1      -8.963   4.500  65.280  1.00  0.00    -0.144 C  
HETATM   29  C   UNL     1      -8.414   3.144  65.745  1.00  0.00    -0.108 C  
HETATM   30  H2  UNL     1      -7.200   5.094  69.719  1.00  0.00     0.000 HD 
HETATM   31  C   UNL     1      -7.353   3.385  66.820  1.00  0.00    -0.075 C  
HETATM   32  O   UNL     1      -7.777   2.396  64.699  1.00  0.00    -0.071 OA 
HETATM   33  H1  UNL     1      -6.394   3.680  69.330  1.00  0.00     0.000 HD 
HETATM   34  H   UNL     1      -7.437   1.556  64.987  1.00  0.00     0.000 HD 
HETATM   35  H   UNL     1      -6.261   2.268  68.017  1.00  0.00     0.000 HD 
HETATM   36  N   UNL     1      -6.838   4.520  68.958  1.00  0.00    -0.049 NA 
HETATM   37  O   UNL     1      -6.920   2.118  67.349  1.00  0.00    -0.039 OA 
HETATM   38  C   UNL     1      -7.898   4.267  67.955  1.00  0.00    -0.079 C  
BRANCH  28  39
HETATM   39  C   UNL     1     -10.044   4.393  64.191  1.00  0.00     0.073 C  
HETATM   40  H2  UNL     1     -11.643   4.872  65.402  1.00  0.00     0.000 HD 
HETATM   41  N   UNL     1     -11.395   4.157  64.718  1.00  0.00    -0.962 NA 
HETATM   42  H1  UNL     1     -12.112   4.086  63.995  1.00  0.00     0.000 HD 
ENDBRANCH  28  39
ENDBRANCH  25  26
ENDBRANCH  24  25
ENDBRANCH  10  11
ENDBRANCH   1  10
BRANCH   5  43
HETATM   43  C   UNL     1      -7.171   8.014  72.744  1.00  0.00    -0.095 C  
HETATM   44  O   UNL     1      -6.424   9.055  72.105  1.00  0.00    -0.223 OA 
HETATM   45  H   UNL     1      -5.504   8.963  72.320  1.00  0.00     0.000 HD 
ENDBRANCH   5  43
TORSDOF 6
ENDMDL
MODEL      268
REMARK 921   NORMALIZED FREE ENERGY PREDICTED BY IDOCK:   -3.44 KCAL/MOL
REMARK 922        TOTAL FREE ENERGY PREDICTED BY IDOCK:   -6.29 KCAL/MOL
REMARK 923 INTER-LIGAND FREE ENERGY PREDICTED BY IDOCK:   -5.41 KCAL/MOL
REMARK 924 INTRA-LIGAND FREE ENERGY PREDICTED BY IDOCK:   -0.87 KCAL/MOL
REMARK 927      BINDING AFFINITY PREDICTED BY RF-SCORE:    0.00 PKD
ROOT
HETATM    1  C   UNL     1     -10.880   8.186  71.050  1.00  0.00    -0.235 C  
HETATM    2  O   UNL     1     -12.652   5.827  72.581  1.00  0.00    -0.499 OA 
HETATM    3  O   UNL     1     -10.694   8.257  72.471  1.00  0.00    -0.322 OA 
HETATM    4  H   UNL     1     -13.094   5.909  70.097  1.00  0.00     0.000 HD 
HETATM    5  C   UNL     1     -10.490   6.925  72.978  1.00  0.00    -0.264 C  
HETATM    6  H   UNL     1     -13.167   5.260  72.019  1.00  0.00     0.000 HD 
HETATM    7  C   UNL     1     -11.316   6.017  72.077  1.00  0.00    -0.290 C  
HETATM    8  O   UNL     1     -12.770   6.781  70.285  1.00  0.00     0.052 OA 
HETATM    9  C   UNL     1     -11.408   6.764  70.744  1.00  0.00    -0.325 C  
ENDROOT
BRANCH   1  10
HETATM   10  O   UNL     1      -9.636   8.383  70.373  1.00  0.00    -0.165 OA 
BRANCH  10  11
HETATM   11  C   UNL     1      -9.543   7.979  68.979  1.00  0.00    -0.156 C  
HETATM   12  O   UNL     1      -8.646   5.793  69.535  1.00  0.00    -0.110 OA 
HETATM   13  H2  UNL     1      -8.966   9.467  64.606  1.00  0.00     0.000 HD 
HETATM   14  H   UNL     1      -7.947   5.167  69.389  1.00  0.00     0.000 HD 
HETATM   15  C   UNL     1      -8.412   6.966  68.744  1.00  0.00    -0.121 C  
HETATM   16  H1  UNL     1      -9.898  10.423  65.649  1.00  0.00     0.000 HD 
HETATM   17  C   UNL     1      -8.114   7.696  66.366  1.00  0.00    -0.113 C  
HETATM   18  N   UNL     1      -7.199   5.542  67.150  1.00  0.00    -0.074 NA 
HETATM   19  N   UNL     1      -9.110   9.781  65.565  1.00  0.00    -0.181 NA 
HETATM   20  H1  UNL     1      -7.132   5.233  66.181  1.00  0.00     0.000 HD 
HETATM   21  H2  UNL     1      -7.284   4.760  67.799  1.00  0.00     0.000 HD 
HETATM   22  C   UNL     1      -9.299   8.662  66.494  1.00  0.00    -0.200 C  
HETATM   23  C   UNL     1      -8.310   6.500  67.287  1.00  0.00    -0.113 C  
HETATM   24  C   UNL     1      -9.505   9.162  67.965  1.00  0.00    -0.141 C  
BRANCH  24  25
HETATM   25  O   UNL     1     -10.620  10.079  68.132  1.00  0.00    -0.198 OA 
BRANCH  25  26
HETATM   26  C   UNL     1     -10.411  11.190  69.013  1.00  0.00    -0.194 C  
HETATM   27  O   UNL     1      -9.034  11.576  69.039  1.00  0.00    -0.022 OA 
HETATM   28  C   UNL     1      -8.572  12.077  67.776  1.00  0.00    -0.157 C  
HETATM   29  C   UNL     1      -9.303  13.383  67.437  1.00  0.00    -0.221 C  
HETATM   30  H2  UNL     1     -13.085  11.680  69.401  1.00  0.00     0.000 HD 
HETATM   31  C   UNL     1     -10.805  13.105  67.372  1.00  0.00    -0.255 C  
HETATM   32  O   UNL     1      -8.931  13.933  66.165  1.00  0.00    -0.474 OA 
HETATM   33  H1  UNL     1     -13.332  12.927  68.313  1.00  0.00     0.000 HD 
HETATM   34  H   UNL     1      -9.383  14.742  65.955  1.00  0.00     0.000 HD 
HETATM   35  H   UNL     1     -12.440  14.174  67.136  1.00  0.00     0.000 HD 
HETATM   36  N   UNL     1     -12.750  12.123  68.547  1.00  0.00     0.721 NA 
HETATM   37  O   UNL     1     -11.507  14.346  67.176  1.00  0.00    -0.330 OA 
HETATM   38  C   UNL     1     -11.302  12.420  68.655  1.00  0.00    -0.288 C  
BRANCH  28  39
HETATM   39  C   UNL     1      -7.044  12.224  67.869  1.00  0.00    -0.105 C  
HETATM   40  H2  UNL     1      -6.705  12.409  65.843  1.00  0.00     0.000 HD 
HETATM   41  N   UNL     1      -6.339  11.872  66.629  1.00  0.00    -0.388 NA 
HETATM   42  H1  UNL     1      -5.325  11.971  66.691  1.00  0.00     0.000 HD 
ENDBRANCH  28  39
ENDBRANCH  25  26
ENDBRANCH  24  25
ENDBRANCH  10  11
ENDBRANCH   1  10
BRANCH   5  43
HETATM   43  C   UNL     1      -9.007   6.531  72.994  1.00  0.00    -0.128 C  
HETATM   44  O   UNL     1      -8.891   5.112  73.144  1.00  0.00    -0.116 OA 
HETATM   45  H   UNL     1      -7.974   4.868  73.154  1.00  0.00     0.000 HD 
ENDBRANCH   5  43
TORSDOF 6
ENDMDL
MODEL      269
REMARK 921   NORMALIZED FREE ENERGY PREDICTED BY IDOCK:   -3.40 KCAL/MOL
REMARK 922        TOTAL FREE ENERGY PREDICTED BY IDOCK:   -6.23 KCAL/MOL
REMARK 923 INTER-LIGAND FREE ENERGY PREDICTED BY IDOCK:   -5.86 KCAL/MOL
REMARK 924 INTRA-LIGAND FREE ENERGY PREDICTED BY IDOCK:   -0.37 KCAL/MOL
REMARK 927      BINDING AFFINITY PREDICTED BY RF-SCORE:    0.00 PKD
ROOT
HETATM    1  C   UNL     1      -8.455   6.945  67.862  1.00  0.00    -0.120 C  
HETATM    2  O   UNL     1      -7.031   4.806  65.753  1.00  0.00    -0.060 OA 
HETATM    3  O   UNL     1      -7.030   6.941  68.033  1.00  0.00    -0.077 OA 
HETATM    4  H   UNL     1      -9.553   4.714  65.669  1.00  0.00     0.000 HD 
HETATM    5  C   UNL     1      -6.409   6.972  66.734  1.00  0.00    -0.049 C  
HETATM    6  H   UNL     1      -7.620   4.330  65.179  1.00  0.00     0.000 HD 
HETATM    7  C   UNL     1      -7.353   6.209  65.815  1.00  0.00    -0.080 C  
HETATM    8  O   UNL     1      -9.381   5.076  66.531  1.00  0.00    -0.129 OA 
HETATM    9  C   UNL     1      -8.733   6.356  66.460  1.00  0.00    -0.133 C  
ENDROOT
BRANCH   1  10
HETATM   10  O   UNL     1      -8.961   8.281  67.924  1.00  0.00    -0.134 OA 
BRANCH  10  11
HETATM   11  C   UNL     1      -9.708   8.677  69.107  1.00  0.00    -0.173 C  
HETATM   12  O   UNL     1     -10.182   6.382  69.739  1.00  0.00    -0.173 OA 
HETATM   13  H2  UNL     1     -12.355  11.999  71.013  1.00  0.00     0.000 HD 
HETATM   14  H   UNL     1     -10.852   5.748  69.968  1.00  0.00     0.000 HD 
HETATM   15  C   UNL     1     -10.792   7.653  69.477  1.00  0.00    -0.165 C  
HETATM   16  H1  UNL     1     -11.054  12.484  70.043  1.00  0.00     0.000 HD 
HETATM   17  C   UNL     1     -12.215   9.401  70.568  1.00  0.00    -0.045 C  
HETATM   18  N   UNL     1     -12.595   7.004  71.015  1.00  0.00    -0.509 NA 
HETATM   19  N   UNL     1     -11.772  11.779  70.206  1.00  0.00    -0.282 NA 
HETATM   20  H1  UNL     1     -13.117   7.256  71.855  1.00  0.00     0.000 HD 
HETATM   21  H2  UNL     1     -12.193   6.069  71.079  1.00  0.00     0.000 HD 
HETATM   22  C   UNL     1     -11.135  10.462  70.322  1.00  0.00    -0.307 C  
HETATM   23  C   UNL     1     -11.576   8.031  70.739  1.00  0.00    -0.242 C  
HETATM   24  C   UNL     1     -10.254  10.136  69.067  1.00  0.00    -0.206 C  
BRANCH  24  25
HETATM   25  O   UNL     1      -9.215  11.116  68.797  1.00  0.00    -0.180 OA 
BRANCH  25  26
HETATM   26  C   UNL     1      -8.864  11.316  67.422  1.00  0.00    -0.145 C  
HETATM   27  O   UNL     1      -9.941  11.913  66.696  1.00  0.00    -0.195 OA 
HETATM   28  C   UNL     1     -10.245  13.242  67.145  1.00  0.00    -0.246 C  
HETATM   29  C   UNL     1      -9.060  14.172  66.856  1.00  0.00    -0.245 C  
HETATM   30  H2  UNL     1      -6.212  10.691  67.772  1.00  0.00     0.000 HD 
HETATM   31  C   UNL     1      -7.827  13.642  67.589  1.00  0.00    -0.174 C  
HETATM   32  O   UNL     1      -9.263  15.518  67.313  1.00  0.00    -0.201 OA 
HETATM   33  H1  UNL     1      -5.547  12.223  67.892  1.00  0.00     0.000 HD 
HETATM   34  H   UNL     1      -8.529  16.094  67.134  1.00  0.00     0.000 HD 
HETATM   35  H   UNL     1      -5.917  14.107  67.681  1.00  0.00     0.000 HD 
HETATM   36  N   UNL     1      -6.395  11.667  68.005  1.00  0.00    -0.046 NA 
HETATM   37  O   UNL     1      -6.683  14.437  67.226  1.00  0.00    -0.269 OA 
HETATM   38  C   UNL     1      -7.567  12.166  67.249  1.00  0.00    -0.156 C  
BRANCH  28  39
HETATM   39  C   UNL     1     -11.555  13.671  66.461  1.00  0.00    -0.366 C  
HETATM   40  H2  UNL     1     -12.388  11.788  66.351  1.00  0.00     0.000 HD 
HETATM   41  N   UNL     1     -12.228  12.586  65.736  1.00  0.00    -0.626 NA 
HETATM   42  H1  UNL     1     -13.097  12.871  65.283  1.00  0.00     0.000 HD 
ENDBRANCH  28  39
ENDBRANCH  25  26
ENDBRANCH  24  25
ENDBRANCH  10  11
ENDBRANCH   1  10
BRANCH   5  43
HETATM   43  C   UNL     1      -6.157   8.404  66.246  1.00  0.00    -0.048 C  
HETATM   44  O   UNL     1      -7.227   8.812  65.386  1.00  0.00    -0.082 OA 
HETATM   45  H   UNL     1      -7.071   9.698  65.083  1.00  0.00     0.000 HD 
ENDBRANCH   5  43
TORSDOF 6
ENDMDL
MODEL      270
REMARK 921   NORMALIZED FREE ENERGY PREDICTED BY IDOCK:   -3.40 KCAL/MOL
REMARK 922        TOTAL FREE ENERGY PREDICTED BY IDOCK:   -6.23 KCAL/MOL
REMARK 923 INTER-LIGAND FREE ENERGY PREDICTED BY IDOCK:   -5.12 KCAL/MOL
REMARK 924 INTRA-LIGAND FREE ENERGY PREDICTED BY IDOCK:   -1.11 KCAL/MOL
REMARK 927      BINDING AFFINITY PREDICTED BY RF-SCORE:    0.00 PKD
ROOT
HETATM    1  C   UNL     1     -10.619  10.051  68.595  1.00  0.00    -0.212 C  
HETATM    2  O   UNL     1     -11.820  13.141  68.835  1.00  0.00    -0.300 OA 
HETATM    3  O   UNL     1     -10.237  10.830  67.453  1.00  0.00    -0.189 OA 
HETATM    4  H   UNL     1     -12.629  11.642  70.698  1.00  0.00     0.000 HD 
HETATM    5  C   UNL     1      -9.787  12.121  67.904  1.00  0.00    -0.199 C  
HETATM    6  H   UNL     1     -12.332  13.332  69.611  1.00  0.00     0.000 HD 
HETATM    7  C   UNL     1     -10.609  12.426  69.149  1.00  0.00     0.039 C  
HETATM    8  O   UNL     1     -12.399  11.026  70.013  1.00  0.00    -0.320 OA 
HETATM    9  C   UNL     1     -10.995  11.055  69.710  1.00  0.00    -0.193 C  
ENDROOT
BRANCH   1  10
HETATM   10  O   UNL     1      -9.526   9.242  69.036  1.00  0.00    -0.152 OA 
BRANCH  10  11
HETATM   11  C   UNL     1      -9.744   7.811  69.174  1.00  0.00    -0.161 C  
HETATM   12  O   UNL     1     -11.550   8.105  70.769  1.00  0.00    -0.291 OA 
HETATM   13  H2  UNL     1      -7.747   3.610  68.971  1.00  0.00     0.000 HD 
HETATM   14  H   UNL     1     -11.892   7.875  71.625  1.00  0.00     0.000 HD 
HETATM   15  C   UNL     1     -10.297   7.439  70.558  1.00  0.00    -0.214 C  
HETATM   16  H1  UNL     1      -7.257   4.774  67.842  1.00  0.00     0.000 HD 
HETATM   17  C   UNL     1      -9.291   5.148  70.459  1.00  0.00    -0.210 C  
HETATM   18  N   UNL     1     -11.083   5.672  72.074  1.00  0.00    -0.250 NA 
HETATM   19  N   UNL     1      -7.590   4.601  68.790  1.00  0.00    -0.067 NA 
HETATM   20  H1  UNL     1     -11.260   4.673  72.182  1.00  0.00     0.000 HD 
HETATM   21  H2  UNL     1     -11.906   6.234  72.289  1.00  0.00     0.000 HD 
HETATM   22  C   UNL     1      -8.790   5.408  69.033  1.00  0.00    -0.100 C  
HETATM   23  C   UNL     1     -10.565   5.939  70.721  1.00  0.00    -0.265 C  
HETATM   24  C   UNL     1      -8.526   6.929  68.762  1.00  0.00    -0.121 C  
BRANCH  24  25
HETATM   25  O   UNL     1      -8.051   7.223  67.420  1.00  0.00    -0.110 OA 
BRANCH  25  26
HETATM   26  C   UNL     1      -9.050   7.353  66.401  1.00  0.00    -0.160 C  
HETATM   27  O   UNL     1      -8.947   8.615  65.736  1.00  0.00    -0.184 OA 
HETATM   28  C   UNL     1      -7.721   8.759  65.003  1.00  0.00    -0.105 C  
HETATM   29  C   UNL     1      -7.681   7.744  63.853  1.00  0.00    -0.123 C  
HETATM   30  H2  UNL     1      -9.865   4.734  66.543  1.00  0.00     0.000 HD 
HETATM   31  C   UNL     1      -7.779   6.334  64.436  1.00  0.00    -0.107 C  
HETATM   32  O   UNL     1      -6.465   7.790  63.091  1.00  0.00    -0.065 OA 
HETATM   33  H1  UNL     1      -9.016   4.076  65.259  1.00  0.00     0.000 HD 
HETATM   34  H   UNL     1      -6.441   7.162  62.378  1.00  0.00     0.000 HD 
HETATM   35  H   UNL     1      -7.928   4.506  63.722  1.00  0.00     0.000 HD 
HETATM   36  N   UNL     1      -9.048   4.834  65.942  1.00  0.00    -0.132 NA 
HETATM   37  O   UNL     1      -7.866   5.382  63.359  1.00  0.00    -0.079 OA 
HETATM   38  C   UNL     1      -9.002   6.194  65.357  1.00  0.00     0.061 C  
BRANCH  28  39
HETATM   39  C   UNL     1      -7.627  10.224  64.544  1.00  0.00    -0.095 C  
HETATM   40  H2  UNL     1      -9.296  10.892  65.556  1.00  0.00     0.000 HD 
HETATM   41  N   UNL     1      -8.902  10.950  64.617  1.00  0.00    -0.333 NA 
HETATM   42  H1  UNL     1      -8.839  11.922  64.312  1.00  0.00     0.000 HD 
ENDBRANCH  28  39
ENDBRANCH  25  26
ENDBRANCH  24  25
ENDBRANCH  10  11
ENDBRANCH   1  10
BRANCH   5  43
HETATM   43  C   UNL     1      -8.279  12.143  68.187  1.00  0.00    -0.164 C  
HETATM   44  O   UNL     1      -7.989  13.157  69.156  1.00  0.00    -0.319 OA 
HETATM   45  H   UNL     1      -7.056  13.171  69.331  1.00  0.00     0.000 HD 
ENDBRANCH   5  43
TORSDOF 6
ENDMDL
MODEL      271
REMARK 921   NORMALIZED FREE ENERGY PREDICTED BY IDOCK:   -3.32 KCAL/MOL
REMARK 922        TOTAL FREE ENERGY PREDICTED BY IDOCK:   -6.13 KCAL/MOL
REMARK 923 INTER-LIGAND FREE ENERGY PREDICTED BY IDOCK:   -4.84 KCAL/MOL
REMARK 924 INTRA-LIGAND FREE ENERGY PREDICTED BY IDOCK:   -1.29 KCAL/MOL
REMARK 927      BINDING AFFINITY PREDICTED BY RF-SCORE:    0.00 PKD
ROOT
HETATM    1  C   UNL     1      -8.591  11.927  66.597  1.00  0.00    -0.163 C  
HETATM    2  O   UNL     1      -7.529  14.605  68.256  1.00  0.00    -0.104 OA 
HETATM    3  O   UNL     1      -7.161  11.914  66.714  1.00  0.00    -0.107 OA 
HETATM    4  H   UNL     1     -10.015  14.661  67.818  1.00  0.00     0.000 HD 
HETATM    5  C   UNL     1      -6.804  12.265  68.064  1.00  0.00    -0.082 C  
HETATM    6  H   UNL     1      -8.201  15.210  68.547  1.00  0.00     0.000 HD 
HETATM    7  C   UNL     1      -7.880  13.234  68.530  1.00  0.00    -0.110 C  
HETATM    8  O   UNL     1      -9.692  14.075  67.143  1.00  0.00    -0.230 OA 
HETATM    9  C   UNL     1      -9.115  12.881  67.696  1.00  0.00    -0.194 C  
ENDROOT
BRANCH   1  10
HETATM   10  O   UNL     1      -9.121  10.617  66.816  1.00  0.00    -0.150 OA 
BRANCH  10  11
HETATM   11  C   UNL     1      -8.414   9.486  66.236  1.00  0.00    -0.115 C  
HETATM   12  O   UNL     1      -7.671  10.768  64.313  1.00  0.00    -0.358 OA 
HETATM   13  H2  UNL     1      -8.278   4.846  65.883  1.00  0.00     0.000 HD 
HETATM   14  H   UNL     1      -7.632  10.817  63.364  1.00  0.00     0.000 HD 
HETATM   15  C   UNL     1      -8.352   9.567  64.702  1.00  0.00    -0.157 C  
HETATM   16  H1  UNL     1      -8.710   5.513  67.379  1.00  0.00     0.000 HD 
HETATM   17  C   UNL     1      -8.213   7.077  64.475  1.00  0.00     0.001 C  
HETATM   18  N   UNL     1      -7.583   8.553  62.600  1.00  0.00    -0.108 NA 
HETATM   19  N   UNL     1      -8.738   5.618  66.365  1.00  0.00    -0.122 NA 
HETATM   20  H1  UNL     1      -7.074   7.778  62.177  1.00  0.00     0.000 HD 
HETATM   21  H2  UNL     1      -7.217   9.459  62.308  1.00  0.00     0.000 HD 
HETATM   22  C   UNL     1      -8.171   6.920  66.000  1.00  0.00    -0.125 C  
HETATM   23  C   UNL     1      -7.586   8.402  64.065  1.00  0.00    -0.126 C  
HETATM   24  C   UNL     1      -8.899   8.094  66.740  1.00  0.00    -0.138 C  
BRANCH  24  25
HETATM   25  O   UNL     1      -8.882   7.987  68.189  1.00  0.00    -0.132 OA 
BRANCH  25  26
HETATM   26  C   UNL     1     -10.145   7.769  68.832  1.00  0.00    -0.195 C  
HETATM   27  O   UNL     1     -10.286   6.409  69.247  1.00  0.00    -0.173 OA 
HETATM   28  C   UNL     1      -9.342   6.036  70.262  1.00  0.00    -0.159 C  
HETATM   29  C   UNL     1      -9.618   6.831  71.545  1.00  0.00    -0.163 C  
HETATM   30  H2  UNL     1     -10.797  10.435  68.959  1.00  0.00     0.000 HD 
HETATM   31  C   UNL     1      -9.492   8.324  71.237  1.00  0.00    -0.172 C  
HETATM   32  O   UNL     1      -8.690   6.550  72.603  1.00  0.00    -0.125 OA 
HETATM   33  H1  UNL     1     -10.353  10.787  70.533  1.00  0.00     0.000 HD 
HETATM   34  H   UNL     1      -8.861   7.043  73.398  1.00  0.00     0.000 HD 
HETATM   35  H   UNL     1      -9.791  10.008  72.210  1.00  0.00     0.000 HD 
HETATM   36  N   UNL     1     -10.202  10.163  69.741  1.00  0.00    -0.246 NA 
HETATM   37  O   UNL     1      -9.869   9.080  72.402  1.00  0.00    -0.166 OA 
HETATM   38  C   UNL     1     -10.376   8.724  70.045  1.00  0.00    -0.203 C  
BRANCH  28  39
HETATM   39  C   UNL     1      -9.436   4.511  70.442  1.00  0.00    -0.182 C  
HETATM   40  H2  UNL     1     -11.184   4.514  71.536  1.00  0.00     0.000 HD 
HETATM   41  N   UNL     1     -10.254   4.100  71.591  1.00  0.00    -0.119 NA 
HETATM   42  H1  UNL     1     -10.316   3.088  71.710  1.00  0.00     0.000 HD 
ENDBRANCH  28  39
ENDBRANCH  25  26
ENDBRANCH  24  25
ENDBRANCH  10  11
ENDBRANCH   1  10
BRANCH   5  43
HETATM   43  C   UNL     1      -6.700  11.034  68.974  1.00  0.00    -0.074 C  
HETATM   44  O   UNL     1      -7.188  11.363  70.279  1.00  0.00    -0.342 OA 
HETATM   45  H   UNL     1      -7.124  10.601  70.843  1.00  0.00     0.000 HD 
ENDBRANCH   5  43
TORSDOF 6
ENDMDL
MODEL      272
REMARK 921   NORMALIZED FREE ENERGY PREDICTED BY IDOCK:   -3.26 KCAL/MOL
REMARK 922        TOTAL FREE ENERGY PREDICTED BY IDOCK:   -6.05 KCAL/MOL
REMARK 923 INTER-LIGAND FREE ENERGY PREDICTED BY IDOCK:   -4.85 KCAL/MOL
REMARK 924 INTRA-LIGAND FREE ENERGY PREDICTED BY IDOCK:   -1.20 KCAL/MOL
REMARK 927      BINDING AFFINITY PREDICTED BY RF-SCORE:    0.00 PKD
ROOT
HETATM    1  C   UNL     1      -8.549   6.299  66.791  1.00  0.00    -0.116 C  
HETATM    2  O   UNL     1      -6.365   4.303  65.275  1.00  0.00    -0.033 OA 
HETATM    3  O   UNL     1      -8.866   6.170  65.398  1.00  0.00    -0.114 OA 
HETATM    4  H   UNL     1      -5.753   4.755  67.682  1.00  0.00     0.000 HD 
HETATM    5  C   UNL     1      -8.763   4.783  65.026  1.00  0.00    -0.147 C  
HETATM    6  H   UNL     1      -5.677   3.944  65.822  1.00  0.00     0.000 HD 
HETATM    7  C   UNL     1      -7.659   4.209  65.903  1.00  0.00    -0.089 C  
HETATM    8  O   UNL     1      -6.305   5.495  67.460  1.00  0.00    -0.039 OA 
HETATM    9  C   UNL     1      -7.650   5.093  67.153  1.00  0.00    -0.092 C  
ENDROOT
BRANCH   1  10
HETATM   10  O   UNL     1      -9.741   6.253  67.580  1.00  0.00    -0.114 OA 
BRANCH  10  11
HETATM   11  C   UNL     1      -9.631   6.528  69.004  1.00  0.00    -0.132 C  
HETATM   12  O   UNL     1     -10.006   4.209  69.616  1.00  0.00    -0.195 OA 
HETATM   13  H2  UNL     1     -10.235   9.730  72.328  1.00  0.00     0.000 HD 
HETATM   14  H   UNL     1     -10.519   3.603  70.138  1.00  0.00     0.000 HD 
HETATM   15  C   UNL     1     -10.461   5.548  69.849  1.00  0.00    -0.316 C  
HETATM   16  H1  UNL     1      -9.643  10.250  70.828  1.00  0.00     0.000 HD 
HETATM   17  C   UNL     1     -10.755   7.224  71.687  1.00  0.00    -0.239 C  
HETATM   18  N   UNL     1     -11.171   4.824  72.087  1.00  0.00     0.130 NA 
HETATM   19  N   UNL     1     -10.242   9.586  71.319  1.00  0.00    -0.259 NA 
HETATM   20  H1  UNL     1     -11.090   4.990  73.090  1.00  0.00     0.000 HD 
HETATM   21  H2  UNL     1     -10.945   3.861  71.837  1.00  0.00     0.000 HD 
HETATM   22  C   UNL     1      -9.853   8.221  70.949  1.00  0.00    -0.182 C  
HETATM   23  C   UNL     1     -10.340   5.797  71.357  1.00  0.00    -0.224 C  
HETATM   24  C   UNL     1      -9.883   8.015  69.395  1.00  0.00    -0.181 C  
BRANCH  24  25
HETATM   25  O   UNL     1      -9.041   8.939  68.655  1.00  0.00    -0.137 OA 
BRANCH  25  26
HETATM   26  C   UNL     1      -9.655  10.157  68.216  1.00  0.00    -0.141 C  
HETATM   27  O   UNL     1      -8.968  11.298  68.735  1.00  0.00    -0.170 OA 
HETATM   28  C   UNL     1      -7.629  11.417  68.234  1.00  0.00    -0.113 C  
HETATM   29  C   UNL     1      -7.661  11.677  66.722  1.00  0.00    -0.116 C  
HETATM   30  H2  UNL     1     -11.327   8.932  66.414  1.00  0.00     0.000 HD 
HETATM   31  C   UNL     1      -8.375  10.512  66.036  1.00  0.00    -0.158 C  
HETATM   32  O   UNL     1      -6.358  11.768  66.128  1.00  0.00    -0.434 OA 
HETATM   33  H1  UNL     1     -10.471   9.161  64.993  1.00  0.00     0.000 HD 
HETATM   34  H   UNL     1      -6.378  11.929  65.192  1.00  0.00     0.000 HD 
HETATM   35  H   UNL     1      -8.963  10.080  64.209  1.00  0.00     0.000 HD 
HETATM   36  N   UNL     1     -10.405   9.096  66.009  1.00  0.00    -0.048 NA 
HETATM   37  O   UNL     1      -8.519  10.804  64.634  1.00  0.00    -0.133 OA 
HETATM   38  C   UNL     1      -9.756  10.256  66.662  1.00  0.00    -0.185 C  
BRANCH  28  39
HETATM   39  C   UNL     1      -6.930  12.525  69.041  1.00  0.00    -0.066 C  
HETATM   40  H2  UNL     1      -8.581  13.746  69.237  1.00  0.00     0.000 HD 
HETATM   41  N   UNL     1      -7.602  13.829  68.962  1.00  0.00    -0.301 NA 
HETATM   42  H1  UNL     1      -7.139  14.563  69.498  1.00  0.00     0.000 HD 
ENDBRANCH  28  39
ENDBRANCH  25  26
ENDBRANCH  24  25
ENDBRANCH  10  11
ENDBRANCH   1  10
BRANCH   5  43
HETATM   43  C   UNL     1     -10.091   4.035  65.202  1.00  0.00    -0.182 C  
HETATM   44  O   UNL     1     -10.125   3.420  66.495  1.00  0.00    -0.324 OA 
HETATM   45  H   UNL     1     -10.946   2.957  66.604  1.00  0.00     0.000 HD 
ENDBRANCH   5  43
TORSDOF 6
ENDMDL
MODEL      273
REMARK 921   NORMALIZED FREE ENERGY PREDICTED BY IDOCK:   -3.25 KCAL/MOL
REMARK 922        TOTAL FREE ENERGY PREDICTED BY IDOCK:   -6.03 KCAL/MOL
REMARK 923 INTER-LIGAND FREE ENERGY PREDICTED BY IDOCK:   -7.60 KCAL/MOL
REMARK 924 INTRA-LIGAND FREE ENERGY PREDICTED BY IDOCK:    1.57 KCAL/MOL
REMARK 927      BINDING AFFINITY PREDICTED BY RF-SCORE:    0.00 PKD
ROOT
HETATM    1  C   UNL     1     -11.900  13.135  67.295  1.00  0.00    -0.367 C  
HETATM    2  O   UNL     1     -12.848  12.686  70.450  1.00  0.00     0.031 OA 
HETATM    3  O   UNL     1     -12.392  14.362  67.854  1.00  0.00    -0.220 OA 
HETATM    4  H   UNL     1     -12.172  10.528  69.326  1.00  0.00     0.000 HD 
HETATM    5  C   UNL     1     -11.837  14.525  69.172  1.00  0.00    -0.319 C  
HETATM    6  H   UNL     1     -12.749  11.806  70.795  1.00  0.00     0.000 HD 
HETATM    7  C   UNL     1     -11.679  13.116  69.724  1.00  0.00    -0.280 C  
HETATM    8  O   UNL     1     -12.401  11.088  68.593  1.00  0.00    -0.539 OA 
HETATM    9  C   UNL     1     -11.528  12.224  68.489  1.00  0.00    -0.303 C  
ENDROOT
BRANCH   1  10
HETATM   10  O   UNL     1     -10.733  13.380  66.505  1.00  0.00    -0.283 OA 
BRANCH  10  11
HETATM   11  C   UNL     1      -9.699  14.239  67.060  1.00  0.00    -0.253 C  
HETATM   12  O   UNL     1     -10.666  16.247  66.100  1.00  0.00    -0.285 OA 
HETATM   13  H2  UNL     1      -5.255  14.462  68.429  1.00  0.00     0.000 HD 
HETATM   14  H   UNL     1     -10.516  17.018  65.565  1.00  0.00     0.000 HD 
HETATM   15  C   UNL     1      -9.456  15.485  66.194  1.00  0.00    -0.341 C  
HETATM   16  H1  UNL     1      -6.113  13.039  68.758  1.00  0.00     0.000 HD 
HETATM   17  C   UNL     1      -7.077  15.675  66.956  1.00  0.00    -0.127 C  
HETATM   18  N   UNL     1      -8.214  17.582  65.878  1.00  0.00    -0.553 NA 
HETATM   19  N   UNL     1      -5.984  13.822  68.117  1.00  0.00    -0.111 NA 
HETATM   20  H1  UNL     1      -7.505  18.206  66.262  1.00  0.00     0.000 HD 
HETATM   21  H2  UNL     1      -9.095  18.065  65.697  1.00  0.00     0.000 HD 
HETATM   22  C   UNL     1      -7.271  14.498  67.920  1.00  0.00    -0.158 C  
HETATM   23  C   UNL     1      -8.389  16.424  66.771  1.00  0.00    -0.250 C  
HETATM   24  C   UNL     1      -8.376  13.501  67.428  1.00  0.00    -0.194 C  
BRANCH  24  25
HETATM   25  O   UNL     1      -8.595  12.369  68.313  1.00  0.00    -0.177 OA 
BRANCH  25  26
HETATM   26  C   UNL     1      -7.844  11.181  68.033  1.00  0.00    -0.114 C  
HETATM   27  O   UNL     1      -7.765  10.336  69.183  1.00  0.00    -0.097 OA 
HETATM   28  C   UNL     1      -9.042   9.820  69.584  1.00  0.00    -0.220 C  
HETATM   29  C   UNL     1      -9.591   8.889  68.494  1.00  0.00    -0.157 C  
HETATM   30  H2  UNL     1      -7.714  11.628  65.326  1.00  0.00     0.000 HD 
HETATM   31  C   UNL     1      -9.730   9.681  67.193  1.00  0.00    -0.174 C  
HETATM   32  O   UNL     1     -10.891   8.359  68.795  1.00  0.00    -0.418 OA 
HETATM   33  H1  UNL     1      -8.961  10.650  64.790  1.00  0.00     0.000 HD 
HETATM   34  H   UNL     1     -11.230   7.783  68.120  1.00  0.00     0.000 HD 
HETATM   35  H   UNL     1     -10.213   9.280  65.328  1.00  0.00     0.000 HD 
HETATM   36  N   UNL     1      -8.589  11.174  65.582  1.00  0.00    -0.133 NA 
HETATM   37  O   UNL     1     -10.127   8.788  66.137  1.00  0.00    -0.269 OA 
HETATM   38  C   UNL     1      -8.413  10.380  66.821  1.00  0.00    -0.125 C  
BRANCH  28  39
HETATM   39  C   UNL     1      -8.857   9.138  70.950  1.00  0.00    -0.233 C  
HETATM   40  H2  UNL     1     -10.632   8.087  70.928  1.00  0.00     0.000 HD 
HETATM   41  N   UNL     1     -10.115   8.693  71.565  1.00  0.00    -0.247 NA 
HETATM   42  H1  UNL     1      -9.992   8.241  72.471  1.00  0.00     0.000 HD 
ENDBRANCH  28  39
ENDBRANCH  25  26
ENDBRANCH  24  25
ENDBRANCH  10  11
ENDBRANCH   1  10
BRANCH   5  43
HETATM   43  C   UNL     1     -10.507  15.290  69.149  1.00  0.00    -0.247 C  
HETATM   44  O   UNL     1      -9.793  15.044  70.366  1.00  0.00    -0.444 OA 
HETATM   45  H   UNL     1      -8.970  15.517  70.353  1.00  0.00     0.000 HD 
ENDBRANCH   5  43
TORSDOF 6
ENDMDL
MODEL      274
REMARK 921   NORMALIZED FREE ENERGY PREDICTED BY IDOCK:   -3.19 KCAL/MOL
REMARK 922        TOTAL FREE ENERGY PREDICTED BY IDOCK:   -5.95 KCAL/MOL
REMARK 923 INTER-LIGAND FREE ENERGY PREDICTED BY IDOCK:   -5.91 KCAL/MOL
REMARK 924 INTRA-LIGAND FREE ENERGY PREDICTED BY IDOCK:   -0.04 KCAL/MOL
REMARK 927      BINDING AFFINITY PREDICTED BY RF-SCORE:    0.00 PKD
ROOT
HETATM    1  C   UNL     1      -9.273  10.053  69.288  1.00  0.00    -0.203 C  
HETATM    2  O   UNL     1     -11.887   8.308  70.373  1.00  0.00    -0.477 OA 
HETATM    3  O   UNL     1      -9.247   9.941  70.718  1.00  0.00    -0.033 OA 
HETATM    4  H   UNL     1     -11.975   8.737  67.886  1.00  0.00     0.000 HD 
HETATM    5  C   UNL     1      -9.549   8.581  71.081  1.00  0.00    -0.193 C  
HETATM    6  H   UNL     1     -12.486   7.995  69.706  1.00  0.00     0.000 HD 
HETATM    7  C   UNL     1     -10.510   8.080  70.012  1.00  0.00    -0.228 C  
HETATM    8  O   UNL     1     -11.409   9.432  68.203  1.00  0.00     0.080 OA 
HETATM    9  C   UNL     1     -10.194   8.921  68.773  1.00  0.00    -0.206 C  
ENDROOT
BRANCH   1  10
HETATM   10  O   UNL     1      -7.961   9.877  68.749  1.00  0.00    -0.087 OA 
BRANCH  10  11
HETATM   11  C   UNL     1      -7.839   9.353  67.398  1.00  0.00    -0.102 C  
HETATM   12  O   UNL     1      -7.689   7.053  68.160  1.00  0.00    -0.108 OA 
HETATM   13  H2  UNL     1      -6.380  10.260  63.071  1.00  0.00     0.000 HD 
HETATM   14  H   UNL     1      -7.193   6.243  68.133  1.00  0.00     0.000 HD 
HETATM   15  C   UNL     1      -7.037   8.043  67.354  1.00  0.00    -0.083 C  
HETATM   16  H1  UNL     1      -7.098  11.522  63.944  1.00  0.00     0.000 HD 
HETATM   17  C   UNL     1      -6.281   8.466  65.004  1.00  0.00    -0.052 C  
HETATM   18  N   UNL     1      -6.130   6.210  65.992  1.00  0.00    -0.032 NA 
HETATM   19  N   UNL     1      -6.528  10.677  63.990  1.00  0.00     0.083 NA 
HETATM   20  H1  UNL     1      -6.051   5.817  65.055  1.00  0.00     0.000 HD 
HETATM   21  H2  UNL     1      -6.510   5.538  66.660  1.00  0.00     0.000 HD 
HETATM   22  C   UNL     1      -7.138   9.736  64.936  1.00  0.00    -0.125 C  
HETATM   23  C   UNL     1      -6.918   7.452  65.944  1.00  0.00    -0.061 C  
HETATM   24  C   UNL     1      -7.346  10.391  66.345  1.00  0.00    -0.120 C  
BRANCH  24  25
HETATM   25  O   UNL     1      -8.154  11.598  66.328  1.00  0.00    -0.088 OA 
BRANCH  25  26
HETATM   26  C   UNL     1      -9.572  11.423  66.449  1.00  0.00    -0.205 C  
HETATM   27  O   UNL     1     -10.157  12.470  67.226  1.00  0.00    -0.211 OA 
HETATM   28  C   UNL     1     -10.046  13.757  66.600  1.00  0.00    -0.277 C  
HETATM   29  C   UNL     1     -10.864  13.776  65.302  1.00  0.00    -0.324 C  
HETATM   30  H2  UNL     1      -9.707   9.389  64.608  1.00  0.00     0.000 HD 
HETATM   31  C   UNL     1     -10.329  12.690  64.366  1.00  0.00    -0.360 C  
HETATM   32  O   UNL     1     -10.774  15.017  64.586  1.00  0.00    -0.581 OA 
HETATM   33  H1  UNL     1     -10.192  10.234  63.248  1.00  0.00     0.000 HD 
HETATM   34  H   UNL     1     -11.281  15.028  63.782  1.00  0.00     0.000 HD 
HETATM   35  H   UNL     1     -10.835  11.944  62.618  1.00  0.00     0.000 HD 
HETATM   36  N   UNL     1      -9.724  10.300  64.152  1.00  0.00    -0.310 NA 
HETATM   37  O   UNL     1     -11.167  12.618  63.199  1.00  0.00    -0.362 OA 
HETATM   38  C   UNL     1     -10.286  11.322  65.065  1.00  0.00    -0.301 C  
BRANCH  28  39
HETATM   39  C   UNL     1     -10.488  14.811  67.630  1.00  0.00    -0.254 C  
HETATM   40  H2  UNL     1     -12.416  14.118  67.859  1.00  0.00     0.000 HD 
HETATM   41  N   UNL     1     -11.943  15.005  67.691  1.00  0.00    -0.444 NA 
HETATM   42  H1  UNL     1     -12.235  15.704  68.374  1.00  0.00     0.000 HD 
ENDBRANCH  28  39
ENDBRANCH  25  26
ENDBRANCH  24  25
ENDBRANCH  10  11
ENDBRANCH   1  10
BRANCH   5  43
HETATM   43  C   UNL     1      -8.288   7.712  71.179  1.00  0.00    -0.111 C  
HETATM   44  O   UNL     1      -8.619   6.354  70.872  1.00  0.00    -0.133 OA 
HETATM   45  H   UNL     1      -7.838   5.816  70.932  1.00  0.00     0.000 HD 
ENDBRANCH   5  43
TORSDOF 6
ENDMDL
MODEL      275
REMARK 921   NORMALIZED FREE ENERGY PREDICTED BY IDOCK:   -3.17 KCAL/MOL
REMARK 922        TOTAL FREE ENERGY PREDICTED BY IDOCK:   -5.92 KCAL/MOL
REMARK 923 INTER-LIGAND FREE ENERGY PREDICTED BY IDOCK:   -4.20 KCAL/MOL
REMARK 924 INTRA-LIGAND FREE ENERGY PREDICTED BY IDOCK:   -1.72 KCAL/MOL
REMARK 927      BINDING AFFINITY PREDICTED BY RF-SCORE:    0.00 PKD
ROOT
HETATM    1  C   UNL     1      -7.972   5.596  65.382  1.00  0.00    -0.112 C  
HETATM    2  O   UNL     1      -7.274   2.379  65.842  1.00  0.00    -0.062 OA 
HETATM    3  O   UNL     1      -7.820   4.928  64.122  1.00  0.00    -0.082 OA 
HETATM    4  H   UNL     1      -7.343   3.672  68.009  1.00  0.00     0.000 HD 
HETATM    5  C   UNL     1      -8.529   3.676  64.174  1.00  0.00    -0.090 C  
HETATM    6  H   UNL     1      -7.213   2.089  66.744  1.00  0.00     0.000 HD 
HETATM    7  C   UNL     1      -8.429   3.212  65.620  1.00  0.00    -0.108 C  
HETATM    8  O   UNL     1      -7.170   4.347  67.363  1.00  0.00    -0.067 OA 
HETATM    9  C   UNL     1      -8.255   4.497  66.434  1.00  0.00    -0.106 C  
ENDROOT
BRANCH   1  10
HETATM   10  O   UNL     1      -9.078   6.502  65.336  1.00  0.00     0.055 OA 
BRANCH  10  11
HETATM   11  C   UNL     1      -8.794   7.927  65.269  1.00  0.00     0.077 C  
HETATM   12  O   UNL     1      -8.392   7.869  62.876  1.00  0.00    -0.344 OA 
HETATM   13  H2  UNL     1      -7.169  11.608  67.611  1.00  0.00     0.000 HD 
HETATM   14  H   UNL     1      -7.791   8.082  62.171  1.00  0.00     0.000 HD 
HETATM   15  C   UNL     1      -7.822   8.271  64.129  1.00  0.00    -0.145 C  
HETATM   16  H1  UNL     1      -8.108  10.482  68.461  1.00  0.00     0.000 HD 
HETATM   17  C   UNL     1      -6.968  10.295  65.331  1.00  0.00    -0.139 C  
HETATM   18  N   UNL     1      -6.586  10.010  62.909  1.00  0.00    -0.122 NA 
HETATM   19  N   UNL     1      -7.436  10.629  67.708  1.00  0.00    -0.090 NA 
HETATM   20  H1  UNL     1      -6.391  11.007  62.835  1.00  0.00     0.000 HD 
HETATM   21  H2  UNL     1      -6.920   9.616  62.029  1.00  0.00     0.000 HD 
HETATM   22  C   UNL     1      -7.979  10.074  66.463  1.00  0.00    -0.115 C  
HETATM   23  C   UNL     1      -7.528   9.771  64.016  1.00  0.00    -0.130 C  
HETATM   24  C   UNL     1      -8.370   8.566  66.627  1.00  0.00    -0.112 C  
BRANCH  24  25
HETATM   25  O   UNL     1      -9.329   8.310  67.688  1.00  0.00    -0.136 OA 
BRANCH  25  26
HETATM   26  C   UNL     1      -9.024   7.232  68.582  1.00  0.00    -0.128 C  
HETATM   27  O   UNL     1      -8.237   7.684  69.687  1.00  0.00    -0.124 OA 
HETATM   28  C   UNL     1      -8.940   8.609  70.529  1.00  0.00    -0.164 C  
HETATM   29  C   UNL     1     -10.125   7.903  71.201  1.00  0.00    -0.184 C  
HETATM   30  H2  UNL     1     -10.723   5.445  67.371  1.00  0.00     0.000 HD 
HETATM   31  C   UNL     1     -11.061   7.370  70.115  1.00  0.00    -0.246 C  
HETATM   32  O   UNL     1     -10.912   8.770  72.032  1.00  0.00    -0.339 OA 
HETATM   33  H1  UNL     1     -12.056   5.555  68.377  1.00  0.00     0.000 HD 
HETATM   34  H   UNL     1     -11.646   8.332  72.448  1.00  0.00     0.000 HD 
HETATM   35  H   UNL     1     -12.691   6.270  70.056  1.00  0.00     0.000 HD 
HETATM   36  N   UNL     1     -11.222   6.034  68.038  1.00  0.00    -0.129 NA 
HETATM   37  O   UNL     1     -12.110   6.601  70.731  1.00  0.00    -0.385 OA 
HETATM   38  C   UNL     1     -10.301   6.500  69.101  1.00  0.00    -0.193 C  
BRANCH  28  39
HETATM   39  C   UNL     1      -7.921   9.195  71.522  1.00  0.00     0.140 C  
HETATM   40  H2  UNL     1      -7.225  10.691  70.284  1.00  0.00     0.000 HD 
HETATM   41  N   UNL     1      -6.841   9.958  70.881  1.00  0.00    -0.323 NA 
HETATM   42  H1  UNL     1      -6.166  10.347  71.539  1.00  0.00     0.000 HD 
ENDBRANCH  28  39
ENDBRANCH  25  26
ENDBRANCH  24  25
ENDBRANCH  10  11
ENDBRANCH   1  10
BRANCH   5  43
HETATM   43  C   UNL     1      -9.985   3.815  63.709  1.00  0.00    -0.185 C  
HETATM   44  O   UNL     1     -10.288   2.775  62.772  1.00  0.00    -0.113 OA 
HETATM   45  H   UNL     1     -11.189   2.861  62.485  1.00  0.00     0.000 HD 
ENDBRANCH   5  43
TORSDOF 6
ENDMDL
MODEL      276
REMARK 921   NORMALIZED FREE ENERGY PREDICTED BY IDOCK:   -3.16 KCAL/MOL
REMARK 922        TOTAL FREE ENERGY PREDICTED BY IDOCK:   -5.92 KCAL/MOL
REMARK 923 INTER-LIGAND FREE ENERGY PREDICTED BY IDOCK:   -4.36 KCAL/MOL
REMARK 924 INTRA-LIGAND FREE ENERGY PREDICTED BY IDOCK:   -1.55 KCAL/MOL
REMARK 927      BINDING AFFINITY PREDICTED BY RF-SCORE:    0.00 PKD
ROOT
HETATM    1  C   UNL     1      -8.504   6.441  67.209  1.00  0.00    -0.111 C  
HETATM    2  O   UNL     1      -6.115   5.652  65.036  1.00  0.00    -0.021 OA 
HETATM    3  O   UNL     1      -9.030   6.397  65.875  1.00  0.00    -0.154 OA 
HETATM    4  H   UNL     1      -5.228   5.963  67.379  1.00  0.00     0.000 HD 
HETATM    5  C   UNL     1      -8.528   5.219  65.218  1.00  0.00    -0.147 C  
HETATM    6  H   UNL     1      -5.250   5.508  65.400  1.00  0.00     0.000 HD 
HETATM    7  C   UNL     1      -7.141   4.989  65.802  1.00  0.00    -0.068 C  
HETATM    8  O   UNL     1      -6.036   6.462  67.389  1.00  0.00    -0.018 OA 
HETATM    9  C   UNL     1      -7.189   5.628  67.192  1.00  0.00    -0.075 C  
ENDROOT
BRANCH   1  10
HETATM   10  O   UNL     1      -9.421   5.839  68.126  1.00  0.00    -0.109 OA 
BRANCH  10  11
HETATM   11  C   UNL     1      -8.897   5.334  69.386  1.00  0.00    -0.100 C  
HETATM   12  O   UNL     1      -9.293   3.018  68.776  1.00  0.00    -0.161 OA 
HETATM   13  H2  UNL     1      -8.270   6.267  73.903  1.00  0.00     0.000 HD 
HETATM   14  H   UNL     1      -9.693   2.194  69.026  1.00  0.00     0.000 HD 
HETATM   15  C   UNL     1      -9.545   4.000  69.790  1.00  0.00    -0.210 C  
HETATM   16  H1  UNL     1      -8.072   7.537  72.799  1.00  0.00     0.000 HD 
HETATM   17  C   UNL     1      -9.168   4.438  72.227  1.00  0.00    -0.156 C  
HETATM   18  N   UNL     1      -9.669   2.162  71.415  1.00  0.00    -0.148 NA 
HETATM   19  N   UNL     1      -8.569   6.673  73.017  1.00  0.00    -0.118 NA 
HETATM   20  H1  UNL     1      -9.300   1.783  72.287  1.00  0.00     0.000 HD 
HETATM   21  H2  UNL     1      -9.608   1.492  70.649  1.00  0.00     0.000 HD 
HETATM   22  C   UNL     1      -8.421   5.737  71.898  1.00  0.00    -0.127 C  
HETATM   23  C   UNL     1      -8.990   3.430  71.100  1.00  0.00    -0.098 C  
HETATM   24  C   UNL     1      -8.897   6.373  70.547  1.00  0.00    -0.144 C  
BRANCH  24  25
HETATM   25  O   UNL     1      -8.214   7.607  70.195  1.00  0.00    -0.120 OA 
BRANCH  25  26
HETATM   26  C   UNL     1      -8.773   8.820  70.713  1.00  0.00    -0.189 C  
HETATM   27  O   UNL     1      -7.752   9.682  71.224  1.00  0.00    -0.275 OA 
HETATM   28  C   UNL     1      -6.858  10.151  70.204  1.00  0.00    -0.146 C  
HETATM   29  C   UNL     1      -7.619  11.045  69.217  1.00  0.00    -0.089 C  
HETATM   30  H2  UNL     1     -11.295   8.345  69.734  1.00  0.00     0.000 HD 
HETATM   31  C   UNL     1      -8.751  10.233  68.587  1.00  0.00    -0.133 C  
HETATM   32  O   UNL     1      -6.807  11.526  68.135  1.00  0.00    -0.064 OA 
HETATM   33  H1  UNL     1     -11.262   9.266  68.337  1.00  0.00     0.000 HD 
HETATM   34  H   UNL     1      -7.278  12.080  67.524  1.00  0.00     0.000 HD 
HETATM   35  H   UNL     1     -10.249  10.590  67.361  1.00  0.00     0.000 HD 
HETATM   36  N   UNL     1     -10.697   8.767  69.024  1.00  0.00    -0.166 NA 
HETATM   37  O   UNL     1      -9.545  11.096  67.753  1.00  0.00    -0.167 OA 
HETATM   38  C   UNL     1      -9.637   9.583  69.661  1.00  0.00    -0.202 C  
BRANCH  28  39
HETATM   39  C   UNL     1      -5.685  10.857  70.907  1.00  0.00    -0.062 C  
HETATM   40  H2  UNL     1      -6.723  12.559  71.436  1.00  0.00     0.000 HD 
HETATM   41  N   UNL     1      -5.838  12.315  70.992  1.00  0.00    -0.516 NA 
HETATM   42  H1  UNL     1      -5.060  12.783  71.459  1.00  0.00     0.000 HD 
ENDBRANCH  28  39
ENDBRANCH  25  26
ENDBRANCH  24  25
ENDBRANCH  10  11
ENDBRANCH   1  10
BRANCH   5  43
HETATM   43  C   UNL     1      -9.448   4.007  65.417  1.00  0.00    -0.172 C  
HETATM   44  O   UNL     1      -8.654   2.825  65.573  1.00  0.00    -0.100 OA 
HETATM   45  H   UNL     1      -9.224   2.075  65.696  1.00  0.00     0.000 HD 
ENDBRANCH   5  43
TORSDOF 6
ENDMDL
MODEL      277
REMARK 921   NORMALIZED FREE ENERGY PREDICTED BY IDOCK:   -3.13 KCAL/MOL
REMARK 922        TOTAL FREE ENERGY PREDICTED BY IDOCK:   -5.87 KCAL/MOL
REMARK 923 INTER-LIGAND FREE ENERGY PREDICTED BY IDOCK:   -5.41 KCAL/MOL
REMARK 924 INTRA-LIGAND FREE ENERGY PREDICTED BY IDOCK:   -0.46 KCAL/MOL
REMARK 927      BINDING AFFINITY PREDICTED BY RF-SCORE:    0.00 PKD
ROOT
HETATM    1  C   UNL     1     -10.234   7.641  70.473  1.00  0.00    -0.201 C  
HETATM    2  O   UNL     1     -12.133   8.084  73.166  1.00  0.00    -0.656 OA 
HETATM    3  O   UNL     1      -9.632   8.591  71.364  1.00  0.00    -0.175 OA 
HETATM    4  H   UNL     1     -13.225   6.592  71.447  1.00  0.00     0.000 HD 
HETATM    5  C   UNL     1      -9.718   8.083  72.709  1.00  0.00    -0.280 C  
HETATM    6  H   UNL     1     -12.938   7.582  73.197  1.00  0.00     0.000 HD 
HETATM    7  C   UNL     1     -11.010   7.279  72.758  1.00  0.00    -0.323 C  
HETATM    8  O   UNL     1     -12.604   7.092  70.932  1.00  0.00    -0.329 OA 
HETATM    9  C   UNL     1     -11.245   6.826  71.314  1.00  0.00    -0.276 C  
ENDROOT
BRANCH   1  10
HETATM   10  O   UNL     1      -9.243   6.759  69.941  1.00  0.00    -0.147 OA 
BRANCH  10  11
HETATM   11  C   UNL     1      -9.510   6.121  68.661  1.00  0.00    -0.124 C  
HETATM   12  O   UNL     1     -10.010   3.977  69.684  1.00  0.00    -0.166 OA 
HETATM   13  H2  UNL     1      -8.514   6.129  64.114  1.00  0.00     0.000 HD 
HETATM   14  H   UNL     1      -9.819   3.046  69.700  1.00  0.00     0.000 HD 
HETATM   15  C   UNL     1      -9.200   4.616  68.688  1.00  0.00    -0.126 C  
HETATM   16  H1  UNL     1      -8.633   7.625  64.899  1.00  0.00     0.000 HD 
HETATM   17  C   UNL     1      -8.717   4.567  66.231  1.00  0.00    -0.113 C  
HETATM   18  N   UNL     1      -9.167   2.481  67.471  1.00  0.00    -0.245 NA 
HETATM   19  N   UNL     1      -8.374   6.642  64.983  1.00  0.00    -0.107 NA 
HETATM   20  H1  UNL     1      -9.367   2.014  66.587  1.00  0.00     0.000 HD 
HETATM   21  H2  UNL     1      -9.640   2.036  68.257  1.00  0.00     0.000 HD 
HETATM   22  C   UNL     1      -9.106   6.046  66.106  1.00  0.00    -0.147 C  
HETATM   23  C   UNL     1      -9.500   3.912  67.360  1.00  0.00    -0.195 C  
HETATM   24  C   UNL     1      -8.869   6.840  67.436  1.00  0.00    -0.117 C  
BRANCH  24  25
HETATM   25  O   UNL     1      -9.227   8.246  67.362  1.00  0.00    -0.138 OA 
BRANCH  25  26
HETATM   26  C   UNL     1      -8.218   9.141  66.878  1.00  0.00    -0.116 C  
HETATM   27  O   UNL     1      -8.609  10.505  67.053  1.00  0.00    -0.127 OA 
HETATM   28  C   UNL     1      -8.732  10.877  68.433  1.00  0.00    -0.147 C  
HETATM   29  C   UNL     1      -7.357  10.811  69.113  1.00  0.00    -0.115 C  
HETATM   30  H2  UNL     1      -6.335   7.177  66.502  1.00  0.00     0.000 HD 
HETATM   31  C   UNL     1      -6.820   9.384  69.001  1.00  0.00    -0.054 C  
HETATM   32  O   UNL     1      -7.394  11.128  70.512  1.00  0.00    -0.124 OA 
HETATM   33  H1  UNL     1      -5.435   7.339  67.904  1.00  0.00     0.000 HD 
HETATM   34  H   UNL     1      -6.543  11.087  70.932  1.00  0.00     0.000 HD 
HETATM   35  H   UNL     1      -5.147   8.453  69.456  1.00  0.00     0.000 HD 
HETATM   36  N   UNL     1      -6.344   7.498  67.470  1.00  0.00    -0.054 NA 
HETATM   37  O   UNL     1      -5.481   9.340  69.526  1.00  0.00    -0.034 OA 
HETATM   38  C   UNL     1      -6.827   8.897  67.543  1.00  0.00    -0.071 C  
BRANCH  28  39
HETATM   39  C   UNL     1      -9.383  12.270  68.480  1.00  0.00    -0.099 C  
HETATM   40  H2  UNL     1      -7.625  13.348  68.484  1.00  0.00     0.000 HD 
HETATM   41  N   UNL     1      -8.500  13.319  69.007  1.00  0.00    -0.303 NA 
HETATM   42  H1  UNL     1      -8.932  14.243  69.038  1.00  0.00     0.000 HD 
ENDBRANCH  28  39
ENDBRANCH  25  26
ENDBRANCH  24  25
ENDBRANCH  10  11
ENDBRANCH   1  10
BRANCH   5  43
HETATM   43  C   UNL     1      -8.495   7.238  73.088  1.00  0.00    -0.123 C  
HETATM   44  O   UNL     1      -8.038   7.617  74.391  1.00  0.00    -0.177 OA 
HETATM   45  H   UNL     1      -7.281   7.094  74.626  1.00  0.00     0.000 HD 
ENDBRANCH   5  43
TORSDOF 6
ENDMDL
MODEL      278
REMARK 921   NORMALIZED FREE ENERGY PREDICTED BY IDOCK:   -3.08 KCAL/MOL
REMARK 922        TOTAL FREE ENERGY PREDICTED BY IDOCK:   -5.80 KCAL/MOL
REMARK 923 INTER-LIGAND FREE ENERGY PREDICTED BY IDOCK:   -5.18 KCAL/MOL
REMARK 924 INTRA-LIGAND FREE ENERGY PREDICTED BY IDOCK:   -0.63 KCAL/MOL
REMARK 927      BINDING AFFINITY PREDICTED BY RF-SCORE:    0.00 PKD
ROOT
HETATM    1  C   UNL     1      -7.945  10.419  68.436  1.00  0.00    -0.110 C  
HETATM    2  O   UNL     1      -7.040   7.225  68.614  1.00  0.00    -0.079 OA 
HETATM    3  O   UNL     1      -9.098   9.574  68.564  1.00  0.00    -0.130 OA 
HETATM    4  H   UNL     1      -5.086   8.761  68.169  1.00  0.00     0.000 HD 
HETATM    5  C   UNL     1      -8.839   8.590  69.583  1.00  0.00    -0.137 C  
HETATM    6  H   UNL     1      -6.107   7.052  68.568  1.00  0.00     0.000 HD 
HETATM    7  C   UNL     1      -7.345   8.312  69.509  1.00  0.00    -0.074 C  
HETATM    8  O   UNL     1      -5.830   9.268  67.865  1.00  0.00    -0.041 OA 
HETATM    9  C   UNL     1      -6.735   9.593  68.932  1.00  0.00    -0.046 C  
ENDROOT
BRANCH   1  10
HETATM   10  O   UNL     1      -8.088  11.584  69.252  1.00  0.00     0.058 OA 
BRANCH  10  11
HETATM   11  C   UNL     1      -7.171  12.691  69.032  1.00  0.00     0.009 C  
HETATM   12  O   UNL     1      -5.898  12.209  71.042  1.00  0.00    -0.445 OA 
HETATM   13  H2  UNL     1      -6.683  16.930  67.170  1.00  0.00     0.000 HD 
HETATM   14  H   UNL     1      -5.549  12.552  71.857  1.00  0.00     0.000 HD 
HETATM   15  C   UNL     1      -6.606  13.246  70.350  1.00  0.00     0.459 C  
HETATM   16  H1  UNL     1      -7.622  15.799  66.327  1.00  0.00     0.000 HD 
HETATM   17  C   UNL     1      -6.270  15.524  69.365  1.00  0.00    -0.132 C  
HETATM   18  N   UNL     1      -5.130  14.870  71.454  1.00  0.00    -0.146 NA 
HETATM   19  N   UNL     1      -7.317  16.135  67.241  1.00  0.00    -0.171 NA 
HETATM   20  H1  UNL     1      -4.469  15.635  71.318  1.00  0.00     0.000 HD 
HETATM   21  H2  UNL     1      -4.735  14.116  72.016  1.00  0.00     0.000 HD 
HETATM   22  C   UNL     1      -6.729  15.019  67.991  1.00  0.00    -0.145 C  
HETATM   23  C   UNL     1      -5.612  14.395  70.146  1.00  0.00    -0.119 C  
HETATM   24  C   UNL     1      -7.723  13.812  68.101  1.00  0.00    -0.140 C  
BRANCH  24  25
HETATM   25  O   UNL     1      -8.183  13.300  66.821  1.00  0.00    -0.028 OA 
BRANCH  25  26
HETATM   26  C   UNL     1      -9.474  13.740  66.381  1.00  0.00    -0.243 C  
HETATM   27  O   UNL     1      -9.946  12.946  65.290  1.00  0.00    -0.258 OA 
HETATM   28  C   UNL     1     -10.183  11.579  65.659  1.00  0.00    -0.248 C  
HETATM   29  C   UNL     1     -11.329  11.507  66.677  1.00  0.00    -0.214 C  
HETATM   30  H2  UNL     1      -9.859  15.459  68.488  1.00  0.00     0.000 HD 
HETATM   31  C   UNL     1     -10.945  12.323  67.911  1.00  0.00    -0.224 C  
HETATM   32  O   UNL     1     -11.606  10.175  67.134  1.00  0.00    -0.213 OA 
HETATM   33  H1  UNL     1     -10.813  14.515  69.487  1.00  0.00     0.000 HD 
HETATM   34  H   UNL     1     -12.316  10.130  67.764  1.00  0.00     0.000 HD 
HETATM   35  H   UNL     1     -11.823  12.870  69.585  1.00  0.00     0.000 HD 
HETATM   36  N   UNL     1     -10.122  14.506  68.737  1.00  0.00    -0.238 NA 
HETATM   37  O   UNL     1     -12.062  12.363  68.818  1.00  0.00    -0.269 OA 
HETATM   38  C   UNL     1     -10.531  13.753  67.529  1.00  0.00    -0.245 C  
BRANCH  28  39
HETATM   39  C   UNL     1     -10.449  10.791  64.365  1.00  0.00    -0.274 C  
HETATM   40  H2  UNL     1     -10.667  12.431  63.134  1.00  0.00     0.000 HD 
HETATM   41  N   UNL     1     -11.160  11.562  63.337  1.00  0.00    -0.724 NA 
HETATM   42  H1  UNL     1     -11.336  11.039  62.479  1.00  0.00     0.000 HD 
ENDBRANCH  28  39
ENDBRANCH  25  26
ENDBRANCH  24  25
ENDBRANCH  10  11
ENDBRANCH   1  10
BRANCH   5  43
HETATM   43  C   UNL     1      -9.272   9.069  70.975  1.00  0.00    -0.264 C  
HETATM   44  O   UNL     1      -8.172   8.947  71.884  1.00  0.00    -0.345 OA 
HETATM   45  H   UNL     1      -8.440   9.244  72.746  1.00  0.00     0.000 HD 
ENDBRANCH   5  43
TORSDOF 6
ENDMDL
MODEL      279
REMARK 921   NORMALIZED FREE ENERGY PREDICTED BY IDOCK:   -3.03 KCAL/MOL
REMARK 922        TOTAL FREE ENERGY PREDICTED BY IDOCK:   -5.73 KCAL/MOL
REMARK 923 INTER-LIGAND FREE ENERGY PREDICTED BY IDOCK:   -6.32 KCAL/MOL
REMARK 924 INTRA-LIGAND FREE ENERGY PREDICTED BY IDOCK:    0.59 KCAL/MOL
REMARK 927      BINDING AFFINITY PREDICTED BY RF-SCORE:    0.00 PKD
ROOT
HETATM    1  C   UNL     1      -9.493   7.735  68.466  1.00  0.00    -0.148 C  
HETATM    2  O   UNL     1      -9.049   6.053  65.633  1.00  0.00    -0.298 OA 
HETATM    3  O   UNL     1      -8.180   7.157  68.422  1.00  0.00    -0.122 OA 
HETATM    4  H   UNL     1     -11.408   6.917  65.886  1.00  0.00     0.000 HD 
HETATM    5  C   UNL     1      -7.617   7.388  67.118  1.00  0.00    -0.107 C  
HETATM    6  H   UNL     1      -9.786   6.043  65.033  1.00  0.00     0.000 HD 
HETATM    7  C   UNL     1      -8.797   7.372  66.157  1.00  0.00    -0.160 C  
HETATM    8  O   UNL     1     -11.096   6.884  66.782  1.00  0.00    -0.321 OA 
HETATM    9  C   UNL     1     -10.001   7.788  67.006  1.00  0.00    -0.244 C  
ENDROOT
BRANCH   1  10
HETATM   10  O   UNL     1      -9.437   9.061  68.996  1.00  0.00    -0.153 OA 
BRANCH  10  11
HETATM   11  C   UNL     1      -8.143   9.722  69.052  1.00  0.00    -0.101 C  
HETATM   12  O   UNL     1      -7.288   8.197  70.736  1.00  0.00    -0.054 OA 
HETATM   13  H2  UNL     1      -5.895  13.762  68.504  1.00  0.00     0.000 HD 
HETATM   14  H   UNL     1      -6.879   8.112  71.589  1.00  0.00     0.000 HD 
HETATM   15  C   UNL     1      -7.481   9.585  70.433  1.00  0.00    -0.151 C  
HETATM   16  H1  UNL     1      -7.157  13.407  67.430  1.00  0.00     0.000 HD 
HETATM   17  C   UNL     1      -6.206  11.722  70.148  1.00  0.00    -0.104 C  
HETATM   18  N   UNL     1      -5.546  10.077  71.865  1.00  0.00    -0.279 NA 
HETATM   19  N   UNL     1      -6.797  13.303  68.379  1.00  0.00    -0.088 NA 
HETATM   20  H1  UNL     1      -4.628  10.518  71.917  1.00  0.00     0.000 HD 
HETATM   21  H2  UNL     1      -5.519   9.098  72.149  1.00  0.00     0.000 HD 
HETATM   22  C   UNL     1      -6.748  11.878  68.721  1.00  0.00    -0.088 C  
HETATM   23  C   UNL     1      -6.101  10.248  70.512  1.00  0.00    -0.114 C  
HETATM   24  C   UNL     1      -8.146  11.193  68.536  1.00  0.00    -0.146 C  
BRANCH  24  25
HETATM   25  O   UNL     1      -8.697  11.315  67.197  1.00  0.00    -0.144 OA 
BRANCH  25  26
HETATM   26  C   UNL     1     -10.123  11.406  67.096  1.00  0.00    -0.198 C  
HETATM   27  O   UNL     1     -10.625  12.510  67.852  1.00  0.00    -0.209 OA 
HETATM   28  C   UNL     1     -10.186  13.779  67.343  1.00  0.00    -0.252 C  
HETATM   29  C   UNL     1     -10.774  14.008  65.944  1.00  0.00    -0.293 C  
HETATM   30  H2  UNL     1     -10.332   9.515  65.114  1.00  0.00     0.000 HD 
HETATM   31  C   UNL     1     -10.303  12.883  65.021  1.00  0.00    -0.315 C  
HETATM   32  O   UNL     1     -10.350  15.239  65.340  1.00  0.00    -0.340 OA 
HETATM   33  H1  UNL     1     -10.437  10.495  63.762  1.00  0.00     0.000 HD 
HETATM   34  H   UNL     1     -10.714  15.381  64.474  1.00  0.00     0.000 HD 
HETATM   35  H   UNL     1     -10.654  12.321  63.168  1.00  0.00     0.000 HD 
HETATM   36  N   UNL     1     -10.113  10.433  64.727  1.00  0.00    -0.347 NA 
HETATM   37  O   UNL     1     -10.947  13.021  63.742  1.00  0.00    -0.392 OA 
HETATM   38  C   UNL     1     -10.618  11.502  65.619  1.00  0.00    -0.274 C  
BRANCH  28  39
HETATM   39  C   UNL     1     -10.587  14.852  68.370  1.00  0.00    -0.244 C  
HETATM   40  H2  UNL     1     -12.623  14.547  68.242  1.00  0.00     0.000 HD 
HETATM   41  N   UNL     1     -11.968  15.329  68.219  1.00  0.00    -0.529 NA 
HETATM   42  H1  UNL     1     -12.234  16.041  68.901  1.00  0.00     0.000 HD 
ENDBRANCH  28  39
ENDBRANCH  25  26
ENDBRANCH  24  25
ENDBRANCH  10  11
ENDBRANCH   1  10
BRANCH   5  43
HETATM   43  C   UNL     1      -6.833   8.706  67.050  1.00  0.00    -0.067 C  
HETATM   44  O   UNL     1      -5.449   8.453  67.314  1.00  0.00    -0.036 OA 
HETATM   45  H   UNL     1      -4.964   9.268  67.272  1.00  0.00     0.000 HD 
ENDBRANCH   5  43
TORSDOF 6
ENDMDL
MODEL      280
REMARK 921   NORMALIZED FREE ENERGY PREDICTED BY IDOCK:   -3.01 KCAL/MOL
REMARK 922        TOTAL FREE ENERGY PREDICTED BY IDOCK:   -5.71 KCAL/MOL
REMARK 923 INTER-LIGAND FREE ENERGY PREDICTED BY IDOCK:   -6.12 KCAL/MOL
REMARK 924 INTRA-LIGAND FREE ENERGY PREDICTED BY IDOCK:    0.41 KCAL/MOL
REMARK 927      BINDING AFFINITY PREDICTED BY RF-SCORE:    0.00 PKD
ROOT
HETATM    1  C   UNL     1     -11.157  14.861  69.757  1.00  0.00    -0.274 C  
HETATM    2  O   UNL     1     -13.844  15.921  71.402  1.00  0.00    -0.427 OA 
HETATM    3  O   UNL     1     -11.069  14.512  71.145  1.00  0.00     0.038 OA 
HETATM    4  H   UNL     1     -13.819  16.686  68.996  1.00  0.00     0.000 HD 
HETATM    5  C   UNL     1     -12.339  13.986  71.571  1.00  0.00    -0.284 C  
HETATM    6  H   UNL     1     -14.495  16.382  70.887  1.00  0.00     0.000 HD 
HETATM    7  C   UNL     1     -13.382  14.724  70.745  1.00  0.00    -0.255 C  
HETATM    8  O   UNL     1     -12.902  16.519  69.176  1.00  0.00     1.007 OA 
HETATM    9  C   UNL     1     -12.651  15.133  69.464  1.00  0.00     0.011 C  
ENDROOT
BRANCH   1  10
HETATM   10  O   UNL     1     -10.705  13.779  68.940  1.00  0.00    -0.248 OA 
BRANCH  10  11
HETATM   11  C   UNL     1     -10.188  14.088  67.616  1.00  0.00    -0.241 C  
HETATM   12  O   UNL     1     -10.171  16.479  68.036  1.00  0.00    -0.253 OA 
HETATM   13  H2  UNL     1     -10.003  12.707  63.174  1.00  0.00     0.000 HD 
HETATM   14  H   UNL     1     -10.450  17.335  67.734  1.00  0.00     0.000 HD 
HETATM   15  C   UNL     1     -10.639  15.474  67.127  1.00  0.00    -0.300 C  
HETATM   16  H1  UNL     1      -9.941  11.515  64.376  1.00  0.00     0.000 HD 
HETATM   17  C   UNL     1     -10.491  14.787  64.723  1.00  0.00    -0.317 C  
HETATM   18  N   UNL     1     -10.572  17.172  65.353  1.00  0.00    -0.626 NA 
HETATM   19  N   UNL     1     -10.307  12.428  64.106  1.00  0.00    -0.365 NA 
HETATM   20  H1  UNL     1     -10.203  17.414  64.434  1.00  0.00     0.000 HD 
HETATM   21  H2  UNL     1     -10.357  17.882  66.053  1.00  0.00     0.000 HD 
HETATM   22  C   UNL     1      -9.941  13.414  65.129  1.00  0.00    -0.167 C  
HETATM   23  C   UNL     1     -10.085  15.839  65.746  1.00  0.00    -0.371 C  
HETATM   24  C   UNL     1     -10.427  12.974  66.553  1.00  0.00    -0.277 C  
BRANCH  24  25
HETATM   25  O   UNL     1      -9.927  11.677  66.979  1.00  0.00    -0.200 OA 
BRANCH  25  26
HETATM   26  C   UNL     1     -10.738  10.540  66.657  1.00  0.00    -0.155 C  
HETATM   27  O   UNL     1     -10.047   9.646  65.781  1.00  0.00    -0.290 OA 
HETATM   28  C   UNL     1      -8.890   9.053  66.389  1.00  0.00    -0.146 C  
HETATM   29  C   UNL     1      -9.321   8.150  67.553  1.00  0.00    -0.140 C  
HETATM   30  H2  UNL     1     -12.689  11.121  68.500  1.00  0.00     0.000 HD 
HETATM   31  C   UNL     1     -10.077   8.996  68.579  1.00  0.00    -0.190 C  
HETATM   32  O   UNL     1      -8.219   7.548  68.248  1.00  0.00    -0.123 OA 
HETATM   33  H1  UNL     1     -12.237  10.113  69.757  1.00  0.00     0.000 HD 
HETATM   34  H   UNL     1      -8.486   6.989  68.969  1.00  0.00     0.000 HD 
HETATM   35  H   UNL     1     -11.060   8.663  70.251  1.00  0.00     0.000 HD 
HETATM   36  N   UNL     1     -11.916  10.615  68.930  1.00  0.00    -0.343 NA 
HETATM   37  O   UNL     1     -10.590   8.137  69.614  1.00  0.00    -0.227 OA 
HETATM   38  C   UNL     1     -11.230   9.772  67.923  1.00  0.00     0.034 C  
BRANCH  28  39
HETATM   39  C   UNL     1      -8.114   8.316  65.284  1.00  0.00    -0.142 C  
HETATM   40  H2  UNL     1      -9.364   6.679  65.174  1.00  0.00     0.000 HD 
HETATM   41  N   UNL     1      -8.365   6.869  65.249  1.00  0.00    -0.222 NA 
HETATM   42  H1  UNL     1      -7.850   6.380  64.516  1.00  0.00     0.000 HD 
ENDBRANCH  28  39
ENDBRANCH  25  26
ENDBRANCH  24  25
ENDBRANCH  10  11
ENDBRANCH   1  10
BRANCH   5  43
HETATM   43  C   UNL     1     -12.427  12.465  71.389  1.00  0.00    -0.100 C  
HETATM   44  O   UNL     1     -13.510  11.952  72.174  1.00  0.00    -0.522 OA 
HETATM   45  H   UNL     1     -13.564  11.010  72.061  1.00  0.00     0.000 HD 
ENDBRANCH   5  43
TORSDOF 6
ENDMDL
MODEL      281
REMARK 921   NORMALIZED FREE ENERGY PREDICTED BY IDOCK:   -2.98 KCAL/MOL
REMARK 922        TOTAL FREE ENERGY PREDICTED BY IDOCK:   -5.67 KCAL/MOL
REMARK 923 INTER-LIGAND FREE ENERGY PREDICTED BY IDOCK:   -5.23 KCAL/MOL
REMARK 924 INTRA-LIGAND FREE ENERGY PREDICTED BY IDOCK:   -0.44 KCAL/MOL
REMARK 927      BINDING AFFINITY PREDICTED BY RF-SCORE:    0.00 PKD
ROOT
HETATM    1  C   UNL     1      -6.986  14.979  67.513  1.00  0.00    -0.186 C  
HETATM    2  O   UNL     1      -5.524  16.307  70.187  1.00  0.00    -0.164 OA 
HETATM    3  O   UNL     1      -5.713  14.362  67.751  1.00  0.00    -0.245 OA 
HETATM    4  H   UNL     1      -7.669  17.487  69.572  1.00  0.00     0.000 HD 
HETATM    5  C   UNL     1      -5.593  14.076  69.157  1.00  0.00    -0.081 C  
HETATM    6  H   UNL     1      -6.006  16.996  70.628  1.00  0.00     0.000 HD 
HETATM    7  C   UNL     1      -6.365  15.182  69.863  1.00  0.00    -0.164 C  
HETATM    8  O   UNL     1      -7.408  17.078  68.755  1.00  0.00    -0.214 OA 
HETATM    9  C   UNL     1      -7.410  15.644  68.843  1.00  0.00    -0.153 C  
ENDROOT
BRANCH   1  10
HETATM   10  O   UNL     1      -7.956  13.996  67.145  1.00  0.00    -0.157 OA 
BRANCH  10  11
HETATM   11  C   UNL     1      -9.361  14.367  67.199  1.00  0.00    -0.220 C  
HETATM   12  O   UNL     1      -9.061  16.240  65.683  1.00  0.00    -0.428 OA 
HETATM   13  H2  UNL     1     -13.220  14.335  69.804  1.00  0.00     0.000 HD 
HETATM   14  H   UNL     1      -9.192  17.171  65.543  1.00  0.00     0.000 HD 
HETATM   15  C   UNL     1      -9.572  15.873  66.972  1.00  0.00    -0.223 C  
HETATM   16  H1  UNL     1     -12.202  12.983  69.882  1.00  0.00     0.000 HD 
HETATM   17  C   UNL     1     -11.687  15.883  68.315  1.00  0.00    -0.191 C  
HETATM   18  N   UNL     1     -11.157  17.740  66.778  1.00  0.00     0.202 NA 
HETATM   19  N   UNL     1     -12.260  13.994  69.757  1.00  0.00    -0.342 NA 
HETATM   20  H1  UNL     1     -12.139  18.016  66.793  1.00  0.00     0.000 HD 
HETATM   21  H2  UNL     1     -10.687  18.039  65.924  1.00  0.00     0.000 HD 
HETATM   22  C   UNL     1     -11.598  14.363  68.501  1.00  0.00    -0.314 C  
HETATM   23  C   UNL     1     -11.048  16.288  66.994  1.00  0.00     0.017 C  
HETATM   24  C   UNL     1     -10.121  13.841  68.454  1.00  0.00    -0.241 C  
BRANCH  24  25
HETATM   25  O   UNL     1      -9.990  12.404  68.625  1.00  0.00    -0.196 OA 
BRANCH  25  26
HETATM   26  C   UNL     1     -10.531  11.582  67.582  1.00  0.00    -0.189 C  
HETATM   27  O   UNL     1      -9.512  11.175  66.666  1.00  0.00    -0.177 OA 
HETATM   28  C   UNL     1      -8.529  10.321  67.269  1.00  0.00    -0.125 C  
HETATM   29  C   UNL     1      -9.180   8.997  67.691  1.00  0.00    -0.136 C  
HETATM   30  H2  UNL     1     -12.996  11.310  68.762  1.00  0.00     0.000 HD 
HETATM   31  C   UNL     1     -10.299   9.294  68.690  1.00  0.00    -0.205 C  
HETATM   32  O   UNL     1      -8.273   8.096  68.345  1.00  0.00    -0.126 OA 
HETATM   33  H1  UNL     1     -12.826   9.814  69.493  1.00  0.00     0.000 HD 
HETATM   34  H   UNL     1      -8.676   7.276  68.606  1.00  0.00     0.000 HD 
HETATM   35  H   UNL     1     -11.690   8.257  69.618  1.00  0.00     0.000 HD 
HETATM   36  N   UNL     1     -12.333  10.632  69.135  1.00  0.00    -0.287 NA 
HETATM   37  O   UNL     1     -10.994   8.072  68.998  1.00  0.00    -0.062 OA 
HETATM   38  C   UNL     1     -11.286  10.331  68.131  1.00  0.00    -0.229 C  
BRANCH  28  39
HETATM   39  C   UNL     1      -7.379  10.156  66.260  1.00  0.00    -0.112 C  
HETATM   40  H2  UNL     1      -5.890  10.892  67.482  1.00  0.00     0.000 HD 
HETATM   41  N   UNL     1      -6.226  11.026  66.529  1.00  0.00    -0.120 NA 
HETATM   42  H1  UNL     1      -5.464  10.916  65.860  1.00  0.00     0.000 HD 
ENDBRANCH  28  39
ENDBRANCH  25  26
ENDBRANCH  24  25
ENDBRANCH  10  11
ENDBRANCH   1  10
BRANCH   5  43
HETATM   43  C   UNL     1      -6.124  12.681  69.513  1.00  0.00    -0.119 C  
HETATM   44  O   UNL     1      -5.144  11.696  69.170  1.00  0.00    -0.048 OA 
HETATM   45  H   UNL     1      -5.472  10.832  69.390  1.00  0.00     0.000 HD 
ENDBRANCH   5  43
TORSDOF 6
ENDMDL
MODEL      282
REMARK 921   NORMALIZED FREE ENERGY PREDICTED BY IDOCK:   -2.98 KCAL/MOL
REMARK 922        TOTAL FREE ENERGY PREDICTED BY IDOCK:   -5.67 KCAL/MOL
REMARK 923 INTER-LIGAND FREE ENERGY PREDICTED BY IDOCK:   -5.82 KCAL/MOL
REMARK 924 INTRA-LIGAND FREE ENERGY PREDICTED BY IDOCK:    0.16 KCAL/MOL
REMARK 927      BINDING AFFINITY PREDICTED BY RF-SCORE:    0.00 PKD
ROOT
HETATM    1  C   UNL     1      -9.262  11.738  66.553  1.00  0.00    -0.201 C  
HETATM    2  O   UNL     1      -8.951  14.945  67.373  1.00  0.00    -0.175 OA 
HETATM    3  O   UNL     1      -7.878  12.098  66.666  1.00  0.00    -0.056 OA 
HETATM    4  H   UNL     1     -11.349  14.285  66.940  1.00  0.00     0.000 HD 
HETATM    5  C   UNL     1      -7.701  12.885  67.858  1.00  0.00    -0.143 C  
HETATM    6  H   UNL     1      -9.761  15.430  67.479  1.00  0.00     0.000 HD 
HETATM    7  C   UNL     1      -8.999  13.662  68.029  1.00  0.00    -0.188 C  
HETATM    8  O   UNL     1     -10.858  13.628  66.462  1.00  0.00    -0.282 OA 
HETATM    9  C   UNL     1     -10.062  12.808  67.333  1.00  0.00    -0.219 C  
ENDROOT
BRANCH   1  10
HETATM   10  O   UNL     1      -9.494  10.455  67.139  1.00  0.00    -0.156 OA 
BRANCH  10  11
HETATM   11  C   UNL     1      -8.585   9.372  66.798  1.00  0.00    -0.127 C  
HETATM   12  O   UNL     1      -8.852   9.723  64.411  1.00  0.00    -0.195 OA 
HETATM   13  H2  UNL     1      -6.848   5.275  68.166  1.00  0.00     0.000 HD 
HETATM   14  H   UNL     1      -9.064   9.327  63.574  1.00  0.00     0.000 HD 
HETATM   15  C   UNL     1      -8.929   8.732  65.444  1.00  0.00    -0.160 C  
HETATM   16  H1  UNL     1      -7.119   6.454  69.351  1.00  0.00     0.000 HD 
HETATM   17  C   UNL     1      -7.948   6.529  66.121  1.00  0.00    -0.110 C  
HETATM   18  N   UNL     1      -8.375   7.044  63.745  1.00  0.00    -0.346 NA 
HETATM   19  N   UNL     1      -7.428   6.059  68.463  1.00  0.00    -0.085 NA 
HETATM   20  H1  UNL     1      -7.736   6.296  63.480  1.00  0.00     0.000 HD 
HETATM   21  H2  UNL     1      -8.449   7.761  63.023  1.00  0.00     0.000 HD 
HETATM   22  C   UNL     1      -7.484   7.124  67.456  1.00  0.00    -0.101 C  
HETATM   23  C   UNL     1      -7.969   7.605  65.045  1.00  0.00    -0.131 C  
HETATM   24  C   UNL     1      -8.389   8.314  67.926  1.00  0.00    -0.128 C  
BRANCH  24  25
HETATM   25  O   UNL     1      -7.984   8.910  69.188  1.00  0.00    -0.101 OA 
BRANCH  25  26
HETATM   26  C   UNL     1      -9.002   9.051  70.187  1.00  0.00    -0.184 C  
HETATM   27  O   UNL     1     -10.215   8.414  69.780  1.00  0.00    -0.197 OA 
HETATM   28  C   UNL     1     -10.083   6.990  69.657  1.00  0.00    -0.186 C  
HETATM   29  C   UNL     1      -9.800   6.374  71.033  1.00  0.00    -0.180 C  
HETATM   30  H2  UNL     1      -7.311  10.082  72.090  1.00  0.00     0.000 HD 
HETATM   31  C   UNL     1      -8.506   6.973  71.585  1.00  0.00    -0.115 C  
HETATM   32  O   UNL     1      -9.610   4.951  70.995  1.00  0.00    -0.154 OA 
HETATM   33  H1  UNL     1      -6.985   8.710  72.990  1.00  0.00     0.000 HD 
HETATM   34  H   UNL     1      -9.435   4.570  71.847  1.00  0.00     0.000 HD 
HETATM   35  H   UNL     1      -7.493   6.866  73.269  1.00  0.00     0.000 HD 
HETATM   36  N   UNL     1      -7.276   9.063  72.079  1.00  0.00    -0.325 NA 
HETATM   37  O   UNL     1      -8.297   6.493  72.926  1.00  0.00    -0.116 OA 
HETATM   38  C   UNL     1      -8.556   8.509  71.581  1.00  0.00    -0.187 C  
BRANCH  28  39
HETATM   39  C   UNL     1     -11.366   6.464  68.990  1.00  0.00    -0.255 C  
HETATM   40  H2  UNL     1     -10.501   5.956  67.189  1.00  0.00     0.000 HD 
HETATM   41  N   UNL     1     -11.316   6.470  67.522  1.00  0.00    -0.732 NA 
HETATM   42  H1  UNL     1     -12.167   6.120  67.081  1.00  0.00     0.000 HD 
ENDBRANCH  28  39
ENDBRANCH  25  26
ENDBRANCH  24  25
ENDBRANCH  10  11
ENDBRANCH   1  10
BRANCH   5  43
HETATM   43  C   UNL     1      -7.380  12.019  69.083  1.00  0.00     0.048 C  
HETATM   44  O   UNL     1      -6.496  12.732  69.955  1.00  0.00    -0.339 OA 
HETATM   45  H   UNL     1      -6.298  12.196  70.713  1.00  0.00     0.000 HD 
ENDBRANCH   5  43
TORSDOF 6
ENDMDL
MODEL      283
REMARK 921   NORMALIZED FREE ENERGY PREDICTED BY IDOCK:   -2.97 KCAL/MOL
REMARK 922        TOTAL FREE ENERGY PREDICTED BY IDOCK:   -5.65 KCAL/MOL
REMARK 923 INTER-LIGAND FREE ENERGY PREDICTED BY IDOCK:   -4.44 KCAL/MOL
REMARK 924 INTRA-LIGAND FREE ENERGY PREDICTED BY IDOCK:   -1.21 KCAL/MOL
REMARK 927      BINDING AFFINITY PREDICTED BY RF-SCORE:    0.00 PKD
ROOT
HETATM    1  C   UNL     1      -8.967   5.295  67.154  1.00  0.00    -0.112 C  
HETATM    2  O   UNL     1     -11.373   4.241  65.116  1.00  0.00    -0.953 OA 
HETATM    3  O   UNL     1      -8.618   4.030  66.572  1.00  0.00    -0.108 OA 
HETATM    4  H   UNL     1     -12.004   6.353  66.347  1.00  0.00     0.000 HD 
HETATM    5  C   UNL     1      -8.922   4.069  65.166  1.00  0.00    -0.133 C  
HETATM    6  H   UNL     1     -12.131   4.808  65.036  1.00  0.00     0.000 HD 
HETATM    7  C   UNL     1     -10.136   4.977  65.037  1.00  0.00     0.322 C  
HETATM    8  O   UNL     1     -11.334   5.973  66.904  1.00  0.00    -0.133 OA 
HETATM    9  C   UNL     1     -10.058   5.912  66.247  1.00  0.00    -0.046 C  
ENDROOT
BRANCH   1  10
HETATM   10  O   UNL     1      -7.830   6.161  67.183  1.00  0.00    -0.100 OA 
BRANCH  10  11
HETATM   11  C   UNL     1      -8.062   7.592  67.307  1.00  0.00    -0.115 C  
HETATM   12  O   UNL     1      -7.619   8.003  64.956  1.00  0.00    -0.091 OA 
HETATM   13  H2  UNL     1      -7.877  11.252  70.179  1.00  0.00     0.000 HD 
HETATM   14  H   UNL     1      -7.118   8.504  64.323  1.00  0.00     0.000 HD 
HETATM   15  C   UNL     1      -7.251   8.402  66.283  1.00  0.00    -0.078 C  
HETATM   16  H1  UNL     1      -8.378   9.766  70.822  1.00  0.00     0.000 HD 
HETATM   17  C   UNL     1      -7.184  10.413  67.775  1.00  0.00    -0.086 C  
HETATM   18  N   UNL     1      -6.680  10.609  65.367  1.00  0.00    -0.316 NA 
HETATM   19  N   UNL     1      -7.786  10.237  70.138  1.00  0.00    -0.152 NA 
HETATM   20  H1  UNL     1      -6.845  11.613  65.426  1.00  0.00     0.000 HD 
HETATM   21  H2  UNL     1      -6.837  10.248  64.425  1.00  0.00     0.000 HD 
HETATM   22  C   UNL     1      -8.076   9.705  68.803  1.00  0.00    -0.097 C  
HETATM   23  C   UNL     1      -7.500   9.912  66.372  1.00  0.00    -0.101 C  
HETATM   24  C   UNL     1      -7.917   8.146  68.757  1.00  0.00    -0.115 C  
BRANCH  24  25
HETATM   25  O   UNL     1      -8.746   7.433  69.714  1.00  0.00    -0.139 OA 
BRANCH  25  26
HETATM   26  C   UNL     1      -8.183   7.218  71.014  1.00  0.00    -0.107 C  
HETATM   27  O   UNL     1      -9.204   7.126  72.010  1.00  0.00    -0.135 OA 
HETATM   28  C   UNL     1     -10.052   5.982  71.835  1.00  0.00    -0.192 C  
HETATM   29  C   UNL     1      -9.239   4.697  72.039  1.00  0.00    -0.132 C  
HETATM   30  H2  UNL     1      -5.637   6.766  70.088  1.00  0.00     0.000 HD 
HETATM   31  C   UNL     1      -8.101   4.666  71.018  1.00  0.00    -0.086 C  
HETATM   32  O   UNL     1     -10.003   3.498  71.839  1.00  0.00    -0.166 OA 
HETATM   33  H1  UNL     1      -5.602   5.093  70.084  1.00  0.00     0.000 HD 
HETATM   34  H   UNL     1      -9.500   2.703  71.965  1.00  0.00     0.000 HD 
HETATM   35  H   UNL     1      -6.554   3.509  70.645  1.00  0.00     0.000 HD 
HETATM   36  N   UNL     1      -6.200   5.918  70.045  1.00  0.00    -0.026 NA 
HETATM   37  O   UNL     1      -7.262   3.527  71.280  1.00  0.00    -0.032 OA 
HETATM   38  C   UNL     1      -7.267   5.956  71.073  1.00  0.00    -0.074 C  
BRANCH  28  39
HETATM   39  C   UNL     1     -11.236   6.131  72.807  1.00  0.00    -0.243 C  
HETATM   40  H2  UNL     1     -11.278   8.193  72.807  1.00  0.00     0.000 HD 
HETATM   41  N   UNL     1     -11.284   7.433  73.486  1.00  0.00    -0.588 NA 
HETATM   42  H1  UNL     1     -12.068   7.531  74.131  1.00  0.00     0.000 HD 
ENDBRANCH  28  39
ENDBRANCH  25  26
ENDBRANCH  24  25
ENDBRANCH  10  11
ENDBRANCH   1  10
BRANCH   5  43
HETATM   43  C   UNL     1      -7.736   4.566  64.330  1.00  0.00    -0.077 C  
HETATM   44  O   UNL     1      -6.510   4.213  64.980  1.00  0.00    -0.033 OA 
HETATM   45  H   UNL     1      -5.776   4.521  64.463  1.00  0.00     0.000 HD 
ENDBRANCH   5  43
TORSDOF 6
ENDMDL
MODEL      284
REMARK 921   NORMALIZED FREE ENERGY PREDICTED BY IDOCK:   -2.93 KCAL/MOL
REMARK 922        TOTAL FREE ENERGY PREDICTED BY IDOCK:   -5.59 KCAL/MOL
REMARK 923 INTER-LIGAND FREE ENERGY PREDICTED BY IDOCK:   -5.40 KCAL/MOL
REMARK 924 INTRA-LIGAND FREE ENERGY PREDICTED BY IDOCK:   -0.19 KCAL/MOL
REMARK 927      BINDING AFFINITY PREDICTED BY RF-SCORE:    0.00 PKD
ROOT
HETATM    1  C   UNL     1      -9.174   7.152  69.700  1.00  0.00    -0.146 C  
HETATM    2  O   UNL     1      -6.540   7.811  71.619  1.00  0.00    -0.041 OA 
HETATM    3  O   UNL     1      -9.524   8.082  70.735  1.00  0.00    -0.160 OA 
HETATM    4  H   UNL     1      -6.065   6.017  69.907  1.00  0.00     0.000 HD 
HETATM    5  C   UNL     1      -8.491   9.080  70.828  1.00  0.00    -0.200 C  
HETATM    6  H   UNL     1      -5.734   7.364  71.391  1.00  0.00     0.000 HD 
HETATM    7  C   UNL     1      -7.199   8.363  70.462  1.00  0.00    -0.042 C  
HETATM    8  O   UNL     1      -7.010   5.985  69.993  1.00  0.00    -0.064 OA 
HETATM    9  C   UNL     1      -7.634   7.205  69.561  1.00  0.00    -0.101 C  
ENDROOT
BRANCH   1  10
HETATM   10  O   UNL     1      -9.774   7.536  68.460  1.00  0.00    -0.152 OA 
BRANCH  10  11
HETATM   11  C   UNL     1      -9.197   7.017  67.230  1.00  0.00    -0.129 C  
HETATM   12  O   UNL     1      -9.757   4.720  67.780  1.00  0.00    -0.149 OA 
HETATM   13  H2  UNL     1      -5.960   7.691  63.952  1.00  0.00     0.000 HD 
HETATM   14  H   UNL     1      -9.435   3.831  67.882  1.00  0.00     0.000 HD 
HETATM   15  C   UNL     1      -8.676   5.580  67.395  1.00  0.00    -0.107 C  
HETATM   16  H1  UNL     1      -6.753   9.054  64.573  1.00  0.00     0.000 HD 
HETATM   17  C   UNL     1      -6.964   5.885  65.593  1.00  0.00    -0.068 C  
HETATM   18  N   UNL     1      -7.608   3.627  66.354  1.00  0.00    -0.083 NA 
HETATM   19  N   UNL     1      -6.402   8.116  64.767  1.00  0.00    -0.049 NA 
HETATM   20  H1  UNL     1      -7.218   3.240  65.496  1.00  0.00     0.000 HD 
HETATM   21  H2  UNL     1      -8.335   3.030  66.750  1.00  0.00     0.000 HD 
HETATM   22  C   UNL     1      -7.493   7.295  65.301  1.00  0.00    -0.089 C  
HETATM   23  C   UNL     1      -8.089   4.997  66.105  1.00  0.00    -0.108 C  
HETATM   24  C   UNL     1      -8.149   7.957  66.561  1.00  0.00    -0.107 C  
BRANCH  24  25
HETATM   25  O   UNL     1      -8.667   9.295  66.329  1.00  0.00    -0.134 OA 
BRANCH  25  26
HETATM   26  C   UNL     1      -9.972   9.386  65.743  1.00  0.00    -0.208 C  
HETATM   27  O   UNL     1     -10.900   9.996  66.642  1.00  0.00    -0.119 OA 
HETATM   28  C   UNL     1     -10.582  11.366  66.928  1.00  0.00    -0.252 C  
HETATM   29  C   UNL     1     -10.716  12.207  65.652  1.00  0.00    -0.275 C  
HETATM   30  H2  UNL     1      -9.146   8.636  63.233  1.00  0.00     0.000 HD 
HETATM   31  C   UNL     1      -9.758  11.656  64.595  1.00  0.00    -0.185 C  
HETATM   32  O   UNL     1     -10.373  13.588  65.838  1.00  0.00    -0.286 OA 
HETATM   33  H1  UNL     1      -8.998  10.132  62.496  1.00  0.00     0.000 HD 
HETATM   34  H   UNL     1     -10.457  14.109  65.047  1.00  0.00     0.000 HD 
HETATM   35  H   UNL     1      -9.370  12.017  62.700  1.00  0.00     0.000 HD 
HETATM   36  N   UNL     1      -9.000   9.634  63.386  1.00  0.00    -0.238 NA 
HETATM   37  O   UNL     1      -9.965  12.360  63.357  1.00  0.00    -0.398 OA 
HETATM   38  C   UNL     1      -9.969  10.149  64.381  1.00  0.00    -0.159 C  
BRANCH  28  39
HETATM   39  C   UNL     1     -11.499  11.824  68.075  1.00  0.00    -0.319 C  
HETATM   40  H2  UNL     1     -11.863   9.946  68.845  1.00  0.00     0.000 HD 
HETATM   41  N   UNL     1     -12.396  10.772  68.572  1.00  0.00    -0.735 NA 
HETATM   42  H1  UNL     1     -13.004  11.076  69.333  1.00  0.00     0.000 HD 
ENDBRANCH  28  39
ENDBRANCH  25  26
ENDBRANCH  24  25
ENDBRANCH  10  11
ENDBRANCH   1  10
BRANCH   5  43
HETATM   43  C   UNL     1      -8.763  10.284  69.916  1.00  0.00     0.043 C  
HETATM   44  O   UNL     1      -7.541  10.994  69.684  1.00  0.00    -0.345 OA 
HETATM   45  H   UNL     1      -7.710  11.739  69.120  1.00  0.00     0.000 HD 
ENDBRANCH   5  43
TORSDOF 6
ENDMDL
MODEL      285
REMARK 921   NORMALIZED FREE ENERGY PREDICTED BY IDOCK:   -2.92 KCAL/MOL
REMARK 922        TOTAL FREE ENERGY PREDICTED BY IDOCK:   -5.59 KCAL/MOL
REMARK 923 INTER-LIGAND FREE ENERGY PREDICTED BY IDOCK:   -4.03 KCAL/MOL
REMARK 924 INTRA-LIGAND FREE ENERGY PREDICTED BY IDOCK:   -1.56 KCAL/MOL
REMARK 927      BINDING AFFINITY PREDICTED BY RF-SCORE:    0.00 PKD
ROOT
HETATM    1  C   UNL     1      -7.859   4.851  67.170  1.00  0.00    -0.095 C  
HETATM    2  O   UNL     1      -9.570   2.150  66.261  1.00  0.00    -0.353 OA 
HETATM    3  O   UNL     1      -6.983   3.725  67.023  1.00  0.00    -0.053 OA 
HETATM    4  H   UNL     1     -11.067   4.123  66.751  1.00  0.00     0.000 HD 
HETATM    5  C   UNL     1      -7.321   3.031  65.808  1.00  0.00    -0.072 C  
HETATM    6  H   UNL     1     -10.507   2.265  66.155  1.00  0.00     0.000 HD 
HETATM    7  C   UNL     1      -8.823   3.214  65.640  1.00  0.00    -0.137 C  
HETATM    8  O   UNL     1     -10.278   4.328  67.238  1.00  0.00    -0.076 OA 
HETATM    9  C   UNL     1      -9.144   4.518  66.376  1.00  0.00    -0.122 C  
ENDROOT
BRANCH   1  10
HETATM   10  O   UNL     1      -7.257   6.026  66.622  1.00  0.00    -0.071 OA 
BRANCH  10  11
HETATM   11  C   UNL     1      -8.039   7.253  66.603  1.00  0.00    -0.113 C  
HETATM   12  O   UNL     1      -8.779   6.903  64.318  1.00  0.00    -0.281 OA 
HETATM   13  H2  UNL     1      -8.423  11.559  68.330  1.00  0.00     0.000 HD 
HETATM   14  H   UNL     1      -8.846   7.273  63.445  1.00  0.00     0.000 HD 
HETATM   15  C   UNL     1      -8.148   7.849  65.191  1.00  0.00    -0.144 C  
HETATM   16  H1  UNL     1      -7.909  10.330  69.377  1.00  0.00     0.000 HD 
HETATM   17  C   UNL     1      -8.420  10.174  66.084  1.00  0.00    -0.134 C  
HETATM   18  N   UNL     1      -9.036   9.635  63.756  1.00  0.00    -0.365 NA 
HETATM   19  N   UNL     1      -7.909  10.684  68.420  1.00  0.00    -0.107 NA 
HETATM   20  H1  UNL     1      -9.598  10.485  63.721  1.00  0.00     0.000 HD 
HETATM   21  H2  UNL     1      -9.366   8.929  63.097  1.00  0.00     0.000 HD 
HETATM   22  C   UNL     1      -8.420   9.642  67.523  1.00  0.00    -0.125 C  
HETATM   23  C   UNL     1      -8.993   9.128  65.138  1.00  0.00    -0.189 C  
HETATM   24  C   UNL     1      -7.609   8.309  67.666  1.00  0.00    -0.098 C  
BRANCH  24  25
HETATM   25  O   UNL     1      -7.584   7.767  69.014  1.00  0.00    -0.096 OA 
BRANCH  25  26
HETATM   26  C   UNL     1      -6.298   7.414  69.540  1.00  0.00    -0.035 C  
HETATM   27  O   UNL     1      -5.566   8.576  69.937  1.00  0.00    -0.028 OA 
HETATM   28  C   UNL     1      -6.178   9.274  71.031  1.00  0.00    -0.072 C  
HETATM   29  C   UNL     1      -6.156   8.392  72.287  1.00  0.00    -0.065 C  
HETATM   30  H2  UNL     1      -6.816   4.718  69.616  1.00  0.00     0.000 HD 
HETATM   31  C   UNL     1      -6.921   7.100  71.996  1.00  0.00    -0.060 C  
HETATM   32  O   UNL     1      -6.790   8.998  73.423  1.00  0.00    -0.336 OA 
HETATM   33  H1  UNL     1      -7.234   4.529  71.226  1.00  0.00     0.000 HD 
HETATM   34  H   UNL     1      -6.776   8.452  74.201  1.00  0.00     0.000 HD 
HETATM   35  H   UNL     1      -7.277   5.413  72.943  1.00  0.00     0.000 HD 
HETATM   36  N   UNL     1      -7.175   5.186  70.448  1.00  0.00    -0.060 NA 
HETATM   37  O   UNL     1      -6.802   6.216  73.124  1.00  0.00    -0.073 OA 
HETATM   38  C   UNL     1      -6.389   6.409  70.730  1.00  0.00    -0.040 C  
BRANCH  28  39
HETATM   39  C   UNL     1      -5.439  10.613  71.197  1.00  0.00    -0.059 C  
HETATM   40  H2  UNL     1      -7.107  11.818  71.065  1.00  0.00     0.000 HD 
HETATM   41  N   UNL     1      -6.173  11.766  70.659  1.00  0.00    -0.528 NA 
HETATM   42  H1  UNL     1      -5.682  12.653  70.769  1.00  0.00     0.000 HD 
ENDBRANCH  28  39
ENDBRANCH  25  26
ENDBRANCH  24  25
ENDBRANCH  10  11
ENDBRANCH   1  10
BRANCH   5  43
HETATM   43  C   UNL     1      -6.535   3.559  64.601  1.00  0.00    -0.035 C  
HETATM   44  O   UNL     1      -5.290   4.109  65.045  1.00  0.00    -0.009 OA 
HETATM   45  H   UNL     1      -4.803   4.437  64.298  1.00  0.00     0.000 HD 
ENDBRANCH   5  43
TORSDOF 6
ENDMDL
MODEL      286
REMARK 921   NORMALIZED FREE ENERGY PREDICTED BY IDOCK:   -2.87 KCAL/MOL
REMARK 922        TOTAL FREE ENERGY PREDICTED BY IDOCK:   -5.52 KCAL/MOL
REMARK 923 INTER-LIGAND FREE ENERGY PREDICTED BY IDOCK:   -4.55 KCAL/MOL
REMARK 924 INTRA-LIGAND FREE ENERGY PREDICTED BY IDOCK:   -0.97 KCAL/MOL
REMARK 927      BINDING AFFINITY PREDICTED BY RF-SCORE:    0.00 PKD
ROOT
HETATM    1  C   UNL     1     -10.150   8.736  70.387  1.00  0.00    -0.192 C  
HETATM    2  O   UNL     1     -13.074   7.196  70.744  1.00  0.00    -0.587 OA 
HETATM    3  O   UNL     1     -10.868   9.270  71.509  1.00  0.00    -0.339 OA 
HETATM    4  H   UNL     1     -11.844   6.466  68.663  1.00  0.00     0.000 HD 
HETATM    5  C   UNL     1     -11.416   8.177  72.269  1.00  0.00    -0.371 C  
HETATM    6  H   UNL     1     -13.269   6.517  70.109  1.00  0.00     0.000 HD 
HETATM    7  C   UNL     1     -11.729   7.090  71.251  1.00  0.00    -0.317 C  
HETATM    8  O   UNL     1     -11.469   7.320  68.844  1.00  0.00     0.210 OA 
HETATM    9  C   UNL     1     -10.760   7.346  70.093  1.00  0.00    -0.242 C  
ENDROOT
BRANCH   1  10
HETATM   10  O   UNL     1      -8.764   8.587  70.706  1.00  0.00    -0.137 OA 
BRANCH  10  11
HETATM   11  C   UNL     1      -7.834   8.332  69.618  1.00  0.00    -0.102 C  
HETATM   12  O   UNL     1      -7.849  10.647  68.888  1.00  0.00    -0.110 OA 
HETATM   13  H2  UNL     1      -6.280   5.156  66.590  1.00  0.00     0.000 HD 
HETATM   14  H   UNL     1      -7.977  11.244  68.159  1.00  0.00     0.000 HD 
HETATM   15  C   UNL     1      -8.041   9.298  68.441  1.00  0.00    -0.106 C  
HETATM   16  H1  UNL     1      -6.663   4.634  68.156  1.00  0.00     0.000 HD 
HETATM   17  C   UNL     1      -7.152   7.638  66.789  1.00  0.00    -0.083 C  
HETATM   18  N   UNL     1      -7.327  10.030  66.206  1.00  0.00    -0.102 NA 
HETATM   19  N   UNL     1      -6.881   5.287  67.403  1.00  0.00    -0.059 NA 
HETATM   20  H1  UNL     1      -6.670   9.879  65.441  1.00  0.00     0.000 HD 
HETATM   21  H2  UNL     1      -7.320  10.996  66.535  1.00  0.00     0.000 HD 
HETATM   22  C   UNL     1      -6.824   6.657  67.922  1.00  0.00    -0.077 C  
HETATM   23  C   UNL     1      -7.053   9.072  67.291  1.00  0.00    -0.079 C  
HETATM   24  C   UNL     1      -7.764   6.843  69.163  1.00  0.00    -0.106 C  
BRANCH  24  25
HETATM   25  O   UNL     1      -7.487   5.935  70.262  1.00  0.00    -0.084 OA 
BRANCH  25  26
HETATM   26  C   UNL     1      -8.611   5.246  70.825  1.00  0.00    -0.130 C  
HETATM   27  O   UNL     1      -9.003   4.142  70.006  1.00  0.00    -0.083 OA 
HETATM   28  C   UNL     1      -8.001   3.117  69.938  1.00  0.00    -0.045 C  
HETATM   29  C   UNL     1      -7.811   2.484  71.323  1.00  0.00    -0.043 C  
HETATM   30  H2  UNL     1      -8.538   6.604  73.211  1.00  0.00     0.000 HD 
HETATM   31  C   UNL     1      -7.380   3.572  72.307  1.00  0.00    -0.052 C  
HETATM   32  O   UNL     1      -6.792   1.473  71.356  1.00  0.00    -0.022 OA 
HETATM   33  H1  UNL     1      -7.719   5.502  74.169  1.00  0.00     0.000 HD 
HETATM   34  H   UNL     1      -6.675   1.082  72.214  1.00  0.00     0.000 HD 
HETATM   35  H   UNL     1      -7.050   3.691  74.243  1.00  0.00     0.000 HD 
HETATM   36  N   UNL     1      -7.888   5.819  73.214  1.00  0.00    -0.106 NA 
HETATM   37  O   UNL     1      -7.318   3.014  73.632  1.00  0.00    -0.047 OA 
HETATM   38  C   UNL     1      -8.353   4.762  72.285  1.00  0.00    -0.116 C  
BRANCH  28  39
HETATM   39  C   UNL     1      -8.436   2.117  68.852  1.00  0.00    -0.059 C  
HETATM   40  H2  UNL     1      -8.950   3.524  67.434  1.00  0.00     0.000 HD 
HETATM   41  N   UNL     1      -9.353   2.688  67.855  1.00  0.00    -0.222 NA 
HETATM   42  H1  UNL     1      -9.641   2.025  67.135  1.00  0.00     0.000 HD 
ENDBRANCH  28  39
ENDBRANCH  25  26
ENDBRANCH  24  25
ENDBRANCH  10  11
ENDBRANCH   1  10
BRANCH   5  43
HETATM   43  C   UNL     1     -10.452   7.689  73.359  1.00  0.00    -0.301 C  
HETATM   44  O   UNL     1     -10.840   6.378  73.786  1.00  0.00    -0.439 OA 
HETATM   45  H   UNL     1     -10.244   6.076  74.461  1.00  0.00     0.000 HD 
ENDBRANCH   5  43
TORSDOF 6
ENDMDL
MODEL      287
REMARK 921   NORMALIZED FREE ENERGY PREDICTED BY IDOCK:   -2.76 KCAL/MOL
REMARK 922        TOTAL FREE ENERGY PREDICTED BY IDOCK:   -5.37 KCAL/MOL
REMARK 923 INTER-LIGAND FREE ENERGY PREDICTED BY IDOCK:   -5.45 KCAL/MOL
REMARK 924 INTRA-LIGAND FREE ENERGY PREDICTED BY IDOCK:    0.08 KCAL/MOL
REMARK 927      BINDING AFFINITY PREDICTED BY RF-SCORE:    0.00 PKD
ROOT
HETATM    1  C   UNL     1     -10.696  10.368  67.638  1.00  0.00    -0.286 C  
HETATM    2  O   UNL     1     -10.983  13.190  69.373  1.00  0.00    -0.429 OA 
HETATM    3  O   UNL     1      -9.536  11.192  67.457  1.00  0.00    -0.166 OA 
HETATM    4  H   UNL     1     -13.076  11.781  69.463  1.00  0.00     0.000 HD 
HETATM    5  C   UNL     1      -9.129  11.707  68.739  1.00  0.00    -0.021 C  
HETATM    6  H   UNL     1     -11.786  13.295  69.870  1.00  0.00     0.000 HD 
HETATM    7  C   UNL     1     -10.415  11.875  69.535  1.00  0.00     0.347 C  
HETATM    8  O   UNL     1     -12.652  11.482  68.668  1.00  0.00    -0.162 OA 
HETATM    9  C   UNL     1     -11.386  10.856  68.934  1.00  0.00    -0.288 C  
ENDROOT
BRANCH   1  10
HETATM   10  O   UNL     1     -10.316   8.999  67.792  1.00  0.00    -0.219 OA 
BRANCH  10  11
HETATM   11  C   UNL     1      -9.122   8.537  67.102  1.00  0.00    -0.140 C  
HETATM   12  O   UNL     1      -9.587   9.869  65.127  1.00  0.00    -0.264 OA 
HETATM   13  H2  UNL     1      -6.100   5.027  66.638  1.00  0.00     0.000 HD 
HETATM   14  H   UNL     1      -9.696   9.869  64.183  1.00  0.00     0.000 HD 
HETATM   15  C   UNL     1      -9.297   8.538  65.576  1.00  0.00     0.032 C  
HETATM   16  H1  UNL     1      -6.686   5.365  68.191  1.00  0.00     0.000 HD 
HETATM   17  C   UNL     1      -7.630   6.693  65.280  1.00  0.00    -0.088 C  
HETATM   18  N   UNL     1      -8.301   8.107  63.371  1.00  0.00    -0.374 NA 
HETATM   19  N   UNL     1      -6.888   5.361  67.191  1.00  0.00    -0.062 NA 
HETATM   20  H1  UNL     1      -7.466   7.805  62.870  1.00  0.00     0.000 HD 
HETATM   21  H2  UNL     1      -8.632   9.018  63.053  1.00  0.00     0.000 HD 
HETATM   22  C   UNL     1      -7.327   6.699  66.784  1.00  0.00    -0.078 C  
HETATM   23  C   UNL     1      -8.042   8.084  64.821  1.00  0.00    -0.143 C  
HETATM   24  C   UNL     1      -8.547   7.190  67.636  1.00  0.00    -0.122 C  
BRANCH  24  25
HETATM   25  O   UNL     1      -8.304   7.214  69.068  1.00  0.00    -0.124 OA 
BRANCH  25  26
HETATM   26  C   UNL     1      -8.834   6.121  69.828  1.00  0.00    -0.135 C  
HETATM   27  O   UNL     1      -8.439   6.205  71.199  1.00  0.00    -0.123 OA 
HETATM   28  C   UNL     1      -8.985   7.352  71.866  1.00  0.00    -0.125 C  
HETATM   29  C   UNL     1     -10.513   7.231  71.941  1.00  0.00    -0.200 C  
HETATM   30  H2  UNL     1     -10.472   5.220  67.816  1.00  0.00     0.000 HD 
HETATM   31  C   UNL     1     -11.071   7.137  70.520  1.00  0.00    -0.271 C  
HETATM   32  O   UNL     1     -11.148   8.361  72.558  1.00  0.00    -0.361 OA 
HETATM   33  H1  UNL     1     -11.930   5.903  68.275  1.00  0.00     0.000 HD 
HETATM   34  H   UNL     1     -12.094   8.286  72.604  1.00  0.00     0.000 HD 
HETATM   35  H   UNL     1     -12.835   6.841  69.701  1.00  0.00     0.000 HD 
HETATM   36  N   UNL     1     -10.914   5.973  68.341  1.00  0.00    -0.292 NA 
HETATM   37  O   UNL     1     -12.489   6.900  70.584  1.00  0.00    -0.321 OA 
HETATM   38  C   UNL     1     -10.387   6.013  69.725  1.00  0.00    -0.228 C  
BRANCH  28  39
HETATM   39  C   UNL     1      -8.301   7.457  73.240  1.00  0.00    -0.119 C  
HETATM   40  H2  UNL     1      -9.934   6.879  74.358  1.00  0.00     0.000 HD 
HETATM   41  N   UNL     1      -9.239   7.625  74.358  1.00  0.00    -0.402 NA 
HETATM   42  H1  UNL     1      -8.785   7.694  75.269  1.00  0.00     0.000 HD 
ENDBRANCH  28  39
ENDBRANCH  25  26
ENDBRANCH  24  25
ENDBRANCH  10  11
ENDBRANCH   1  10
BRANCH   5  43
HETATM   43  C   UNL     1      -8.128  10.782  69.444  1.00  0.00    -0.043 C  
HETATM   44  O   UNL     1      -6.884  11.468  69.619  1.00  0.00    -0.241 OA 
HETATM   45  H   UNL     1      -6.265  10.896  70.055  1.00  0.00     0.000 HD 
ENDBRANCH   5  43
TORSDOF 6
ENDMDL
MODEL      288
REMARK 921   NORMALIZED FREE ENERGY PREDICTED BY IDOCK:   -2.62 KCAL/MOL
REMARK 922        TOTAL FREE ENERGY PREDICTED BY IDOCK:   -5.18 KCAL/MOL
REMARK 923 INTER-LIGAND FREE ENERGY PREDICTED BY IDOCK:   -4.15 KCAL/MOL
REMARK 924 INTRA-LIGAND FREE ENERGY PREDICTED BY IDOCK:   -1.03 KCAL/MOL
REMARK 927      BINDING AFFINITY PREDICTED BY RF-SCORE:    0.00 PKD
ROOT
HETATM    1  C   UNL     1      -8.049   6.578  69.220  1.00  0.00    -0.112 C  
HETATM    2  O   UNL     1      -6.491   4.604  67.046  1.00  0.00    -0.039 OA 
HETATM    3  O   UNL     1      -8.917   5.521  68.786  1.00  0.00    -0.113 OA 
HETATM    4  H   UNL     1      -5.106   6.613  67.694  1.00  0.00     0.000 HD 
HETATM    5  C   UNL     1      -8.182   4.283  68.800  1.00  0.00    -0.079 C  
HETATM    6  H   UNL     1      -5.594   4.839  66.836  1.00  0.00     0.000 HD 
HETATM    7  C   UNL     1      -6.746   4.660  68.463  1.00  0.00    -0.050 C  
HETATM    8  O   UNL     1      -5.993   6.897  67.879  1.00  0.00    -0.029 OA 
HETATM    9  C   UNL     1      -6.604   6.115  68.918  1.00  0.00    -0.051 C  
ENDROOT
BRANCH   1  10
HETATM   10  O   UNL     1      -8.192   6.794  70.626  1.00  0.00    -0.117 OA 
BRANCH  10  11
HETATM   11  C   UNL     1      -9.368   7.512  71.093  1.00  0.00    -0.151 C  
HETATM   12  O   UNL     1     -10.446   5.490  71.895  1.00  0.00    -0.212 OA 
HETATM   13  H2  UNL     1     -12.067  11.248  70.439  1.00  0.00     0.000 HD 
HETATM   14  H   UNL     1     -11.228   4.951  71.872  1.00  0.00     0.000 HD 
HETATM   15  C   UNL     1     -10.632   6.639  71.056  1.00  0.00    -0.226 C  
HETATM   16  H1  UNL     1     -10.396  11.434  70.232  1.00  0.00     0.000 HD 
HETATM   17  C   UNL     1     -12.123   8.630  70.766  1.00  0.00    -0.087 C  
HETATM   18  N   UNL     1     -13.043   6.459  71.493  1.00  0.00     0.156 NA 
HETATM   19  N   UNL     1     -11.195  10.806  70.148  1.00  0.00    -0.286 NA 
HETATM   20  H1  UNL     1     -13.875   6.939  71.835  1.00  0.00     0.000 HD 
HETATM   21  H2  UNL     1     -12.880   5.578  71.981  1.00  0.00     0.000 HD 
HETATM   22  C   UNL     1     -10.920   9.574  70.893  1.00  0.00    -0.337 C  
HETATM   23  C   UNL     1     -11.882   7.361  71.571  1.00  0.00    -0.297 C  
HETATM   24  C   UNL     1      -9.584   8.903  70.423  1.00  0.00    -0.194 C  
BRANCH  24  25
HETATM   25  O   UNL     1      -8.416   9.761  70.528  1.00  0.00    -0.171 OA 
BRANCH  25  26
HETATM   26  C   UNL     1      -7.474   9.698  69.450  1.00  0.00    -0.093 C  
HETATM   27  O   UNL     1      -8.138   9.714  68.184  1.00  0.00    -0.104 OA 
HETATM   28  C   UNL     1      -8.830  10.946  67.933  1.00  0.00    -0.134 C  
HETATM   29  C   UNL     1      -7.819  12.096  67.821  1.00  0.00    -0.148 C  
HETATM   30  H2  UNL     1      -5.271  10.059  71.050  1.00  0.00     0.000 HD 
HETATM   31  C   UNL     1      -7.036  12.193  69.131  1.00  0.00    -0.053 C  
HETATM   32  O   UNL     1      -8.431  13.378  67.612  1.00  0.00    -0.161 OA 
HETATM   33  H1  UNL     1      -5.003  11.698  70.841  1.00  0.00     0.000 HD 
HETATM   34  H   UNL     1      -7.805  14.089  67.543  1.00  0.00     0.000 HD 
HETATM   35  H   UNL     1      -5.516  13.246  69.805  1.00  0.00     0.000 HD 
HETATM   36  N   UNL     1      -5.697  10.952  70.802  1.00  0.00    -0.221 NA 
HETATM   37  O   UNL     1      -6.004  13.186  68.991  1.00  0.00    -0.075 OA 
HETATM   38  C   UNL     1      -6.412  10.840  69.510  1.00  0.00    -0.089 C  
BRANCH  28  39
HETATM   39  C   UNL     1      -9.687  10.746  66.671  1.00  0.00    -0.190 C  
HETATM   40  H2  UNL     1     -11.254  11.950  67.262  1.00  0.00     0.000 HD 
HETATM   41  N   UNL     1     -11.117  11.015  66.878  1.00  0.00    -0.263 NA 
HETATM   42  H1  UNL     1     -11.685  10.883  66.041  1.00  0.00     0.000 HD 
ENDBRANCH  28  39
ENDBRANCH  25  26
ENDBRANCH  24  25
ENDBRANCH  10  11
ENDBRANCH   1  10
BRANCH   5  43
HETATM   43  C   UNL     1      -8.289   3.561  70.149  1.00  0.00    -0.055 C  
HETATM   44  O   UNL     1      -9.653   3.196  70.389  1.00  0.00    -0.171 OA 
HETATM   45  H   UNL     1      -9.720   2.749  71.224  1.00  0.00     0.000 HD 
ENDBRANCH   5  43
TORSDOF 6
ENDMDL
MODEL      289
REMARK 921   NORMALIZED FREE ENERGY PREDICTED BY IDOCK:   -2.53 KCAL/MOL
REMARK 922        TOTAL FREE ENERGY PREDICTED BY IDOCK:   -5.07 KCAL/MOL
REMARK 923 INTER-LIGAND FREE ENERGY PREDICTED BY IDOCK:   -4.29 KCAL/MOL
REMARK 924 INTRA-LIGAND FREE ENERGY PREDICTED BY IDOCK:   -0.78 KCAL/MOL
REMARK 927      BINDING AFFINITY PREDICTED BY RF-SCORE:    0.00 PKD
ROOT
HETATM    1  C   UNL     1      -7.868   5.515  67.751  1.00  0.00    -0.097 C  
HETATM    2  O   UNL     1      -9.432   3.000  69.261  1.00  0.00    -0.156 OA 
HETATM    3  O   UNL     1      -6.921   4.566  68.261  1.00  0.00    -0.054 OA 
HETATM    4  H   UNL     1     -11.017   4.823  68.525  1.00  0.00     0.000 HD 
HETATM    5  C   UNL     1      -7.376   3.239  67.937  1.00  0.00    -0.054 C  
HETATM    6  H   UNL     1     -10.381   3.046  69.275  1.00  0.00     0.000 HD 
HETATM    7  C   UNL     1      -8.896   3.313  67.960  1.00  0.00    -0.125 C  
HETATM    8  O   UNL     1     -10.185   5.276  68.589  1.00  0.00    -0.179 OA 
HETATM    9  C   UNL     1      -9.223   4.775  67.647  1.00  0.00    -0.128 C  
ENDROOT
BRANCH   1  10
HETATM   10  O   UNL     1      -7.474   5.964  66.452  1.00  0.00    -0.080 OA 
BRANCH  10  11
HETATM   11  C   UNL     1      -7.950   7.262  66.001  1.00  0.00    -0.115 C  
HETATM   12  O   UNL     1      -8.665   6.400  63.848  1.00  0.00    -0.301 OA 
HETATM   13  H2  UNL     1      -7.392  11.869  66.371  1.00  0.00     0.000 HD 
HETATM   14  H   UNL     1      -8.613   6.493  62.903  1.00  0.00     0.000 HD 
HETATM   15  C   UNL     1      -7.865   7.412  64.474  1.00  0.00    -0.129 C  
HETATM   16  H1  UNL     1      -7.215  10.936  67.774  1.00  0.00     0.000 HD 
HETATM   17  C   UNL     1      -7.626   9.900  64.630  1.00  0.00    -0.139 C  
HETATM   18  N   UNL     1      -8.263   8.824  62.502  1.00  0.00    -0.181 NA 
HETATM   19  N   UNL     1      -7.098  10.975  66.762  1.00  0.00    -0.127 NA 
HETATM   20  H1  UNL     1      -8.612   9.721  62.167  1.00  0.00     0.000 HD 
HETATM   21  H2  UNL     1      -8.722   8.037  62.043  1.00  0.00     0.000 HD 
HETATM   22  C   UNL     1      -7.802   9.842  66.152  1.00  0.00    -0.107 C  
HETATM   23  C   UNL     1      -8.389   8.761  63.968  1.00  0.00    -0.141 C  
HETATM   24  C   UNL     1      -7.327   8.475  66.755  1.00  0.00    -0.082 C  
BRANCH  24  25
HETATM   25  O   UNL     1      -7.478   8.375  68.197  1.00  0.00    -0.093 OA 
BRANCH  25  26
HETATM   26  C   UNL     1      -7.964   9.541  68.874  1.00  0.00    -0.091 C  
HETATM   27  O   UNL     1      -9.386   9.500  69.017  1.00  0.00    -0.147 OA 
HETATM   28  C   UNL     1      -9.830   8.429  69.864  1.00  0.00    -0.186 C  
HETATM   29  C   UNL     1      -9.334   8.662  71.297  1.00  0.00    -0.224 C  
HETATM   30  H2  UNL     1      -5.471  10.451  69.581  1.00  0.00     0.000 HD 
HETATM   31  C   UNL     1      -7.806   8.722  71.287  1.00  0.00    -0.134 C  
HETATM   32  O   UNL     1      -9.698   7.612  72.206  1.00  0.00    -0.160 OA 
HETATM   33  H1  UNL     1      -5.376   9.897  71.158  1.00  0.00     0.000 HD 
HETATM   34  H   UNL     1      -9.391   7.757  73.094  1.00  0.00     0.000 HD 
HETATM   35  H   UNL     1      -6.388   9.099  72.597  1.00  0.00     0.000 HD 
HETATM   36  N   UNL     1      -5.813   9.758  70.247  1.00  0.00    -0.048 NA 
HETATM   37  O   UNL     1      -7.337   9.061  72.604  1.00  0.00    -0.331 OA 
HETATM   38  C   UNL     1      -7.295   9.753  70.268  1.00  0.00    -0.158 C  
BRANCH  28  39
HETATM   39  C   UNL     1     -11.361   8.347  69.740  1.00  0.00     0.143 C  
HETATM   40  H2  UNL     1     -11.605   6.704  70.963  1.00  0.00     0.000 HD 
HETATM   41  N   UNL     1     -11.909   7.018  70.042  1.00  0.00    -0.600 NA 
HETATM   42  H1  UNL     1     -12.925   6.964  69.960  1.00  0.00     0.000 HD 
ENDBRANCH  28  39
ENDBRANCH  25  26
ENDBRANCH  24  25
ENDBRANCH  10  11
ENDBRANCH   1  10
BRANCH   5  43
HETATM   43  C   UNL     1      -6.841   2.758  66.581  1.00  0.00    -0.048 C  
HETATM   44  O   UNL     1      -5.595   3.407  66.302  1.00  0.00    -0.016 OA 
HETATM   45  H   UNL     1      -5.264   3.110  65.463  1.00  0.00     0.000 HD 
ENDBRANCH   5  43
TORSDOF 6
ENDMDL
MODEL      290
REMARK 921   NORMALIZED FREE ENERGY PREDICTED BY IDOCK:   -2.49 KCAL/MOL
REMARK 922        TOTAL FREE ENERGY PREDICTED BY IDOCK:   -5.01 KCAL/MOL
REMARK 923 INTER-LIGAND FREE ENERGY PREDICTED BY IDOCK:   -3.99 KCAL/MOL
REMARK 924 INTRA-LIGAND FREE ENERGY PREDICTED BY IDOCK:   -1.03 KCAL/MOL
REMARK 927      BINDING AFFINITY PREDICTED BY RF-SCORE:    0.00 PKD
ROOT
HETATM    1  C   UNL     1      -6.915   4.622  67.177  1.00  0.00    -0.060 C  
HETATM    2  O   UNL     1      -5.126   2.851  69.348  1.00  0.00    -0.010 OA 
HETATM    3  O   UNL     1      -6.585   3.338  66.630  1.00  0.00    -0.039 OA 
HETATM    4  H   UNL     1      -5.563   5.205  70.148  1.00  0.00     0.000 HD 
HETATM    5  C   UNL     1      -6.812   2.334  67.636  1.00  0.00    -0.040 C  
HETATM    6  H   UNL     1      -4.936   3.274  70.177  1.00  0.00     0.000 HD 
HETATM    7  C   UNL     1      -6.506   3.013  68.964  1.00  0.00    -0.029 C  
HETATM    8  O   UNL     1      -5.658   5.279  69.206  1.00  0.00    -0.010 OA 
HETATM    9  C   UNL     1      -6.761   4.501  68.712  1.00  0.00    -0.046 C  
ENDROOT
BRANCH   1  10
HETATM   10  O   UNL     1      -8.267   4.966  66.864  1.00  0.00    -0.107 OA 
BRANCH  10  11
HETATM   11  C   UNL     1      -8.550   6.333  66.457  1.00  0.00    -0.128 C  
HETATM   12  O   UNL     1      -7.859   5.934  64.164  1.00  0.00    -0.106 OA 
HETATM   13  H2  UNL     1      -8.785  10.763  67.868  1.00  0.00     0.000 HD 
HETATM   14  H   UNL     1      -7.304   6.217  63.447  1.00  0.00     0.000 HD 
HETATM   15  C   UNL     1      -7.652   6.790  65.296  1.00  0.00    -0.092 C  
HETATM   16  H1  UNL     1      -9.314   9.563  68.940  1.00  0.00     0.000 HD 
HETATM   17  C   UNL     1      -7.806   9.192  65.988  1.00  0.00    -0.102 C  
HETATM   18  N   UNL     1      -7.041   8.576  63.723  1.00  0.00    -0.090 NA 
HETATM   19  N   UNL     1      -8.662   9.805  68.194  1.00  0.00    -0.119 NA 
HETATM   20  H1  UNL     1      -7.239   9.526  63.411  1.00  0.00     0.000 HD 
HETATM   21  H2  UNL     1      -7.083   7.903  62.958  1.00  0.00     0.000 HD 
HETATM   22  C   UNL     1      -8.787   8.827  67.109  1.00  0.00    -0.127 C  
HETATM   23  C   UNL     1      -7.949   8.218  64.826  1.00  0.00    -0.146 C  
HETATM   24  C   UNL     1      -8.582   7.362  67.627  1.00  0.00    -0.119 C  
BRANCH  24  25
HETATM   25  O   UNL     1      -9.493   6.972  68.690  1.00  0.00    -0.137 OA 
BRANCH  25  26
HETATM   26  C   UNL     1      -8.980   7.028  70.027  1.00  0.00    -0.142 C  
HETATM   27  O   UNL     1      -9.294   8.276  70.649  1.00  0.00    -0.151 OA 
HETATM   28  C   UNL     1     -10.705   8.463  70.840  1.00  0.00    -0.222 C  
HETATM   29  C   UNL     1     -11.237   7.423  71.835  1.00  0.00    -0.247 C  
HETATM   30  H2  UNL     1      -8.270   4.376  70.109  1.00  0.00     0.000 HD 
HETATM   31  C   UNL     1     -10.965   6.025  71.280  1.00  0.00    -0.278 C  
HETATM   32  O   UNL     1     -12.653   7.511  72.052  1.00  0.00    -0.382 OA 
HETATM   33  H1  UNL     1      -9.584   3.729  70.921  1.00  0.00     0.000 HD 
HETATM   34  H   UNL     1     -12.982   6.867  72.669  1.00  0.00     0.000 HD 
HETATM   35  H   UNL     1     -11.179   4.175  71.916  1.00  0.00     0.000 HD 
HETATM   36  N   UNL     1      -9.256   4.501  70.340  1.00  0.00    -0.117 NA 
HETATM   37  O   UNL     1     -11.349   5.044  72.261  1.00  0.00    -0.072 OA 
HETATM   38  C   UNL     1      -9.482   5.847  70.915  1.00  0.00    -0.165 C  
BRANCH  28  39
HETATM   39  C   UNL     1     -10.921   9.920  71.285  1.00  0.00    -0.155 C  
HETATM   40  H2  UNL     1     -12.717   9.603  72.249  1.00  0.00     0.000 HD 
HETATM   41  N   UNL     1     -12.325  10.250  71.565  1.00  0.00    -0.391 NA 
HETATM   42  H1  UNL     1     -12.468  11.216  71.861  1.00  0.00     0.000 HD 
ENDBRANCH  28  39
ENDBRANCH  25  26
ENDBRANCH  24  25
ENDBRANCH  10  11
ENDBRANCH   1  10
BRANCH   5  43
HETATM   43  C   UNL     1      -8.241   1.777  67.587  1.00  0.00    -0.066 C  
HETATM   44  O   UNL     1      -8.939   2.146  68.782  1.00  0.00    -0.090 OA 
HETATM   45  H   UNL     1      -9.823   1.801  68.752  1.00  0.00     0.000 HD 
ENDBRANCH   5  43
TORSDOF 6
ENDMDL
MODEL      291
REMARK 921   NORMALIZED FREE ENERGY PREDICTED BY IDOCK:   -2.43 KCAL/MOL
REMARK 922        TOTAL FREE ENERGY PREDICTED BY IDOCK:   -4.92 KCAL/MOL
REMARK 923 INTER-LIGAND FREE ENERGY PREDICTED BY IDOCK:   -4.55 KCAL/MOL
REMARK 924 INTRA-LIGAND FREE ENERGY PREDICTED BY IDOCK:   -0.37 KCAL/MOL
REMARK 927      BINDING AFFINITY PREDICTED BY RF-SCORE:    0.00 PKD
ROOT
HETATM    1  C   UNL     1     -10.845   9.696  68.649  1.00  0.00    -0.167 C  
HETATM    2  O   UNL     1     -11.310   9.411  71.928  1.00  0.00    -0.370 OA 
HETATM    3  O   UNL     1      -9.881   8.799  69.219  1.00  0.00    -0.173 OA 
HETATM    4  H   UNL     1     -12.826  11.138  70.883  1.00  0.00     0.000 HD 
HETATM    5  C   UNL     1     -10.557   7.913  70.131  1.00  0.00    -0.237 C  
HETATM    6  H   UNL     1     -12.023   9.920  72.295  1.00  0.00     0.000 HD 
HETATM    7  C   UNL     1     -11.699   8.730  70.719  1.00  0.00    -0.219 C  
HETATM    8  O   UNL     1     -12.107  11.083  70.264  1.00  0.00    -0.300 OA 
HETATM    9  C   UNL     1     -12.016   9.785  69.656  1.00  0.00     0.289 C  
ENDROOT
BRANCH   1  10
HETATM   10  O   UNL     1     -11.329   9.183  67.405  1.00  0.00     0.330 OA 
BRANCH  10  11
HETATM   11  C   UNL     1     -10.402   9.109  66.287  1.00  0.00    -0.096 C  
HETATM   12  O   UNL     1     -10.607   6.697  66.104  1.00  0.00    -0.365 OA 
HETATM   13  H2  UNL     1      -6.715  11.092  64.250  1.00  0.00     0.000 HD 
HETATM   14  H   UNL     1     -10.147   5.866  66.074  1.00  0.00     0.000 HD 
HETATM   15  C   UNL     1      -9.659   7.765  66.238  1.00  0.00    -0.108 C  
HETATM   16  H1  UNL     1      -7.879  12.111  64.943  1.00  0.00     0.000 HD 
HETATM   17  C   UNL     1      -7.683   8.784  65.085  1.00  0.00    -0.103 C  
HETATM   18  N   UNL     1      -8.023   6.339  65.086  1.00  0.00    -0.110 NA 
HETATM   19  N   UNL     1      -7.402  11.211  64.995  1.00  0.00     0.516 NA 
HETATM   20  H1  UNL     1      -7.382   6.262  64.296  1.00  0.00     0.000 HD 
HETATM   21  H2  UNL     1      -8.687   5.565  65.120  1.00  0.00     0.000 HD 
HETATM   22  C   UNL     1      -8.401  10.137  65.007  1.00  0.00    -0.155 C  
HETATM   23  C   UNL     1      -8.696   7.648  65.051  1.00  0.00     0.167 C  
HETATM   24  C   UNL     1      -9.439  10.328  66.165  1.00  0.00    -0.181 C  
BRANCH  24  25
HETATM   25  O   UNL     1     -10.145  11.598  66.129  1.00  0.00    -0.212 OA 
BRANCH  25  26
HETATM   26  C   UNL     1     -10.437  12.206  67.394  1.00  0.00    -0.213 C  
HETATM   27  O   UNL     1      -9.258  12.327  68.193  1.00  0.00    -0.189 OA 
HETATM   28  C   UNL     1      -8.290  13.221  67.624  1.00  0.00    -0.181 C  
HETATM   29  C   UNL     1      -8.853  14.649  67.599  1.00  0.00    -0.182 C  
HETATM   30  H2  UNL     1     -13.007  12.905  66.722  1.00  0.00     0.000 HD 
HETATM   31  C   UNL     1     -10.131  14.660  66.760  1.00  0.00    -0.265 C  
HETATM   32  O   UNL     1      -7.963  15.605  67.004  1.00  0.00    -0.194 OA 
HETATM   33  H1  UNL     1     -12.790  14.509  66.298  1.00  0.00     0.000 HD 
HETATM   34  H   UNL     1      -8.312  16.489  66.989  1.00  0.00     0.000 HD 
HETATM   35  H   UNL     1     -11.527  15.972  66.311  1.00  0.00     0.000 HD 
HETATM   36  N   UNL     1     -12.338  13.600  66.393  1.00  0.00    -0.415 NA 
HETATM   37  O   UNL     1     -10.732  15.965  66.832  1.00  0.00    -0.321 OA 
HETATM   38  C   UNL     1     -11.129  13.597  67.249  1.00  0.00    -0.293 C  
BRANCH  28  39
HETATM   39  C   UNL     1      -6.993  13.078  68.440  1.00  0.00    -0.100 C  
HETATM   40  H2  UNL     1      -5.773  14.081  67.115  1.00  0.00     0.000 HD 
HETATM   41  N   UNL     1      -5.770  13.205  67.636  1.00  0.00    -0.242 NA 
HETATM   42  H1  UNL     1      -4.911  13.110  68.177  1.00  0.00     0.000 HD 
ENDBRANCH  28  39
ENDBRANCH  25  26
ENDBRANCH  24  25
ENDBRANCH  10  11
ENDBRANCH   1  10
BRANCH   5  43
HETATM   43  C   UNL     1     -11.054   6.637  69.439  1.00  0.00    -0.310 C  
HETATM   44  O   UNL     1      -9.937   5.799  69.122  1.00  0.00    -0.153 OA 
HETATM   45  H   UNL     1     -10.244   5.010  68.694  1.00  0.00     0.000 HD 
ENDBRANCH   5  43
TORSDOF 6
ENDMDL
MODEL      292
REMARK 921   NORMALIZED FREE ENERGY PREDICTED BY IDOCK:   -2.39 KCAL/MOL
REMARK 922        TOTAL FREE ENERGY PREDICTED BY IDOCK:   -4.87 KCAL/MOL
REMARK 923 INTER-LIGAND FREE ENERGY PREDICTED BY IDOCK:   -4.64 KCAL/MOL
REMARK 924 INTRA-LIGAND FREE ENERGY PREDICTED BY IDOCK:   -0.23 KCAL/MOL
REMARK 927      BINDING AFFINITY PREDICTED BY RF-SCORE:    0.00 PKD
ROOT
HETATM    1  C   UNL     1      -8.025   7.402  66.454  1.00  0.00    -0.108 C  
HETATM    2  O   UNL     1      -5.779   7.396  64.002  1.00  0.00    -0.036 OA 
HETATM    3  O   UNL     1      -8.659   7.166  65.189  1.00  0.00    -0.065 OA 
HETATM    4  H   UNL     1      -4.775   8.020  66.233  1.00  0.00     0.000 HD 
HETATM    5  C   UNL     1      -7.881   6.204  64.453  1.00  0.00    -0.114 C  
HETATM    6  H   UNL     1      -4.878   7.548  64.261  1.00  0.00     0.000 HD 
HETATM    7  C   UNL     1      -6.437   6.449  64.867  1.00  0.00    -0.034 C  
HETATM    8  O   UNL     1      -5.694   8.229  66.347  1.00  0.00    -0.038 OA 
HETATM    9  C   UNL     1      -6.527   7.061  66.267  1.00  0.00    -0.051 C  
ENDROOT
BRANCH   1  10
HETATM   10  O   UNL     1      -8.582   6.550  67.458  1.00  0.00    -0.119 OA 
BRANCH  10  11
HETATM   11  C   UNL     1      -8.220   6.799  68.845  1.00  0.00    -0.121 C  
HETATM   12  O   UNL     1      -7.717   4.462  69.270  1.00  0.00    -0.055 OA 
HETATM   13  H2  UNL     1      -8.942   9.528  72.546  1.00  0.00     0.000 HD 
HETATM   14  H   UNL     1      -7.881   3.708  69.824  1.00  0.00     0.000 HD 
HETATM   15  C   UNL     1      -8.485   5.578  69.740  1.00  0.00    -0.105 C  
HETATM   16  H1  UNL     1      -8.914  10.259  71.018  1.00  0.00     0.000 HD 
HETATM   17  C   UNL     1      -8.818   7.010  71.768  1.00  0.00    -0.127 C  
HETATM   18  N   UNL     1      -8.381   4.591  71.988  1.00  0.00    -0.110 NA 
HETATM   19  N   UNL     1      -9.148   9.423  71.554  1.00  0.00    -0.207 NA 
HETATM   20  H1  UNL     1      -8.114   4.740  72.961  1.00  0.00     0.000 HD 
HETATM   21  H2  UNL     1      -7.942   3.759  71.592  1.00  0.00     0.000 HD 
HETATM   22  C   UNL     1      -8.467   8.267  70.962  1.00  0.00    -0.133 C  
HETATM   23  C   UNL     1      -8.085   5.802  71.203  1.00  0.00    -0.117 C  
HETATM   24  C   UNL     1      -8.807   8.114  69.440  1.00  0.00    -0.143 C  
BRANCH  24  25
HETATM   25  O   UNL     1      -8.488   9.283  68.637  1.00  0.00    -0.120 OA 
BRANCH  25  26
HETATM   26  C   UNL     1      -8.969  10.543  69.120  1.00  0.00    -0.161 C  
HETATM   27  O   UNL     1      -8.049  11.596  68.821  1.00  0.00    -0.140 OA 
HETATM   28  C   UNL     1      -7.905  11.826  67.412  1.00  0.00    -0.155 C  
HETATM   29  C   UNL     1      -9.231  12.336  66.831  1.00  0.00    -0.209 C  
HETATM   30  H2  UNL     1     -11.468   9.602  69.761  1.00  0.00     0.000 HD 
HETATM   31  C   UNL     1     -10.314  11.287  67.082  1.00  0.00    -0.209 C  
HETATM   32  O   UNL     1      -9.189  12.553  65.413  1.00  0.00    -0.429 OA 
HETATM   33  H1  UNL     1     -12.336  10.085  68.414  1.00  0.00     0.000 HD 
HETATM   34  H   UNL     1     -10.010  12.869  65.053  1.00  0.00     0.000 HD 
HETATM   35  H   UNL     1     -12.258  11.155  66.807  1.00  0.00     0.000 HD 
HETATM   36  N   UNL     1     -11.411   9.852  68.774  1.00  0.00    -0.067 NA 
HETATM   37  O   UNL     1     -11.585  11.807  66.651  1.00  0.00    -0.490 OA 
HETATM   38  C   UNL     1     -10.384  10.900  68.568  1.00  0.00    -0.187 C  
BRANCH  28  39
HETATM   39  C   UNL     1      -6.727  12.798  67.221  1.00  0.00    -0.082 C  
HETATM   40  H2  UNL     1      -7.787  14.525  67.601  1.00  0.00     0.000 HD 
HETATM   41  N   UNL     1      -7.138  14.171  66.899  1.00  0.00    -0.231 NA 
HETATM   42  H1  UNL     1      -6.357  14.815  66.772  1.00  0.00     0.000 HD 
ENDBRANCH  28  39
ENDBRANCH  25  26
ENDBRANCH  24  25
ENDBRANCH  10  11
ENDBRANCH   1  10
BRANCH   5  43
HETATM   43  C   UNL     1      -8.327   4.763  64.732  1.00  0.00    -0.132 C  
HETATM   44  O   UNL     1      -9.707   4.613  64.379  1.00  0.00    -0.343 OA 
HETATM   45  H   UNL     1      -9.983   3.721  64.552  1.00  0.00     0.000 HD 
ENDBRANCH   5  43
TORSDOF 6
ENDMDL
MODEL      293
REMARK 921   NORMALIZED FREE ENERGY PREDICTED BY IDOCK:   -2.38 KCAL/MOL
REMARK 922        TOTAL FREE ENERGY PREDICTED BY IDOCK:   -4.86 KCAL/MOL
REMARK 923 INTER-LIGAND FREE ENERGY PREDICTED BY IDOCK:   -4.00 KCAL/MOL
REMARK 924 INTRA-LIGAND FREE ENERGY PREDICTED BY IDOCK:   -0.85 KCAL/MOL
REMARK 927      BINDING AFFINITY PREDICTED BY RF-SCORE:    0.00 PKD
ROOT
HETATM    1  C   UNL     1      -7.893   7.768  66.053  1.00  0.00    -0.100 C  
HETATM    2  O   UNL     1      -6.366  10.714  66.259  1.00  0.00    -0.098 OA 
HETATM    3  O   UNL     1      -6.515   7.598  66.415  1.00  0.00    -0.047 OA 
HETATM    4  H   UNL     1      -8.738  10.910  65.416  1.00  0.00     0.000 HD 
HETATM    5  C   UNL     1      -6.181   8.561  67.431  1.00  0.00    -0.056 C  
HETATM    6  H   UNL     1      -6.901  11.476  66.072  1.00  0.00     0.000 HD 
HETATM    7  C   UNL     1      -7.038   9.783  67.130  1.00  0.00    -0.086 C  
HETATM    8  O   UNL     1      -8.512  10.011  65.209  1.00  0.00    -0.139 OA 
HETATM    9  C   UNL     1      -8.261   9.232  66.390  1.00  0.00    -0.111 C  
ENDROOT
BRANCH   1  10
HETATM   10  O   UNL     1      -8.721   6.886  66.815  1.00  0.00    -0.115 OA 
BRANCH  10  11
HETATM   11  C   UNL     1      -8.325   5.490  66.916  1.00  0.00    -0.108 C  
HETATM   12  O   UNL     1      -7.584   5.396  64.606  1.00  0.00    -0.074 OA 
HETATM   13  H2  UNL     1      -9.140   1.437  69.056  1.00  0.00     0.000 HD 
HETATM   14  H   UNL     1      -7.651   4.943  63.773  1.00  0.00     0.000 HD 
HETATM   15  C   UNL     1      -8.433   4.758  65.569  1.00  0.00    -0.127 C  
HETATM   16  H1  UNL     1      -9.249   2.854  69.978  1.00  0.00     0.000 HD 
HETATM   17  C   UNL     1      -8.812   2.548  66.685  1.00  0.00    -0.140 C  
HETATM   18  N   UNL     1      -8.137   2.666  64.314  1.00  0.00    -0.082 NA 
HETATM   19  N   UNL     1      -9.379   2.428  69.060  1.00  0.00    -0.149 NA 
HETATM   20  H1  UNL     1      -7.844   1.691  64.361  1.00  0.00     0.000 HD 
HETATM   21  H2  UNL     1      -7.639   3.183  63.589  1.00  0.00     0.000 HD 
HETATM   22  C   UNL     1      -8.617   3.189  68.065  1.00  0.00    -0.093 C  
HETATM   23  C   UNL     1      -7.993   3.291  65.640  1.00  0.00    -0.086 C  
HETATM   24  C   UNL     1      -9.008   4.707  68.077  1.00  0.00    -0.114 C  
BRANCH  24  25
HETATM   25  O   UNL     1      -8.837   5.356  69.366  1.00  0.00    -0.104 OA 
BRANCH  25  26
HETATM   26  C   UNL     1      -9.954   5.308  70.262  1.00  0.00    -0.240 C  
HETATM   27  O   UNL     1      -9.523   5.184  71.619  1.00  0.00    -0.144 OA 
HETATM   28  C   UNL     1      -8.794   6.332  72.079  1.00  0.00    -0.138 C  
HETATM   29  C   UNL     1      -9.717   7.557  72.108  1.00  0.00    -0.164 C  
HETATM   30  H2  UNL     1     -11.810   5.964  68.346  1.00  0.00     0.000 HD 
HETATM   31  C   UNL     1     -10.251   7.806  70.697  1.00  0.00    -0.199 C  
HETATM   32  O   UNL     1      -9.056   8.763  72.517  1.00  0.00    -0.367 OA 
HETATM   33  H1  UNL     1     -11.985   7.603  68.634  1.00  0.00     0.000 HD 
HETATM   34  H   UNL     1      -9.628   9.521  72.535  1.00  0.00     0.000 HD 
HETATM   35  H   UNL     1     -11.544   9.030  69.860  1.00  0.00     0.000 HD 
HETATM   36  N   UNL     1     -11.367   6.798  68.731  1.00  0.00    -0.097 NA 
HETATM   37  O   UNL     1     -11.212   8.876  70.737  1.00  0.00    -0.256 OA 
HETATM   38  C   UNL     1     -10.900   6.541  70.113  1.00  0.00    -0.282 C  
BRANCH  28  39
HETATM   39  C   UNL     1      -8.188   5.976  73.448  1.00  0.00    -0.114 C  
HETATM   40  H2  UNL     1      -7.740   4.013  73.001  1.00  0.00     0.000 HD 
HETATM   41  N   UNL     1      -8.200   4.537  73.745  1.00  0.00    -0.104 NA 
HETATM   42  H1  UNL     1      -7.798   4.302  74.652  1.00  0.00     0.000 HD 
ENDBRANCH  28  39
ENDBRANCH  25  26
ENDBRANCH  24  25
ENDBRANCH  10  11
ENDBRANCH   1  10
BRANCH   5  43
HETATM   43  C   UNL     1      -6.423   8.019  68.846  1.00  0.00    -0.048 C  
HETATM   44  O   UNL     1      -6.162   6.612  68.869  1.00  0.00    -0.025 OA 
HETATM   45  H   UNL     1      -6.311   6.276  69.745  1.00  0.00     0.000 HD 
ENDBRANCH   5  43
TORSDOF 6
ENDMDL
MODEL      294
REMARK 921   NORMALIZED FREE ENERGY PREDICTED BY IDOCK:   -2.36 KCAL/MOL
REMARK 922        TOTAL FREE ENERGY PREDICTED BY IDOCK:   -4.83 KCAL/MOL
REMARK 923 INTER-LIGAND FREE ENERGY PREDICTED BY IDOCK:   -4.90 KCAL/MOL
REMARK 924 INTRA-LIGAND FREE ENERGY PREDICTED BY IDOCK:    0.08 KCAL/MOL
REMARK 927      BINDING AFFINITY PREDICTED BY RF-SCORE:    0.00 PKD
ROOT
HETATM    1  C   UNL     1      -9.800  10.095  68.197  1.00  0.00    -0.144 C  
HETATM    2  O   UNL     1     -11.883  12.184  66.664  1.00  0.00    -0.566 OA 
HETATM    3  O   UNL     1      -9.258  10.512  66.936  1.00  0.00    -0.153 OA 
HETATM    4  H   UNL     1     -12.857  11.233  68.790  1.00  0.00     0.000 HD 
HETATM    5  C   UNL     1      -9.442  11.934  66.801  1.00  0.00    -0.201 C  
HETATM    6  H   UNL     1     -12.691  12.380  67.123  1.00  0.00     0.000 HD 
HETATM    7  C   UNL     1     -10.737  12.248  67.536  1.00  0.00    -0.225 C  
HETATM    8  O   UNL     1     -12.199  10.591  68.552  1.00  0.00    -0.279 OA 
HETATM    9  C   UNL     1     -10.871  11.141  68.585  1.00  0.00    -0.209 C  
ENDROOT
BRANCH   1  10
HETATM   10  O   UNL     1      -8.777  10.074  69.196  1.00  0.00    -0.144 OA 
BRANCH  10  11
HETATM   11  C   UNL     1      -8.594   8.851  69.963  1.00  0.00    -0.142 C  
HETATM   12  O   UNL     1     -10.188   9.523  71.666  1.00  0.00    -0.191 OA 
HETATM   13  H2  UNL     1      -5.614   5.447  71.061  1.00  0.00     0.000 HD 
HETATM   14  H   UNL     1     -10.342   9.656  72.594  1.00  0.00     0.000 HD 
HETATM   15  C   UNL     1      -8.844   9.066  71.464  1.00  0.00    -0.097 C  
HETATM   16  H1  UNL     1      -5.598   6.029  69.470  1.00  0.00     0.000 HD 
HETATM   17  C   UNL     1      -7.296   7.200  72.092  1.00  0.00    -0.080 C  
HETATM   18  N   UNL     1      -8.933   8.083  73.714  1.00  0.00    -0.275 NA 
HETATM   19  N   UNL     1      -5.746   6.255  70.454  1.00  0.00    -0.018 NA 
HETATM   20  H1  UNL     1      -8.828   7.231  74.265  1.00  0.00     0.000 HD 
HETATM   21  H2  UNL     1      -9.839   8.528  73.862  1.00  0.00     0.000 HD 
HETATM   22  C   UNL     1      -7.073   6.860  70.613  1.00  0.00    -0.068 C  
HETATM   23  C   UNL     1      -8.686   7.786  72.293  1.00  0.00    -0.133 C  
HETATM   24  C   UNL     1      -7.253   8.107  69.681  1.00  0.00    -0.065 C  
BRANCH  24  25
HETATM   25  O   UNL     1      -7.052   7.831  68.269  1.00  0.00    -0.079 OA 
BRANCH  25  26
HETATM   26  C   UNL     1      -6.684   6.489  67.924  1.00  0.00    -0.068 C  
HETATM   27  O   UNL     1      -7.711   5.563  68.285  1.00  0.00    -0.083 OA 
HETATM   28  C   UNL     1      -8.925   5.761  67.546  1.00  0.00    -0.107 C  
HETATM   29  C   UNL     1      -8.682   5.465  66.060  1.00  0.00    -0.137 C  
HETATM   30  H2  UNL     1      -4.466   7.227  66.482  1.00  0.00     0.000 HD 
HETATM   31  C   UNL     1      -7.594   6.405  65.540  1.00  0.00    -0.087 C  
HETATM   32  O   UNL     1      -9.839   5.680  65.237  1.00  0.00    -0.296 OA 
HETATM   33  H1  UNL     1      -5.079   7.179  64.925  1.00  0.00     0.000 HD 
HETATM   34  H   UNL     1      -9.688   5.496  64.317  1.00  0.00     0.000 HD 
HETATM   35  H   UNL     1      -6.597   6.636  63.860  1.00  0.00     0.000 HD 
HETATM   36  N   UNL     1      -5.310   7.283  65.913  1.00  0.00    -0.027 NA 
HETATM   37  O   UNL     1      -7.273   6.052  64.182  1.00  0.00    -0.051 OA 
HETATM   38  C   UNL     1      -6.330   6.331  66.412  1.00  0.00    -0.042 C  
BRANCH  28  39
HETATM   39  C   UNL     1     -10.007   4.877  68.189  1.00  0.00    -0.108 C  
HETATM   40  H2  UNL     1     -10.751   6.313  69.469  1.00  0.00     0.000 HD 
HETATM   41  N   UNL     1     -10.442   5.342  69.512  1.00  0.00    -0.270 NA 
HETATM   42  H1  UNL     1     -11.160   4.755  69.938  1.00  0.00     0.000 HD 
ENDBRANCH  28  39
ENDBRANCH  25  26
ENDBRANCH  24  25
ENDBRANCH  10  11
ENDBRANCH   1  10
BRANCH   5  43
HETATM   43  C   UNL     1      -8.253  12.727  67.358  1.00  0.00    -0.186 C  
HETATM   44  O   UNL     1      -7.054  12.326  66.687  1.00  0.00    -0.374 OA 
HETATM   45  H   UNL     1      -6.317  12.817  67.032  1.00  0.00     0.000 HD 
ENDBRANCH   5  43
TORSDOF 6
ENDMDL
MODEL      295
REMARK 921   NORMALIZED FREE ENERGY PREDICTED BY IDOCK:   -2.30 KCAL/MOL
REMARK 922        TOTAL FREE ENERGY PREDICTED BY IDOCK:   -4.75 KCAL/MOL
REMARK 923 INTER-LIGAND FREE ENERGY PREDICTED BY IDOCK:   -4.16 KCAL/MOL
REMARK 924 INTRA-LIGAND FREE ENERGY PREDICTED BY IDOCK:   -0.59 KCAL/MOL
REMARK 927      BINDING AFFINITY PREDICTED BY RF-SCORE:    0.00 PKD
ROOT
HETATM    1  C   UNL     1      -9.786   8.716  67.718  1.00  0.00    -0.165 C  
HETATM    2  O   UNL     1      -9.176   6.296  65.521  1.00  0.00    -0.371 OA 
HETATM    3  O   UNL     1     -11.013   8.155  67.231  1.00  0.00    -0.154 OA 
HETATM    4  H   UNL     1      -7.074   7.482  66.262  1.00  0.00     0.000 HD 
HETATM    5  C   UNL     1     -10.896   6.720  67.225  1.00  0.00    -0.373 C  
HETATM    6  H   UNL     1      -8.261   6.117  65.340  1.00  0.00     0.000 HD 
HETATM    7  C   UNL     1      -9.430   6.434  66.933  1.00  0.00    -0.143 C  
HETATM    8  O   UNL     1      -7.753   8.123  66.435  1.00  0.00    -0.089 OA 
HETATM    9  C   UNL     1      -8.680   7.671  67.435  1.00  0.00    -0.124 C  
ENDROOT
BRANCH   1  10
HETATM   10  O   UNL     1      -9.867   8.949  69.126  1.00  0.00    -0.172 OA 
BRANCH  10  11
HETATM   11  C   UNL     1      -8.772   9.658  69.767  1.00  0.00    -0.208 C  
HETATM   12  O   UNL     1      -8.819  11.467  68.149  1.00  0.00    -0.148 OA 
HETATM   13  H2  UNL     1      -4.916   9.202  72.336  1.00  0.00     0.000 HD 
HETATM   14  H   UNL     1      -8.318  11.986  67.531  1.00  0.00     0.000 HD 
HETATM   15  C   UNL     1      -7.961  10.499  68.768  1.00  0.00    -0.127 C  
HETATM   16  H1  UNL     1      -6.226   8.188  72.690  1.00  0.00     0.000 HD 
HETATM   17  C   UNL     1      -5.882  10.328  70.154  1.00  0.00    -0.064 C  
HETATM   18  N   UNL     1      -6.091  12.048  68.396  1.00  0.00    -0.049 NA 
HETATM   19  N   UNL     1      -5.717   8.693  71.965  1.00  0.00    -0.050 NA 
HETATM   20  H1  UNL     1      -5.330  12.568  68.832  1.00  0.00     0.000 HD 
HETATM   21  H2  UNL     1      -6.711  12.653  67.857  1.00  0.00     0.000 HD 
HETATM   22  C   UNL     1      -6.648   9.569  71.245  1.00  0.00     0.027 C  
HETATM   23  C   UNL     1      -6.817  11.281  69.423  1.00  0.00    -0.121 C  
HETATM   24  C   UNL     1      -7.866   8.767  70.670  1.00  0.00    -0.107 C  
BRANCH  24  25
HETATM   25  O   UNL     1      -8.622   8.033  71.670  1.00  0.00    -0.112 OA 
BRANCH  25  26
HETATM   26  C   UNL     1      -9.350   6.887  71.210  1.00  0.00    -0.164 C  
HETATM   27  O   UNL     1      -8.482   5.769  71.012  1.00  0.00    -0.120 OA 
HETATM   28  C   UNL     1      -7.888   5.302  72.232  1.00  0.00    -0.102 C  
HETATM   29  C   UNL     1      -8.977   4.748  73.161  1.00  0.00    -0.114 C  
HETATM   30  H2  UNL     1     -11.823   8.006  71.629  1.00  0.00     0.000 HD 
HETATM   31  C   UNL     1      -9.982   5.861  73.461  1.00  0.00    -0.183 C  
HETATM   32  O   UNL     1      -8.473   4.297  74.428  1.00  0.00    -0.093 OA 
HETATM   33  H1  UNL     1     -12.219   7.336  73.111  1.00  0.00     0.000 HD 
HETATM   34  H   UNL     1      -9.148   3.954  75.003  1.00  0.00     0.000 HD 
HETATM   35  H   UNL     1     -11.695   6.011  74.416  1.00  0.00     0.000 HD 
HETATM   36  N   UNL     1     -11.455   7.594  72.486  1.00  0.00    -0.341 NA 
HETATM   37  O   UNL     1     -11.071   5.320  74.230  1.00  0.00    -0.143 OA 
HETATM   38  C   UNL     1     -10.519   6.492  72.166  1.00  0.00    -0.205 C  
BRANCH  28  39
HETATM   39  C   UNL     1      -6.808   4.273  71.856  1.00  0.00    -0.034 C  
HETATM   40  H2  UNL     1      -7.258   2.911  73.338  1.00  0.00     0.000 HD 
HETATM   41  N   UNL     1      -6.434   3.377  72.959  1.00  0.00    -0.023 NA 
HETATM   42  H1  UNL     1      -5.718   2.694  72.709  1.00  0.00     0.000 HD 
ENDBRANCH  28  39
ENDBRANCH  25  26
ENDBRANCH  24  25
ENDBRANCH  10  11
ENDBRANCH   1  10
BRANCH   5  43
HETATM   43  C   UNL     1     -11.355   6.095  68.549  1.00  0.00     0.046 C  
HETATM   44  O   UNL     1     -10.513   4.983  68.870  1.00  0.00    -0.130 OA 
HETATM   45  H   UNL     1     -10.797   4.595  69.689  1.00  0.00     0.000 HD 
ENDBRANCH   5  43
TORSDOF 6
ENDMDL
MODEL      296
REMARK 921   NORMALIZED FREE ENERGY PREDICTED BY IDOCK:   -2.30 KCAL/MOL
REMARK 922        TOTAL FREE ENERGY PREDICTED BY IDOCK:   -4.75 KCAL/MOL
REMARK 923 INTER-LIGAND FREE ENERGY PREDICTED BY IDOCK:   -3.97 KCAL/MOL
REMARK 924 INTRA-LIGAND FREE ENERGY PREDICTED BY IDOCK:   -0.78 KCAL/MOL
REMARK 927      BINDING AFFINITY PREDICTED BY RF-SCORE:    0.00 PKD
ROOT
HETATM    1  C   UNL     1     -10.454   8.816  69.384  1.00  0.00    -0.222 C  
HETATM    2  O   UNL     1     -12.711  10.765  70.855  1.00  0.00    -0.347 OA 
HETATM    3  O   UNL     1     -11.463   9.218  68.446  1.00  0.00     0.293 OA 
HETATM    4  H   UNL     1     -11.022   9.838  72.487  1.00  0.00     0.000 HD 
HETATM    5  C   UNL     1     -11.715  10.625  68.612  1.00  0.00    -0.158 C  
HETATM    6  H   UNL     1     -12.574  10.940  71.779  1.00  0.00     0.000 HD 
HETATM    7  C   UNL     1     -11.496  10.905  70.093  1.00  0.00    -0.319 C  
HETATM    8  O   UNL     1     -10.986   9.219  71.768  1.00  0.00    -0.369 OA 
HETATM    9  C   UNL     1     -10.513   9.826  70.555  1.00  0.00    -0.301 C  
ENDROOT
BRANCH   1  10
HETATM   10  O   UNL     1      -9.160   8.870  68.779  1.00  0.00    -0.134 OA 
BRANCH  10  11
HETATM   11  C   UNL     1      -8.092   8.083  69.375  1.00  0.00    -0.118 C  
HETATM   12  O   UNL     1      -7.874   9.577  71.277  1.00  0.00    -0.312 OA 
HETATM   13  H2  UNL     1      -4.538   5.201  68.515  1.00  0.00     0.000 HD 
HETATM   14  H   UNL     1      -7.285  10.109  71.799  1.00  0.00     0.000 HD 
HETATM   15  C   UNL     1      -7.139   8.945  70.219  1.00  0.00    -0.049 C  
HETATM   16  H1  UNL     1      -5.935   5.039  67.569  1.00  0.00     0.000 HD 
HETATM   17  C   UNL     1      -5.219   7.385  69.830  1.00  0.00    -0.023 C  
HETATM   18  N   UNL     1      -5.153   9.037  71.662  1.00  0.00    -0.037 NA 
HETATM   19  N   UNL     1      -5.329   5.679  68.082  1.00  0.00    -0.004 NA 
HETATM   20  H1  UNL     1      -4.408   8.499  72.105  1.00  0.00     0.000 HD 
HETATM   21  H2  UNL     1      -5.680   9.591  72.338  1.00  0.00     0.000 HD 
HETATM   22  C   UNL     1      -6.131   6.423  69.059  1.00  0.00    -0.029 C  
HETATM   23  C   UNL     1      -6.020   8.136  70.885  1.00  0.00    -0.033 C  
HETATM   24  C   UNL     1      -7.333   7.161  68.374  1.00  0.00    -0.100 C  
BRANCH  24  25
HETATM   25  O   UNL     1      -8.225   6.286  67.632  1.00  0.00    -0.116 OA 
BRANCH  25  26
HETATM   26  C   UNL     1      -8.742   6.796  66.396  1.00  0.00    -0.138 C  
HETATM   27  O   UNL     1      -7.712   6.899  65.410  1.00  0.00    -0.093 OA 
HETATM   28  C   UNL     1      -7.174   5.623  65.031  1.00  0.00    -0.066 C  
HETATM   29  C   UNL     1      -8.257   4.791  64.331  1.00  0.00    -0.116 C  
HETATM   30  H2  UNL     1     -11.374   6.620  67.160  1.00  0.00     0.000 HD 
HETATM   31  C   UNL     1      -9.430   4.599  65.293  1.00  0.00    -0.158 C  
HETATM   32  O   UNL     1      -7.815   3.478  63.954  1.00  0.00    -0.078 OA 
HETATM   33  H1  UNL     1     -11.809   5.173  66.441  1.00  0.00     0.000 HD 
HETATM   34  H   UNL     1      -8.486   2.963  63.521  1.00  0.00     0.000 HD 
HETATM   35  H   UNL     1     -11.229   3.807  65.203  1.00  0.00     0.000 HD 
HETATM   36  N   UNL     1     -11.034   5.728  66.803  1.00  0.00    -0.248 NA 
HETATM   37  O   UNL     1     -10.500   3.926  64.605  1.00  0.00    -0.230 OA 
HETATM   38  C   UNL     1      -9.928   5.946  65.842  1.00  0.00     0.203 C  
BRANCH  28  39
HETATM   39  C   UNL     1      -5.932   5.885  64.162  1.00  0.00    -0.025 C  
HETATM   40  H2  UNL     1      -5.825   3.999  63.335  1.00  0.00     0.000 HD 
HETATM   41  N   UNL     1      -5.202   4.666  63.790  1.00  0.00    -0.009 NA 
HETATM   42  H1  UNL     1      -4.378   4.840  63.214  1.00  0.00     0.000 HD 
ENDBRANCH  28  39
ENDBRANCH  25  26
ENDBRANCH  24  25
ENDBRANCH  10  11
ENDBRANCH   1  10
BRANCH   5  43
HETATM   43  C   UNL     1     -10.811  11.486  67.720  1.00  0.00    -0.221 C  
HETATM   44  O   UNL     1     -11.459  11.716  66.464  1.00  0.00    -0.411 OA 
HETATM   45  H   UNL     1     -10.899  12.249  65.912  1.00  0.00     0.000 HD 
ENDBRANCH   5  43
TORSDOF 6
ENDMDL
MODEL      297
REMARK 921   NORMALIZED FREE ENERGY PREDICTED BY IDOCK:   -2.21 KCAL/MOL
REMARK 922        TOTAL FREE ENERGY PREDICTED BY IDOCK:   -4.63 KCAL/MOL
REMARK 923 INTER-LIGAND FREE ENERGY PREDICTED BY IDOCK:   -4.27 KCAL/MOL
REMARK 924 INTRA-LIGAND FREE ENERGY PREDICTED BY IDOCK:   -0.36 KCAL/MOL
REMARK 927      BINDING AFFINITY PREDICTED BY RF-SCORE:    0.00 PKD
ROOT
HETATM    1  C   UNL     1      -7.759   8.142  63.519  1.00  0.00    -0.143 C  
HETATM    2  O   UNL     1      -6.037  10.848  62.648  1.00  0.00    -0.300 OA 
HETATM    3  O   UNL     1      -6.351   7.871  63.539  1.00  0.00    -0.062 OA 
HETATM    4  H   UNL     1      -8.530  11.176  62.428  1.00  0.00     0.000 HD 
HETATM    5  C   UNL     1      -5.679   8.967  64.188  1.00  0.00    -0.069 C  
HETATM    6  H   UNL     1      -6.549  11.620  62.438  1.00  0.00     0.000 HD 
HETATM    7  C   UNL     1      -6.499  10.204  63.851  1.00  0.00    -0.120 C  
HETATM    8  O   UNL     1      -8.434  10.233  62.379  1.00  0.00    -0.148 OA 
HETATM    9  C   UNL     1      -7.915   9.679  63.599  1.00  0.00    -0.142 C  
ENDROOT
BRANCH   1  10
HETATM   10  O   UNL     1      -8.398   7.543  64.649  1.00  0.00    -0.094 OA 
BRANCH  10  11
HETATM   11  C   UNL     1      -8.093   6.153  64.952  1.00  0.00    -0.132 C  
HETATM   12  O   UNL     1      -7.946   5.536  62.609  1.00  0.00    -0.081 OA 
HETATM   13  H2  UNL     1      -8.657   2.706  68.030  1.00  0.00     0.000 HD 
HETATM   14  H   UNL     1      -8.247   4.946  61.928  1.00  0.00     0.000 HD 
HETATM   15  C   UNL     1      -8.580   5.199  63.850  1.00  0.00    -0.085 C  
HETATM   16  H1  UNL     1      -8.434   4.274  68.631  1.00  0.00     0.000 HD 
HETATM   17  C   UNL     1      -8.837   3.302  65.465  1.00  0.00    -0.136 C  
HETATM   18  N   UNL     1      -8.753   2.888  63.034  1.00  0.00    -0.085 NA 
HETATM   19  N   UNL     1      -8.815   3.702  67.877  1.00  0.00    -0.107 NA 
HETATM   20  H1  UNL     1      -8.530   1.911  63.220  1.00  0.00     0.000 HD 
HETATM   21  H2  UNL     1      -8.410   3.194  62.123  1.00  0.00     0.000 HD 
HETATM   22  C   UNL     1      -8.265   4.163  66.598  1.00  0.00    -0.101 C  
HETATM   23  C   UNL     1      -8.244   3.730  64.130  1.00  0.00    -0.090 C  
HETATM   24  C   UNL     1      -8.528   5.692  66.376  1.00  0.00    -0.121 C  
BRANCH  24  25
HETATM   25  O   UNL     1      -8.000   6.547  67.426  1.00  0.00    -0.110 OA 
BRANCH  25  26
HETATM   26  C   UNL     1      -8.879   6.834  68.522  1.00  0.00    -0.123 C  
HETATM   27  O   UNL     1      -8.187   7.510  69.574  1.00  0.00    -0.126 OA 
HETATM   28  C   UNL     1      -7.721   8.812  69.189  1.00  0.00    -0.093 C  
HETATM   29  C   UNL     1      -8.919   9.728  68.901  1.00  0.00    -0.144 C  
HETATM   30  H2  UNL     1     -11.162   6.115  67.176  1.00  0.00     0.000 HD 
HETATM   31  C   UNL     1      -9.750   9.114  67.774  1.00  0.00    -0.154 C  
HETATM   32  O   UNL     1      -8.542  11.042  68.466  1.00  0.00    -0.145 OA 
HETATM   33  H1  UNL     1     -11.716   7.615  66.682  1.00  0.00     0.000 HD 
HETATM   34  H   UNL     1      -9.284  11.609  68.288  1.00  0.00     0.000 HD 
HETATM   35  H   UNL     1     -11.456   9.519  66.881  1.00  0.00     0.000 HD 
HETATM   36  N   UNL     1     -10.897   7.076  66.964  1.00  0.00    -0.370 NA 
HETATM   37  O   UNL     1     -10.939   9.901  67.582  1.00  0.00    -0.289 OA 
HETATM   38  C   UNL     1     -10.131   7.659  68.090  1.00  0.00    -0.186 C  
BRANCH  28  39
HETATM   39  C   UNL     1      -6.801   9.324  70.310  1.00  0.00    -0.071 C  
HETATM   40  H2  UNL     1      -7.613   8.177  71.819  1.00  0.00     0.000 HD 
HETATM   41  N   UNL     1      -7.357   9.151  71.658  1.00  0.00    -0.333 NA 
HETATM   42  H1  UNL     1      -6.746   9.490  72.401  1.00  0.00     0.000 HD 
ENDBRANCH  28  39
ENDBRANCH  25  26
ENDBRANCH  24  25
ENDBRANCH  10  11
ENDBRANCH   1  10
BRANCH   5  43
HETATM   43  C   UNL     1      -5.549   8.753  65.702  1.00  0.00    -0.046 C  
HETATM   44  O   UNL     1      -6.420   9.658  66.389  1.00  0.00    -0.068 OA 
HETATM   45  H   UNL     1      -6.339   9.526  67.326  1.00  0.00     0.000 HD 
ENDBRANCH   5  43
TORSDOF 6
ENDMDL
MODEL      298
REMARK 921   NORMALIZED FREE ENERGY PREDICTED BY IDOCK:   -2.15 KCAL/MOL
REMARK 922        TOTAL FREE ENERGY PREDICTED BY IDOCK:   -4.55 KCAL/MOL
REMARK 923 INTER-LIGAND FREE ENERGY PREDICTED BY IDOCK:   -3.73 KCAL/MOL
REMARK 924 INTRA-LIGAND FREE ENERGY PREDICTED BY IDOCK:   -0.81 KCAL/MOL
REMARK 927      BINDING AFFINITY PREDICTED BY RF-SCORE:    0.00 PKD
ROOT
HETATM    1  C   UNL     1      -7.697   7.933  64.739  1.00  0.00    -0.118 C  
HETATM    2  O   UNL     1      -6.782  10.830  63.387  1.00  0.00    -0.355 OA 
HETATM    3  O   UNL     1      -6.269   8.007  64.622  1.00  0.00    -0.048 OA 
HETATM    4  H   UNL     1      -9.289  10.529  63.427  1.00  0.00     0.000 HD 
HETATM    5  C   UNL     1      -5.835   9.306  65.067  1.00  0.00    -0.063 C  
HETATM    6  H   UNL     1      -7.486  11.425  63.157  1.00  0.00     0.000 HD 
HETATM    7  C   UNL     1      -6.963  10.259  64.698  1.00  0.00    -0.079 C  
HETATM    8  O   UNL     1      -8.966   9.637  63.468  1.00  0.00    -0.234 OA 
HETATM    9  C   UNL     1      -8.221   9.387  64.671  1.00  0.00    -0.148 C  
ENDROOT
BRANCH   1  10
HETATM   10  O   UNL     1      -8.066   7.356  65.993  1.00  0.00    -0.110 OA 
BRANCH  10  11
HETATM   11  C   UNL     1      -7.680   5.977  66.253  1.00  0.00    -0.102 C  
HETATM   12  O   UNL     1      -7.151   5.548  63.923  1.00  0.00    -0.046 OA 
HETATM   13  H2  UNL     1      -8.356   2.279  68.999  1.00  0.00     0.000 HD 
HETATM   14  H   UNL     1      -7.299   4.986  63.171  1.00  0.00     0.000 HD 
HETATM   15  C   UNL     1      -7.920   5.070  65.036  1.00  0.00    -0.101 C  
HETATM   16  H1  UNL     1      -8.362   3.812  69.721  1.00  0.00     0.000 HD 
HETATM   17  C   UNL     1      -8.227   3.045  66.477  1.00  0.00    -0.087 C  
HETATM   18  N   UNL     1      -7.766   2.819  64.063  1.00  0.00    -0.075 NA 
HETATM   19  N   UNL     1      -8.580   3.267  68.886  1.00  0.00    -0.074 NA 
HETATM   20  H1  UNL     1      -7.483   1.852  64.220  1.00  0.00     0.000 HD 
HETATM   21  H2  UNL     1      -7.328   3.218  63.232  1.00  0.00     0.000 HD 
HETATM   22  C   UNL     1      -7.900   3.865  67.732  1.00  0.00    -0.078 C  
HETATM   23  C   UNL     1      -7.494   3.616  65.271  1.00  0.00    -0.077 C  
HETATM   24  C   UNL     1      -8.267   5.379  67.567  1.00  0.00    -0.100 C  
BRANCH  24  25
HETATM   25  O   UNL     1      -7.972   6.195  68.733  1.00  0.00    -0.099 OA 
BRANCH  25  26
HETATM   26  C   UNL     1      -9.039   7.011  69.232  1.00  0.00    -0.137 C  
HETATM   27  O   UNL     1      -9.947   6.246  70.027  1.00  0.00    -0.166 OA 
HETATM   28  C   UNL     1      -9.345   5.738  71.227  1.00  0.00    -0.146 C  
HETATM   29  C   UNL     1      -8.960   6.904  72.147  1.00  0.00    -0.132 C  
HETATM   30  H2  UNL     1      -7.904   9.381  68.430  1.00  0.00     0.000 HD 
HETATM   31  C   UNL     1      -7.973   7.810  71.409  1.00  0.00    -0.095 C  
HETATM   32  O   UNL     1      -8.310   6.487  73.357  1.00  0.00    -0.119 OA 
HETATM   33  H1  UNL     1      -7.201   9.887  69.862  1.00  0.00     0.000 HD 
HETATM   34  H   UNL     1      -8.072   7.210  73.927  1.00  0.00     0.000 HD 
HETATM   35  H   UNL     1      -7.089   9.533  71.758  1.00  0.00     0.000 HD 
HETATM   36  N   UNL     1      -7.535   9.082  69.332  1.00  0.00    -0.075 NA 
HETATM   37  O   UNL     1      -7.701   8.970  72.217  1.00  0.00    -0.346 OA 
HETATM   38  C   UNL     1      -8.527   8.243  70.043  1.00  0.00    -0.123 C  
BRANCH  28  39
HETATM   39  C   UNL     1     -10.339   4.748  71.859  1.00  0.00    -0.172 C  
HETATM   40  H2  UNL     1      -9.056   3.134  71.910  1.00  0.00     0.000 HD 
HETATM   41  N   UNL     1     -10.009   3.338  71.609  1.00  0.00    -0.143 NA 
HETATM   42  H1  UNL     1     -10.668   2.682  72.029  1.00  0.00     0.000 HD 
ENDBRANCH  28  39
ENDBRANCH  25  26
ENDBRANCH  24  25
ENDBRANCH  10  11
ENDBRANCH   1  10
BRANCH   5  43
HETATM   43  C   UNL     1      -5.524   9.331  66.569  1.00  0.00    -0.045 C  
HETATM   44  O   UNL     1      -5.480  10.687  67.026  1.00  0.00    -0.041 OA 
HETATM   45  H   UNL     1      -5.287  10.703  67.955  1.00  0.00     0.000 HD 
ENDBRANCH   5  43
TORSDOF 6
ENDMDL
MODEL      299
REMARK 921   NORMALIZED FREE ENERGY PREDICTED BY IDOCK:   -2.11 KCAL/MOL
REMARK 922        TOTAL FREE ENERGY PREDICTED BY IDOCK:   -4.49 KCAL/MOL
REMARK 923 INTER-LIGAND FREE ENERGY PREDICTED BY IDOCK:   -6.13 KCAL/MOL
REMARK 924 INTRA-LIGAND FREE ENERGY PREDICTED BY IDOCK:    1.63 KCAL/MOL
REMARK 927      BINDING AFFINITY PREDICTED BY RF-SCORE:    0.00 PKD
ROOT
HETATM    1  C   UNL     1     -10.968  10.055  70.658  1.00  0.00    -0.322 C  
HETATM    2  O   UNL     1     -13.308  11.295  72.667  1.00  0.00    -0.399 OA 
HETATM    3  O   UNL     1     -11.245   9.145  71.732  1.00  0.00    -0.355 OA 
HETATM    4  H   UNL     1     -12.606  12.929  70.875  1.00  0.00     0.000 HD 
HETATM    5  C   UNL     1     -12.672   9.049  71.900  1.00  0.00    -0.382 C  
HETATM    6  H   UNL     1     -13.650  12.150  72.433  1.00  0.00     0.000 HD 
HETATM    7  C   UNL     1     -13.218  10.419  71.526  1.00  0.00    -0.386 C  
HETATM    8  O   UNL     1     -11.858  12.347  70.938  1.00  0.00    -0.032 OA 
HETATM    9  C   UNL     1     -12.187  11.002  70.556  1.00  0.00    -0.381 C  
ENDROOT
BRANCH   1  10
HETATM   10  O   UNL     1     -10.818   9.343  69.428  1.00  0.00    -0.228 OA 
BRANCH  10  11
HETATM   11  C   UNL     1     -10.197  10.033  68.308  1.00  0.00    -0.173 C  
HETATM   12  O   UNL     1     -12.093  11.518  68.001  1.00  0.00    -0.617 OA 
HETATM   13  H2  UNL     1      -7.211   9.631  64.758  1.00  0.00     0.000 HD 
HETATM   14  H   UNL     1     -12.735  11.862  67.391  1.00  0.00     0.000 HD 
HETATM   15  C   UNL     1     -11.236  10.590  67.322  1.00  0.00    -0.125 C  
HETATM   16  H1  UNL     1      -6.827   8.843  66.208  1.00  0.00     0.000 HD 
HETATM   17  C   UNL     1      -9.638  10.447  65.399  1.00  0.00    -0.303 C  
HETATM   18  N   UNL     1     -11.672  11.837  65.250  1.00  0.00    -0.202 NA 
HETATM   19  N   UNL     1      -7.571   9.153  65.584  1.00  0.00    -0.093 NA 
HETATM   20  H1  UNL     1     -11.255  12.342  64.469  1.00  0.00     0.000 HD 
HETATM   21  H2  UNL     1     -12.364  12.399  65.745  1.00  0.00     0.000 HD 
HETATM   22  C   UNL     1      -8.518   9.981  66.338  1.00  0.00    -0.129 C  
HETATM   23  C   UNL     1     -10.610  11.349  66.146  1.00  0.00    -0.265 C  
HETATM   24  C   UNL     1      -9.071   9.225  67.595  1.00  0.00    -0.125 C  
BRANCH  24  25
HETATM   25  O   UNL     1      -8.043   8.767  68.515  1.00  0.00    -0.113 OA 
BRANCH  25  26
HETATM   26  C   UNL     1      -7.975   7.355  68.749  1.00  0.00    -0.123 C  
HETATM   27  O   UNL     1      -9.194   6.710  68.374  1.00  0.00    -0.125 OA 
HETATM   28  C   UNL     1      -9.455   6.789  66.965  1.00  0.00    -0.146 C  
HETATM   29  C   UNL     1      -8.384   6.005  66.194  1.00  0.00    -0.126 C  
HETATM   30  H2  UNL     1      -5.284   7.346  69.301  1.00  0.00     0.000 HD 
HETATM   31  C   UNL     1      -7.013   6.605  66.507  1.00  0.00    -0.066 C  
HETATM   32  O   UNL     1      -8.545   6.066  64.769  1.00  0.00    -0.303 OA 
HETATM   33  H1  UNL     1      -4.667   6.865  67.822  1.00  0.00     0.000 HD 
HETATM   34  H   UNL     1      -7.882   5.580  64.292  1.00  0.00     0.000 HD 
HETATM   35  H   UNL     1      -5.141   6.174  66.081  1.00  0.00     0.000 HD 
HETATM   36  N   UNL     1      -5.454   7.306  68.297  1.00  0.00    -0.021 NA 
HETATM   37  O   UNL     1      -5.993   5.801  65.886  1.00  0.00    -0.024 OA 
HETATM   38  C   UNL     1      -6.769   6.681  68.022  1.00  0.00    -0.071 C  
BRANCH  28  39
HETATM   39  C   UNL     1     -10.888   6.280  66.731  1.00  0.00    -0.296 C  
HETATM   40  H2  UNL     1     -11.576   6.639  68.642  1.00  0.00     0.000 HD 
HETATM   41  N   UNL     1     -11.582   5.879  67.962  1.00  0.00     0.235 NA 
HETATM   42  H1  UNL     1     -12.532   5.542  67.807  1.00  0.00     0.000 HD 
ENDBRANCH  28  39
ENDBRANCH  25  26
ENDBRANCH  24  25
ENDBRANCH  10  11
ENDBRANCH   1  10
BRANCH   5  43
HETATM   43  C   UNL     1     -13.282   7.929  71.047  1.00  0.00     0.057 C  
HETATM   44  O   UNL     1     -13.734   6.871  71.899  1.00  0.00    -0.492 OA 
HETATM   45  H   UNL     1     -14.112   6.178  71.370  1.00  0.00     0.000 HD 
ENDBRANCH   5  43
TORSDOF 6
ENDMDL
MODEL      300
REMARK 921   NORMALIZED FREE ENERGY PREDICTED BY IDOCK:   -2.09 KCAL/MOL
REMARK 922        TOTAL FREE ENERGY PREDICTED BY IDOCK:   -4.46 KCAL/MOL
REMARK 923 INTER-LIGAND FREE ENERGY PREDICTED BY IDOCK:   -4.90 KCAL/MOL
REMARK 924 INTRA-LIGAND FREE ENERGY PREDICTED BY IDOCK:    0.44 KCAL/MOL
REMARK 927      BINDING AFFINITY PREDICTED BY RF-SCORE:    0.00 PKD
ROOT
HETATM    1  C   UNL     1      -7.635  13.825  68.551  1.00  0.00    -0.134 C  
HETATM    2  O   UNL     1      -5.498  11.317  68.996  1.00  0.00    -0.041 OA 
HETATM    3  O   UNL     1      -7.408  13.597  69.949  1.00  0.00     0.391 OA 
HETATM    4  H   UNL     1      -6.118  11.642  66.570  1.00  0.00     0.000 HD 
HETATM    5  C   UNL     1      -5.996  13.420  70.167  1.00  0.00    -0.139 C  
HETATM    6  H   UNL     1      -5.170  10.903  68.206  1.00  0.00     0.000 HD 
HETATM    7  C   UNL     1      -5.471  12.755  68.902  1.00  0.00    -0.067 C  
HETATM    8  O   UNL     1      -6.848  12.037  67.031  1.00  0.00    -0.143 OA 
HETATM    9  C   UNL     1      -6.445  13.182  67.800  1.00  0.00    -0.153 C  
ENDROOT
BRANCH   1  10
HETATM   10  O   UNL     1      -7.666  15.228  68.273  1.00  0.00    -0.108 OA 
BRANCH  10  11
HETATM   11  C   UNL     1      -8.916  15.806  67.806  1.00  0.00    -0.176 C  
HETATM   12  O   UNL     1      -7.799  17.654  66.696  1.00  0.00    -0.215 OA 
HETATM   13  H2  UNL     1     -13.462  16.285  68.683  1.00  0.00     0.000 HD 
HETATM   14  H   UNL     1      -7.743  18.597  66.597  1.00  0.00     0.000 HD 
HETATM   15  C   UNL     1      -8.824  17.331  67.646  1.00  0.00    -0.220 C  
HETATM   16  H1  UNL     1     -12.742  14.792  69.035  1.00  0.00     0.000 HD 
HETATM   17  C   UNL     1     -11.278  17.624  68.051  1.00  0.00     0.241 C  
HETATM   18  N   UNL     1      -9.947  19.423  67.011  1.00  0.00    -0.341 NA 
HETATM   19  N   UNL     1     -12.616  15.803  68.986  1.00  0.00     0.295 NA 
HETATM   20  H1  UNL     1     -10.809  19.843  66.664  1.00  0.00     0.000 HD 
HETATM   21  H2  UNL     1      -9.141  19.671  66.437  1.00  0.00     0.000 HD 
HETATM   22  C   UNL     1     -11.467  16.103  68.126  1.00  0.00    -0.220 C  
HETATM   23  C   UNL     1     -10.120  17.965  67.125  1.00  0.00    -0.340 C  
HETATM   24  C   UNL     1     -10.173  15.365  68.614  1.00  0.00    -0.217 C  
BRANCH  24  25
HETATM   25  O   UNL     1     -10.307  13.920  68.697  1.00  0.00    -0.239 OA 
BRANCH  25  26
HETATM   26  C   UNL     1     -11.553  13.365  68.258  1.00  0.00    -0.344 C  
HETATM   27  O   UNL     1     -11.397  12.657  67.026  1.00  0.00    -0.287 OA 
HETATM   28  C   UNL     1     -10.557  11.500  67.151  1.00  0.00    -0.237 C  
HETATM   29  C   UNL     1     -11.225  10.470  68.073  1.00  0.00    -0.294 C  
HETATM   30  H2  UNL     1     -12.887  13.928  70.592  1.00  0.00     0.000 HD 
HETATM   31  C   UNL     1     -11.446  11.107  69.445  1.00  0.00    -0.298 C  
HETATM   32  O   UNL     1     -10.430   9.294  68.288  1.00  0.00    -0.209 OA 
HETATM   33  H1  UNL     1     -12.799  12.445  71.364  1.00  0.00     0.000 HD 
HETATM   34  H   UNL     1     -10.844   8.657  68.859  1.00  0.00     0.000 HD 
HETATM   35  H   UNL     1     -12.319  10.588  71.130  1.00  0.00     0.000 HD 
HETATM   36  N   UNL     1     -12.370  13.052  70.665  1.00  0.00    -0.347 NA 
HETATM   37  O   UNL     1     -12.181  10.192  70.278  1.00  0.00    -0.248 OA 
HETATM   38  C   UNL     1     -12.209  12.436  69.328  1.00  0.00    -0.037 C  
BRANCH  28  39
HETATM   39  C   UNL     1     -10.277  10.976  65.732  1.00  0.00    -0.260 C  
HETATM   40  H2  UNL     1     -10.562  12.774  64.761  1.00  0.00     0.000 HD 
HETATM   41  N   UNL     1     -10.864  11.804  64.669  1.00  0.00    -0.295 NA 
HETATM   42  H1  UNL     1     -10.678  11.457  63.728  1.00  0.00     0.000 HD 
ENDBRANCH  28  39
ENDBRANCH  25  26
ENDBRANCH  24  25
ENDBRANCH  10  11
ENDBRANCH   1  10
BRANCH   5  43
HETATM   43  C   UNL     1      -5.284  14.746  70.462  1.00  0.00    -0.121 C  
HETATM   44  O   UNL     1      -5.147  15.496  69.249  1.00  0.00    -0.096 OA 
HETATM   45  H   UNL     1      -4.706  16.316  69.432  1.00  0.00     0.000 HD 
ENDBRANCH   5  43
TORSDOF 6
ENDMDL
MODEL      301
REMARK 921   NORMALIZED FREE ENERGY PREDICTED BY IDOCK:   -2.07 KCAL/MOL
REMARK 922        TOTAL FREE ENERGY PREDICTED BY IDOCK:   -4.45 KCAL/MOL
REMARK 923 INTER-LIGAND FREE ENERGY PREDICTED BY IDOCK:   -5.47 KCAL/MOL
REMARK 924 INTRA-LIGAND FREE ENERGY PREDICTED BY IDOCK:    1.03 KCAL/MOL
REMARK 927      BINDING AFFINITY PREDICTED BY RF-SCORE:    0.00 PKD
ROOT
HETATM    1  C   UNL     1      -8.664   7.155  68.067  1.00  0.00    -0.127 C  
HETATM    2  O   UNL     1      -7.338   5.166  65.756  1.00  0.00    -0.074 OA 
HETATM    3  O   UNL     1      -7.348   6.737  68.456  1.00  0.00    -0.082 OA 
HETATM    4  H   UNL     1      -9.736   5.772  65.250  1.00  0.00     0.000 HD 
HETATM    5  C   UNL     1      -6.471   6.852  67.321  1.00  0.00    -0.049 C  
HETATM    6  H   UNL     1      -7.880   4.987  64.997  1.00  0.00     0.000 HD 
HETATM    7  C   UNL     1      -7.340   6.565  66.105  1.00  0.00    -0.080 C  
HETATM    8  O   UNL     1      -9.678   5.899  66.190  1.00  0.00    -0.137 OA 
HETATM    9  C   UNL     1      -8.759   6.948  66.537  1.00  0.00    -0.133 C  
ENDROOT
BRANCH   1  10
HETATM   10  O   UNL     1      -8.857   8.539  68.369  1.00  0.00    -0.138 OA 
BRANCH  10  11
HETATM   11  C   UNL     1     -10.093   8.931  69.027  1.00  0.00    -0.197 C  
HETATM   12  O   UNL     1     -10.348  10.920  67.659  1.00  0.00    -0.183 OA 
HETATM   13  H2  UNL     1     -12.528   8.750  72.991  1.00  0.00     0.000 HD 
HETATM   14  H   UNL     1     -10.476  11.861  67.651  1.00  0.00     0.000 HD 
HETATM   15  C   UNL     1     -10.300  10.454  69.014  1.00  0.00    -0.214 C  
HETATM   16  H1  UNL     1     -11.641   7.377  72.544  1.00  0.00     0.000 HD 
HETATM   17  C   UNL     1     -11.667  10.389  71.111  1.00  0.00    -0.387 C  
HETATM   18  N   UNL     1     -11.723  12.361  69.628  1.00  0.00    -0.369 NA 
HETATM   19  N   UNL     1     -11.693   8.395  72.526  1.00  0.00    -0.385 NA 
HETATM   20  H1  UNL     1     -12.595  12.652  70.068  1.00  0.00     0.000 HD 
HETATM   21  H2  UNL     1     -11.632  12.722  68.678  1.00  0.00     0.000 HD 
HETATM   22  C   UNL     1     -11.590   8.857  71.138  1.00  0.00    -0.300 C  
HETATM   23  C   UNL     1     -11.611  10.893  69.676  1.00  0.00    -0.322 C  
HETATM   24  C   UNL     1     -10.294   8.314  70.444  1.00  0.00    -0.205 C  
BRANCH  24  25
HETATM   25  O   UNL     1     -10.180   6.865  70.445  1.00  0.00    -0.190 OA 
BRANCH  25  26
HETATM   26  C   UNL     1      -8.967   6.317  70.977  1.00  0.00    -0.143 C  
HETATM   27  O   UNL     1      -8.705   6.821  72.289  1.00  0.00    -0.128 OA 
HETATM   28  C   UNL     1      -9.689   6.412  73.250  1.00  0.00    -0.163 C  
HETATM   29  C   UNL     1      -9.633   4.889  73.434  1.00  0.00    -0.132 C  
HETATM   30  H2  UNL     1      -8.653   4.469  68.970  1.00  0.00     0.000 HD 
HETATM   31  C   UNL     1      -9.906   4.219  72.087  1.00  0.00    -0.167 C  
HETATM   32  O   UNL     1     -10.618   4.387  74.350  1.00  0.00    -0.255 OA 
HETATM   33  H1  UNL     1      -9.283   3.104  69.706  1.00  0.00     0.000 HD 
HETATM   34  H   UNL     1     -10.583   3.444  74.464  1.00  0.00     0.000 HD 
HETATM   35  H   UNL     1      -9.905   2.380  71.386  1.00  0.00     0.000 HD 
HETATM   36  N   UNL     1      -9.283   4.123  69.694  1.00  0.00    -0.125 NA 
HETATM   37  O   UNL     1      -9.735   2.797  72.223  1.00  0.00    -0.127 OA 
HETATM   38  C   UNL     1      -8.967   4.757  70.995  1.00  0.00    -0.126 C  
BRANCH  28  39
HETATM   39  C   UNL     1      -9.431   7.205  74.542  1.00  0.00    -0.040 C  
HETATM   40  H2  UNL     1      -8.727   8.915  73.628  1.00  0.00     0.000 HD 
HETATM   41  N   UNL     1      -8.452   8.290  74.386  1.00  0.00    -0.373 NA 
HETATM   42  H1  UNL     1      -8.282   8.816  75.243  1.00  0.00     0.000 HD 
ENDBRANCH  28  39
ENDBRANCH  25  26
ENDBRANCH  24  25
ENDBRANCH  10  11
ENDBRANCH   1  10
BRANCH   5  43
HETATM   43  C   UNL     1      -5.803   8.231  67.242  1.00  0.00    -0.043 C  
HETATM   44  O   UNL     1      -6.794   9.227  66.968  1.00  0.00    -0.078 OA 
HETATM   45  H   UNL     1      -6.381  10.081  66.919  1.00  0.00     0.000 HD 
ENDBRANCH   5  43
TORSDOF 6
ENDMDL
MODEL      302
REMARK 921   NORMALIZED FREE ENERGY PREDICTED BY IDOCK:   -2.05 KCAL/MOL
REMARK 922        TOTAL FREE ENERGY PREDICTED BY IDOCK:   -4.41 KCAL/MOL
REMARK 923 INTER-LIGAND FREE ENERGY PREDICTED BY IDOCK:   -5.84 KCAL/MOL
REMARK 924 INTRA-LIGAND FREE ENERGY PREDICTED BY IDOCK:    1.42 KCAL/MOL
REMARK 927      BINDING AFFINITY PREDICTED BY RF-SCORE:    0.00 PKD
ROOT
HETATM    1  C   UNL     1     -11.690  15.060  67.866  1.00  0.00    -0.289 C  
HETATM    2  O   UNL     1     -11.920  14.025  71.017  1.00  0.00    -0.427 OA 
HETATM    3  O   UNL     1     -11.666  16.176  68.767  1.00  0.00    -0.364 OA 
HETATM    4  H   UNL     1     -12.173  12.139  69.358  1.00  0.00     0.000 HD 
HETATM    5  C   UNL     1     -10.781  15.870  69.860  1.00  0.00    -0.334 C  
HETATM    6  H   UNL     1     -11.989  13.087  71.145  1.00  0.00     0.000 HD 
HETATM    7  C   UNL     1     -10.893  14.366  70.065  1.00  0.00     0.078 C  
HETATM    8  O   UNL     1     -12.408  12.904  68.848  1.00  0.00    -0.093 OA 
HETATM    9  C   UNL     1     -11.306  13.813  68.698  1.00  0.00    -0.287 C  
ENDROOT
BRANCH   1  10
HETATM   10  O   UNL     1     -10.733  15.243  66.820  1.00  0.00    -0.304 OA 
BRANCH  10  11
HETATM   11  C   UNL     1      -9.596  16.113  67.075  1.00  0.00    -0.224 C  
HETATM   12  O   UNL     1     -10.895  18.133  66.724  1.00  0.00    -0.258 OA 
HETATM   13  H2  UNL     1      -4.961  16.499  66.860  1.00  0.00     0.000 HD 
HETATM   14  H   UNL     1     -10.962  18.957  66.255  1.00  0.00     0.000 HD 
HETATM   15  C   UNL     1      -9.705  17.446  66.317  1.00  0.00    -0.261 C  
HETATM   16  H1  UNL     1      -5.610  15.000  67.309  1.00  0.00     0.000 HD 
HETATM   17  C   UNL     1      -7.216  17.720  66.237  1.00  0.00    -0.331 C  
HETATM   18  N   UNL     1      -8.712  19.638  65.822  1.00  0.00    -0.367 NA 
HETATM   19  N   UNL     1      -5.735  15.844  66.750  1.00  0.00    -0.060 NA 
HETATM   20  H1  UNL     1      -7.933  20.270  66.005  1.00  0.00     0.000 HD 
HETATM   21  H2  UNL     1      -9.615  20.078  66.005  1.00  0.00     0.000 HD 
HETATM   22  C   UNL     1      -7.029  16.450  67.077  1.00  0.00    -0.219 C  
HETATM   23  C   UNL     1      -8.533  18.396  66.592  1.00  0.00    -0.269 C  
HETATM   24  C   UNL     1      -8.206  15.432  66.889  1.00  0.00    -0.246 C  
BRANCH  24  25
HETATM   25  O   UNL     1      -8.071  14.214  67.669  1.00  0.00    -0.151 OA 
BRANCH  25  26
HETATM   26  C   UNL     1      -6.965  13.363  67.343  1.00  0.00    -0.083 C  
HETATM   27  O   UNL     1      -6.027  13.300  68.419  1.00  0.00    -0.076 OA 
HETATM   28  C   UNL     1      -6.570  12.683  69.596  1.00  0.00     0.010 C  
HETATM   29  C   UNL     1      -6.885  11.208  69.311  1.00  0.00    -0.110 C  
HETATM   30  H2  UNL     1      -8.105  12.381  65.045  1.00  0.00     0.000 HD 
HETATM   31  C   UNL     1      -7.896  11.133  68.166  1.00  0.00    -0.118 C  
HETATM   32  O   UNL     1      -7.473  10.523  70.426  1.00  0.00    -0.452 OA 
HETATM   33  H1  UNL     1      -8.720  10.927  65.601  1.00  0.00     0.000 HD 
HETATM   34  H   UNL     1      -7.668   9.610  70.249  1.00  0.00     0.000 HD 
HETATM   35  H   UNL     1      -8.733   9.707  67.099  1.00  0.00     0.000 HD 
HETATM   36  N   UNL     1      -8.429  11.869  65.864  1.00  0.00     0.181 NA 
HETATM   37  O   UNL     1      -8.105   9.754  67.810  1.00  0.00    -0.111 OA 
HETATM   38  C   UNL     1      -7.412  11.922  66.940  1.00  0.00    -0.079 C  
BRANCH  28  39
HETATM   39  C   UNL     1      -5.559  12.894  70.737  1.00  0.00    -0.177 C  
HETATM   40  H2  UNL     1      -6.467  14.559  71.547  1.00  0.00     0.000 HD 
HETATM   41  N   UNL     1      -5.534  14.267  71.259  1.00  0.00    -0.171 NA 
HETATM   42  H1  UNL     1      -4.863  14.407  72.015  1.00  0.00     0.000 HD 
ENDBRANCH  28  39
ENDBRANCH  25  26
ENDBRANCH  24  25
ENDBRANCH  10  11
ENDBRANCH   1  10
BRANCH   5  43
HETATM   43  C   UNL     1      -9.338  16.310  69.578  1.00  0.00    -0.028 C  
HETATM   44  O   UNL     1      -8.430  15.340  70.113  1.00  0.00    -0.215 OA 
HETATM   45  H   UNL     1      -7.537  15.612  69.939  1.00  0.00     0.000 HD 
ENDBRANCH   5  43
TORSDOF 6
ENDMDL
MODEL      303
REMARK 921   NORMALIZED FREE ENERGY PREDICTED BY IDOCK:   -1.83 KCAL/MOL
REMARK 922        TOTAL FREE ENERGY PREDICTED BY IDOCK:   -4.11 KCAL/MOL
REMARK 923 INTER-LIGAND FREE ENERGY PREDICTED BY IDOCK:   -4.35 KCAL/MOL
REMARK 924 INTRA-LIGAND FREE ENERGY PREDICTED BY IDOCK:    0.24 KCAL/MOL
REMARK 927      BINDING AFFINITY PREDICTED BY RF-SCORE:    0.00 PKD
ROOT
HETATM    1  C   UNL     1     -10.352   8.732  69.649  1.00  0.00    -0.213 C  
HETATM    2  O   UNL     1     -12.308  11.356  69.067  1.00  0.00    -0.407 OA 
HETATM    3  O   UNL     1     -10.594   8.879  68.242  1.00  0.00    -0.212 OA 
HETATM    4  H   UNL     1     -12.011  10.899  71.532  1.00  0.00     0.000 HD 
HETATM    5  C   UNL     1     -10.446  10.267  67.890  1.00  0.00    -0.212 C  
HETATM    6  H   UNL     1     -12.592  11.843  69.831  1.00  0.00     0.000 HD 
HETATM    7  C   UNL     1     -10.901  11.048  69.114  1.00  0.00    -0.237 C  
HETATM    8  O   UNL     1     -11.823  10.057  71.134  1.00  0.00    -0.339 OA 
HETATM    9  C   UNL     1     -10.658  10.104  70.295  1.00  0.00    -0.264 C  
ENDROOT
BRANCH   1  10
HETATM   10  O   UNL     1      -8.983   8.393  69.886  1.00  0.00    -0.139 OA 
BRANCH  10  11
HETATM   11  C   UNL     1      -8.699   7.253  70.744  1.00  0.00    -0.146 C  
HETATM   12  O   UNL     1     -10.005   8.145  72.586  1.00  0.00    -0.259 OA 
HETATM   13  H2  UNL     1      -5.628   3.899  71.740  1.00  0.00     0.000 HD 
HETATM   14  H   UNL     1     -10.013   8.378  73.507  1.00  0.00     0.000 HD 
HETATM   15  C   UNL     1      -8.713   7.631  72.234  1.00  0.00    -0.124 C  
HETATM   16  H1  UNL     1      -5.849   4.310  70.112  1.00  0.00     0.000 HD 
HETATM   17  C   UNL     1      -7.110   5.797  72.819  1.00  0.00    -0.089 C  
HETATM   18  N   UNL     1      -8.468   6.892  74.564  1.00  0.00    -0.160 NA 
HETATM   19  N   UNL     1      -5.842   4.642  71.076  1.00  0.00    -0.016 NA 
HETATM   20  H1  UNL     1      -8.290   6.101  75.182  1.00  0.00     0.000 HD 
HETATM   21  H2  UNL     1      -9.335   7.376  74.799  1.00  0.00     0.000 HD 
HETATM   22  C   UNL     1      -7.121   5.298  71.368  1.00  0.00    -0.066 C  
HETATM   23  C   UNL     1      -8.446   6.441  73.163  1.00  0.00    -0.119 C  
HETATM   24  C   UNL     1      -7.427   6.445  70.345  1.00  0.00    -0.094 C  
BRANCH  24  25
HETATM   25  O   UNL     1      -7.449   6.017  68.957  1.00  0.00    -0.082 OA 
BRANCH  25  26
HETATM   26  C   UNL     1      -6.279   6.300  68.179  1.00  0.00    -0.032 C  
HETATM   27  O   UNL     1      -6.103   5.333  67.141  1.00  0.00    -0.028 OA 
HETATM   28  C   UNL     1      -7.153   5.368  66.163  1.00  0.00    -0.072 C  
HETATM   29  C   UNL     1      -7.121   6.707  65.414  1.00  0.00    -0.064 C  
HETATM   30  H2  UNL     1      -5.843   8.763  69.314  1.00  0.00     0.000 HD 
HETATM   31  C   UNL     1      -7.307   7.841  66.423  1.00  0.00    -0.079 C  
HETATM   32  O   UNL     1      -8.168   6.845  64.443  1.00  0.00    -0.274 OA 
HETATM   33  H1  UNL     1      -6.531   9.761  68.160  1.00  0.00     0.000 HD 
HETATM   34  H   UNL     1      -8.148   7.674  63.979  1.00  0.00     0.000 HD 
HETATM   35  H   UNL     1      -7.271   9.808  66.375  1.00  0.00     0.000 HD 
HETATM   36  N   UNL     1      -6.523   8.821  68.556  1.00  0.00    -0.054 NA 
HETATM   37  O   UNL     1      -7.155   9.103  65.748  1.00  0.00    -0.083 OA 
HETATM   38  C   UNL     1      -6.292   7.738  67.573  1.00  0.00    -0.055 C  
BRANCH  28  39
HETATM   39  C   UNL     1      -6.978   4.141  65.253  1.00  0.00    -0.058 C  
HETATM   40  H2  UNL     1      -8.642   3.120  65.916  1.00  0.00     0.000 HD 
HETATM   41  N   UNL     1      -7.653   2.934  65.748  1.00  0.00    -0.073 NA 
HETATM   42  H1  UNL     1      -7.537   2.120  65.144  1.00  0.00     0.000 HD 
ENDBRANCH  28  39
ENDBRANCH  25  26
ENDBRANCH  24  25
ENDBRANCH  10  11
ENDBRANCH   1  10
BRANCH   5  43
HETATM   43  C   UNL     1      -9.006  10.613  67.485  1.00  0.00    -0.135 C  
HETATM   44  O   UNL     1      -8.856  12.035  67.423  1.00  0.00    -0.165 OA 
HETATM   45  H   UNL     1      -7.966  12.249  67.172  1.00  0.00     0.000 HD 
ENDBRANCH   5  43
TORSDOF 6
ENDMDL
MODEL      304
REMARK 921   NORMALIZED FREE ENERGY PREDICTED BY IDOCK:   -1.75 KCAL/MOL
REMARK 922        TOTAL FREE ENERGY PREDICTED BY IDOCK:   -4.01 KCAL/MOL
REMARK 923 INTER-LIGAND FREE ENERGY PREDICTED BY IDOCK:   -4.89 KCAL/MOL
REMARK 924 INTRA-LIGAND FREE ENERGY PREDICTED BY IDOCK:    0.88 KCAL/MOL
REMARK 927      BINDING AFFINITY PREDICTED BY RF-SCORE:    0.00 PKD
ROOT
HETATM    1  C   UNL     1      -8.523   6.850  69.449  1.00  0.00    -0.133 C  
HETATM    2  O   UNL     1      -5.592   7.303  70.951  1.00  0.00    -0.027 OA 
HETATM    3  O   UNL     1      -8.706   7.432  70.747  1.00  0.00    -0.142 OA 
HETATM    4  H   UNL     1      -5.373   6.083  68.752  1.00  0.00     0.000 HD 
HETATM    5  C   UNL     1      -7.744   8.489  70.920  1.00  0.00    -0.090 C  
HETATM    6  H   UNL     1      -4.825   7.030  70.462  1.00  0.00     0.000 HD 
HETATM    7  C   UNL     1      -6.515   8.052  70.136  1.00  0.00    -0.036 C  
HETATM    8  O   UNL     1      -6.275   5.916  68.999  1.00  0.00    -0.032 OA 
HETATM    9  C   UNL     1      -7.054   7.122  69.046  1.00  0.00    -0.084 C  
ENDROOT
BRANCH   1  10
HETATM   10  O   UNL     1      -9.395   7.466  68.498  1.00  0.00    -0.142 OA 
BRANCH  10  11
HETATM   11  C   UNL     1      -9.295   7.052  67.108  1.00  0.00    -0.143 C  
HETATM   12  O   UNL     1      -8.991   4.715  67.687  1.00  0.00    -0.107 OA 
HETATM   13  H2  UNL     1      -8.049   8.361  62.817  1.00  0.00     0.000 HD 
HETATM   14  H   UNL     1      -8.452   3.939  67.582  1.00  0.00     0.000 HD 
HETATM   15  C   UNL     1      -8.424   5.798  66.938  1.00  0.00    -0.108 C  
HETATM   16  H1  UNL     1      -8.802   9.511  63.807  1.00  0.00     0.000 HD 
HETATM   17  C   UNL     1      -7.780   6.437  64.603  1.00  0.00    -0.107 C  
HETATM   18  N   UNL     1      -7.468   4.126  65.411  1.00  0.00    -0.076 NA 
HETATM   19  N   UNL     1      -8.186   8.699  63.769  1.00  0.00    -0.162 NA 
HETATM   20  H1  UNL     1      -7.403   3.810  64.444  1.00  0.00     0.000 HD 
HETATM   21  H2  UNL     1      -7.786   3.386  66.038  1.00  0.00     0.000 HD 
HETATM   22  C   UNL     1      -8.707   7.658  64.661  1.00  0.00     0.346 C  
HETATM   23  C   UNL     1      -8.325   5.322  65.484  1.00  0.00    -0.130 C  
HETATM   24  C   UNL     1      -8.899   8.192  66.121  1.00  0.00    -0.162 C  
BRANCH  24  25
HETATM   25  O   UNL     1      -9.773   9.349  66.223  1.00  0.00    -0.220 OA 
BRANCH  25  26
HETATM   26  C   UNL     1      -9.138  10.634  66.225  1.00  0.00    -0.167 C  
HETATM   27  O   UNL     1      -8.950  11.119  64.893  1.00  0.00    -0.151 OA 
HETATM   28  C   UNL     1     -10.189  11.375  64.214  1.00  0.00    -0.315 C  
HETATM   29  C   UNL     1     -10.936  12.521  64.910  1.00  0.00    -0.300 C  
HETATM   30  H2  UNL     1      -9.358  10.992  68.939  1.00  0.00     0.000 HD 
HETATM   31  C   UNL     1     -11.207  12.123  66.361  1.00  0.00    -0.331 C  
HETATM   32  O   UNL     1     -12.210  12.815  64.318  1.00  0.00    -0.385 OA 
HETATM   33  H1  UNL     1     -10.722  11.958  69.015  1.00  0.00     0.000 HD 
HETATM   34  H   UNL     1     -12.672  13.525  64.749  1.00  0.00     0.000 HD 
HETATM   35  H   UNL     1     -11.966  12.991  67.956  1.00  0.00     0.000 HD 
HETATM   36  N   UNL     1     -10.214  11.268  68.461  1.00  0.00    -0.198 NA 
HETATM   37  O   UNL     1     -11.797  13.238  67.054  1.00  0.00    -0.365 OA 
HETATM   38  C   UNL     1      -9.916  11.689  67.072  1.00  0.00    -0.204 C  
BRANCH  28  39
HETATM   39  C   UNL     1      -9.857  11.653  62.738  1.00  0.00    -0.017 C  
HETATM   40  H2  UNL     1      -7.924  10.936  62.795  1.00  0.00     0.000 HD 
HETATM   41  N   UNL     1      -8.417  11.765  62.466  1.00  0.00    -0.485 NA 
HETATM   42  H1  UNL     1      -8.198  11.950  61.487  1.00  0.00     0.000 HD 
ENDBRANCH  28  39
ENDBRANCH  25  26
ENDBRANCH  24  25
ENDBRANCH  10  11
ENDBRANCH   1  10
BRANCH   5  43
HETATM   43  C   UNL     1      -8.281   9.846  70.445  1.00  0.00     0.036 C  
HETATM   44  O   UNL     1      -7.189  10.751  70.251  1.00  0.00    -0.453 OA 
HETATM   45  H   UNL     1      -7.521  11.591  69.957  1.00  0.00     0.000 HD 
ENDBRANCH   5  43
TORSDOF 6
ENDMDL
MODEL      305
REMARK 921   NORMALIZED FREE ENERGY PREDICTED BY IDOCK:   -1.72 KCAL/MOL
REMARK 922        TOTAL FREE ENERGY PREDICTED BY IDOCK:   -3.96 KCAL/MOL
REMARK 923 INTER-LIGAND FREE ENERGY PREDICTED BY IDOCK:   -3.29 KCAL/MOL
REMARK 924 INTRA-LIGAND FREE ENERGY PREDICTED BY IDOCK:   -0.67 KCAL/MOL
REMARK 927      BINDING AFFINITY PREDICTED BY RF-SCORE:    0.00 PKD
ROOT
HETATM    1  C   UNL     1      -7.246   7.482  65.110  1.00  0.00    -0.066 C  
HETATM    2  O   UNL     1      -7.242  10.797  64.863  1.00  0.00    -0.356 OA 
HETATM    3  O   UNL     1      -6.001   8.021  65.576  1.00  0.00    -0.037 OA 
HETATM    4  H   UNL     1      -9.312   9.755  63.861  1.00  0.00     0.000 HD 
HETATM    5  C   UNL     1      -6.275   9.157  66.417  1.00  0.00    -0.065 C  
HETATM    6  H   UNL     1      -8.030  11.191  64.508  1.00  0.00     0.000 HD 
HETATM    7  C   UNL     1      -7.538   9.788  65.848  1.00  0.00    -0.103 C  
HETATM    8  O   UNL     1      -8.682   9.045  63.835  1.00  0.00    -0.179 OA 
HETATM    9  C   UNL     1      -8.272   8.639  65.151  1.00  0.00    -0.151 C  
ENDROOT
BRANCH   1  10
HETATM   10  O   UNL     1      -7.687   6.428  65.970  1.00  0.00    -0.088 OA 
BRANCH  10  11
HETATM   11  C   UNL     1      -6.746   5.368  66.292  1.00  0.00    -0.057 C  
HETATM   12  O   UNL     1      -5.921   5.225  64.014  1.00  0.00    -0.020 OA 
HETATM   13  H2  UNL     1      -5.884   1.753  69.097  1.00  0.00     0.000 HD 
HETATM   14  H   UNL     1      -5.751   4.659  63.270  1.00  0.00     0.000 HD 
HETATM   15  C   UNL     1      -6.470   4.452  65.089  1.00  0.00    -0.036 C  
HETATM   16  H1  UNL     1      -6.625   3.119  69.773  1.00  0.00     0.000 HD 
HETATM   17  C   UNL     1      -5.938   2.501  66.567  1.00  0.00    -0.023 C  
HETATM   18  N   UNL     1      -5.260   2.510  64.194  1.00  0.00    -0.008 NA 
HETATM   19  N   UNL     1      -6.518   2.536  68.942  1.00  0.00    -0.029 NA 
HETATM   20  H1  UNL     1      -4.586   1.772  64.396  1.00  0.00     0.000 HD 
HETATM   21  H2  UNL     1      -4.990   3.064  63.381  1.00  0.00     0.000 HD 
HETATM   22  C   UNL     1      -6.099   3.377  67.815  1.00  0.00    -0.028 C  
HETATM   23  C   UNL     1      -5.457   3.342  65.393  1.00  0.00    -0.010 C  
HETATM   24  C   UNL     1      -7.092   4.567  67.584  1.00  0.00    -0.065 C  
BRANCH  24  25
HETATM   25  O   UNL     1      -7.273   5.426  68.743  1.00  0.00    -0.063 OA 
BRANCH  25  26
HETATM   26  C   UNL     1      -8.215   4.984  69.728  1.00  0.00    -0.077 C  
HETATM   27  O   UNL     1      -8.159   5.801  70.899  1.00  0.00    -0.114 OA 
HETATM   28  C   UNL     1      -8.566   7.155  70.653  1.00  0.00    -0.143 C  
HETATM   29  C   UNL     1     -10.051   7.189  70.264  1.00  0.00    -0.188 C  
HETATM   30  H2  UNL     1      -9.476   3.207  68.056  1.00  0.00     0.000 HD 
HETATM   31  C   UNL     1     -10.250   6.345  69.005  1.00  0.00    -0.183 C  
HETATM   32  O   UNL     1     -10.533   8.506  69.958  1.00  0.00    -0.213 OA 
HETATM   33  H1  UNL     1     -10.799   4.115  67.581  1.00  0.00     0.000 HD 
HETATM   34  H   UNL     1     -11.452   8.526  69.718  1.00  0.00     0.000 HD 
HETATM   35  H   UNL     1     -11.778   5.745  67.921  1.00  0.00     0.000 HD 
HETATM   36  N   UNL     1      -9.843   4.150  67.936  1.00  0.00    -0.093 NA 
HETATM   37  O   UNL     1     -11.655   6.270  68.704  1.00  0.00    -0.125 OA 
HETATM   38  C   UNL     1      -9.677   4.930  69.184  1.00  0.00    -0.182 C  
BRANCH  28  39
HETATM   39  C   UNL     1      -8.234   7.974  71.912  1.00  0.00    -0.126 C  
HETATM   40  H2  UNL     1      -8.000   9.787  70.956  1.00  0.00     0.000 HD 
HETATM   41  N   UNL     1      -7.498   9.215  71.635  1.00  0.00    -0.340 NA 
HETATM   42  H1  UNL     1      -7.278   9.758  72.470  1.00  0.00     0.000 HD 
ENDBRANCH  28  39
ENDBRANCH  25  26
ENDBRANCH  24  25
ENDBRANCH  10  11
ENDBRANCH   1  10
BRANCH   5  43
HETATM   43  C   UNL     1      -6.438   8.761  67.890  1.00  0.00    -0.057 C  
HETATM   44  O   UNL     1      -7.220   9.752  68.567  1.00  0.00    -0.069 OA 
HETATM   45  H   UNL     1      -7.321   9.508  69.479  1.00  0.00     0.000 HD 
ENDBRANCH   5  43
TORSDOF 6
ENDMDL
MODEL      306
REMARK 921   NORMALIZED FREE ENERGY PREDICTED BY IDOCK:   -1.50 KCAL/MOL
REMARK 922        TOTAL FREE ENERGY PREDICTED BY IDOCK:   -3.67 KCAL/MOL
REMARK 923 INTER-LIGAND FREE ENERGY PREDICTED BY IDOCK:   -3.79 KCAL/MOL
REMARK 924 INTRA-LIGAND FREE ENERGY PREDICTED BY IDOCK:    0.12 KCAL/MOL
REMARK 927      BINDING AFFINITY PREDICTED BY RF-SCORE:    0.00 PKD
ROOT
HETATM    1  C   UNL     1      -8.920   9.617  68.804  1.00  0.00    -0.134 C  
HETATM    2  O   UNL     1     -11.664  11.478  68.566  1.00  0.00    -0.290 OA 
HETATM    3  O   UNL     1     -10.066   8.889  69.268  1.00  0.00    -0.191 OA 
HETATM    4  H   UNL     1      -9.571  12.761  67.975  1.00  0.00     0.000 HD 
HETATM    5  C   UNL     1     -11.147   9.087  68.338  1.00  0.00     0.215 C  
HETATM    6  H   UNL     1     -11.546  12.356  68.222  1.00  0.00     0.000 HD 
HETATM    7  C   UNL     1     -10.957  10.493  67.788  1.00  0.00    -0.313 C  
HETATM    8  O   UNL     1      -9.243  12.055  68.518  1.00  0.00    -0.185 OA 
HETATM    9  C   UNL     1      -9.456  10.767  67.919  1.00  0.00    -0.157 C  
ENDROOT
BRANCH   1  10
HETATM   10  O   UNL     1      -8.075   8.772  68.020  1.00  0.00    -0.106 OA 
BRANCH  10  11
HETATM   11  C   UNL     1      -7.831   9.142  66.635  1.00  0.00    -0.100 C  
HETATM   12  O   UNL     1      -8.969   7.179  65.771  1.00  0.00    -0.314 OA 
HETATM   13  H2  UNL     1      -4.965  11.388  63.734  1.00  0.00     0.000 HD 
HETATM   14  H   UNL     1      -8.912   6.420  65.202  1.00  0.00     0.000 HD 
HETATM   15  C   UNL     1      -7.739   7.914  65.715  1.00  0.00    -0.090 C  
HETATM   16  H1  UNL     1      -5.241  12.072  65.260  1.00  0.00     0.000 HD 
HETATM   17  C   UNL     1      -6.246   9.110  64.098  1.00  0.00    -0.076 C  
HETATM   18  N   UNL     1      -7.427   7.046  63.437  1.00  0.00    -0.085 NA 
HETATM   19  N   UNL     1      -5.159  11.210  64.719  1.00  0.00    -0.216 NA 
HETATM   20  H1  UNL     1      -7.276   7.288  62.458  1.00  0.00     0.000 HD 
HETATM   21  H2  UNL     1      -8.243   6.447  63.563  1.00  0.00     0.000 HD 
HETATM   22  C   UNL     1      -6.369  10.405  64.912  1.00  0.00    -0.086 C  
HETATM   23  C   UNL     1      -7.512   8.276  64.242  1.00  0.00    -0.107 C  
HETATM   24  C   UNL     1      -6.644  10.131  66.430  1.00  0.00    -0.084 C  
BRANCH  24  25
HETATM   25  O   UNL     1      -6.770  11.331  67.240  1.00  0.00    -0.086 OA 
BRANCH  25  26
HETATM   26  C   UNL     1      -5.549  11.959  67.650  1.00  0.00    -0.075 C  
HETATM   27  O   UNL     1      -5.500  13.322  67.223  1.00  0.00    -0.351 OA 
HETATM   28  C   UNL     1      -6.504  14.137  67.846  1.00  0.00    -0.165 C  
HETATM   29  C   UNL     1      -6.238  14.225  69.355  1.00  0.00    -0.111 C  
HETATM   30  H2  UNL     1      -4.757   9.882  69.264  1.00  0.00     0.000 HD 
HETATM   31  C   UNL     1      -6.268  12.815  69.945  1.00  0.00    -0.084 C  
HETATM   32  O   UNL     1      -7.223  14.990  70.066  1.00  0.00    -0.235 OA 
HETATM   33  H1  UNL     1      -5.245  10.451  70.761  1.00  0.00     0.000 HD 
HETATM   34  H   UNL     1      -7.058  15.045  71.000  1.00  0.00     0.000 HD 
HETATM   35  H   UNL     1      -5.918  11.999  71.701  1.00  0.00     0.000 HD 
HETATM   36  N   UNL     1      -5.398  10.506  69.754  1.00  0.00    -0.038 NA 
HETATM   37  O   UNL     1      -5.899  12.876  71.334  1.00  0.00    -0.343 OA 
HETATM   38  C   UNL     1      -5.315  11.874  69.191  1.00  0.00    -0.051 C  
BRANCH  28  39
HETATM   39  C   UNL     1      -6.501  15.500  67.132  1.00  0.00     0.124 C  
HETATM   40  H2  UNL     1      -6.881  16.640  68.808  1.00  0.00     0.000 HD 
HETATM   41  N   UNL     1      -7.233  16.548  67.856  1.00  0.00    -0.136 NA 
HETATM   42  H1  UNL     1      -7.231  17.452  67.382  1.00  0.00     0.000 HD 
ENDBRANCH  28  39
ENDBRANCH  25  26
ENDBRANCH  24  25
ENDBRANCH  10  11
ENDBRANCH   1  10
BRANCH   5  43
HETATM   43  C   UNL     1     -11.159   8.027  67.228  1.00  0.00     0.356 C  
HETATM   44  O   UNL     1     -10.881   6.741  67.792  1.00  0.00    -0.280 OA 
HETATM   45  H   UNL     1     -10.888   6.085  67.105  1.00  0.00     0.000 HD 
ENDBRANCH   5  43
TORSDOF 6
ENDMDL
MODEL      307
REMARK 921   NORMALIZED FREE ENERGY PREDICTED BY IDOCK:   -1.39 KCAL/MOL
REMARK 922        TOTAL FREE ENERGY PREDICTED BY IDOCK:   -3.52 KCAL/MOL
REMARK 923 INTER-LIGAND FREE ENERGY PREDICTED BY IDOCK:   -2.30 KCAL/MOL
REMARK 924 INTRA-LIGAND FREE ENERGY PREDICTED BY IDOCK:   -1.22 KCAL/MOL
REMARK 927      BINDING AFFINITY PREDICTED BY RF-SCORE:    0.00 PKD
ROOT
HETATM    1  C   UNL     1      -7.976   9.551  69.734  1.00  0.00    -0.133 C  
HETATM    2  O   UNL     1     -10.742   8.605  71.318  1.00  0.00    -0.223 OA 
HETATM    3  O   UNL     1      -7.743   9.463  71.147  1.00  0.00    -0.318 OA 
HETATM    4  H   UNL     1     -11.124   8.996  68.853  1.00  0.00     0.000 HD 
HETATM    5  C   UNL     1      -8.332   8.244  71.637  1.00  0.00    -0.147 C  
HETATM    6  H   UNL     1     -11.505   8.454  70.773  1.00  0.00     0.000 HD 
HETATM    7  C   UNL     1      -9.555   8.003  70.764  1.00  0.00    -0.162 C  
HETATM    8  O   UNL     1     -10.350   9.516  69.034  1.00  0.00    -0.192 OA 
HETATM    9  C   UNL     1      -9.237   8.704  69.440  1.00  0.00    -0.150 C  
ENDROOT
BRANCH   1  10
HETATM   10  O   UNL     1      -6.866   9.014  69.011  1.00  0.00    -0.054 OA 
BRANCH  10  11
HETATM   11  C   UNL     1      -7.059   8.682  67.608  1.00  0.00    -0.080 C  
HETATM   12  O   UNL     1      -6.739   6.306  67.989  1.00  0.00    -0.059 OA 
HETATM   13  H2  UNL     1      -6.631  10.212  63.231  1.00  0.00     0.000 HD 
HETATM   14  H   UNL     1      -6.262   5.524  67.737  1.00  0.00     0.000 HD 
HETATM   15  C   UNL     1      -6.288   7.416  67.201  1.00  0.00    -0.055 C  
HETATM   16  H1  UNL     1      -7.128  11.321  64.412  1.00  0.00     0.000 HD 
HETATM   17  C   UNL     1      -6.092   8.176  64.823  1.00  0.00    -0.049 C  
HETATM   18  N   UNL     1      -5.719   5.813  65.428  1.00  0.00    -0.016 NA 
HETATM   19  N   UNL     1      -6.564  10.496  64.208  1.00  0.00     0.005 NA 
HETATM   20  H1  UNL     1      -5.858   5.554  64.452  1.00  0.00     0.000 HD 
HETATM   21  H2  UNL     1      -5.937   5.046  66.064  1.00  0.00     0.000 HD 
HETATM   22  C   UNL     1      -6.941   9.417  65.129  1.00  0.00    -0.092 C  
HETATM   23  C   UNL     1      -6.497   7.026  65.733  1.00  0.00    -0.051 C  
HETATM   24  C   UNL     1      -6.819   9.868  66.625  1.00  0.00    -0.084 C  
BRANCH  24  25
HETATM   25  O   UNL     1      -7.609  11.041  66.960  1.00  0.00    -0.113 OA 
BRANCH  25  26
HETATM   26  C   UNL     1      -6.970  12.313  66.797  1.00  0.00     0.189 C  
HETATM   27  O   UNL     1      -7.907  13.314  66.394  1.00  0.00     0.702 OA 
HETATM   28  C   UNL     1      -8.901  13.581  67.394  1.00  0.00    -0.221 C  
HETATM   29  C   UNL     1      -8.237  14.193  68.636  1.00  0.00    -0.116 C  
HETATM   30  H2  UNL     1      -4.585  11.512  67.900  1.00  0.00     0.000 HD 
HETATM   31  C   UNL     1      -7.201  13.207  69.177  1.00  0.00     0.077 C  
HETATM   32  O   UNL     1      -9.156  14.453  69.707  1.00  0.00    -0.132 OA 
HETATM   33  H1  UNL     1      -4.756  12.092  69.460  1.00  0.00     0.000 HD 
HETATM   34  H   UNL     1      -8.745  14.832  70.475  1.00  0.00     0.000 HD 
HETATM   35  H   UNL     1      -5.845  13.208  70.602  1.00  0.00     0.000 HD 
HETATM   36  N   UNL     1      -5.250  11.789  68.621  1.00  0.00    -0.046 NA 
HETATM   37  O   UNL     1      -6.488  13.821  70.266  1.00  0.00    -0.078 OA 
HETATM   38  C   UNL     1      -6.213  12.777  68.081  1.00  0.00    -0.088 C  
BRANCH  28  39
HETATM   39  C   UNL     1      -9.971  14.482  66.753  1.00  0.00    -0.264 C  
HETATM   40  H2  UNL     1      -8.758  16.128  66.483  1.00  0.00     0.000 HD 
HETATM   41  N   UNL     1      -9.681  15.918  66.864  1.00  0.00    -0.226 NA 
HETATM   42  H1  UNL     1     -10.390  16.515  66.439  1.00  0.00     0.000 HD 
ENDBRANCH  28  39
ENDBRANCH  25  26
ENDBRANCH  24  25
ENDBRANCH  10  11
ENDBRANCH   1  10
BRANCH   5  43
HETATM   43  C   UNL     1      -7.349   7.066  71.593  1.00  0.00    -0.083 C  
HETATM   44  O   UNL     1      -6.236   7.341  72.451  1.00  0.00    -0.044 OA 
HETATM   45  H   UNL     1      -5.627   6.612  72.424  1.00  0.00     0.000 HD 
ENDBRANCH   5  43
TORSDOF 6
ENDMDL
MODEL      308
REMARK 921   NORMALIZED FREE ENERGY PREDICTED BY IDOCK:   -1.22 KCAL/MOL
REMARK 922        TOTAL FREE ENERGY PREDICTED BY IDOCK:   -3.29 KCAL/MOL
REMARK 923 INTER-LIGAND FREE ENERGY PREDICTED BY IDOCK:   -3.42 KCAL/MOL
REMARK 924 INTRA-LIGAND FREE ENERGY PREDICTED BY IDOCK:    0.13 KCAL/MOL
REMARK 927      BINDING AFFINITY PREDICTED BY RF-SCORE:    0.00 PKD
ROOT
HETATM    1  C   UNL     1      -8.249   8.150  68.570  1.00  0.00    -0.125 C  
HETATM    2  O   UNL     1      -8.375  11.394  69.285  1.00  0.00    -0.375 OA 
HETATM    3  O   UNL     1      -7.133   8.839  67.988  1.00  0.00    -0.077 OA 
HETATM    4  H   UNL     1     -10.418  10.147  70.088  1.00  0.00     0.000 HD 
HETATM    5  C   UNL     1      -6.585   9.741  68.967  1.00  0.00    -0.049 C  
HETATM    6  H   UNL     1      -9.114  11.678  69.810  1.00  0.00     0.000 HD 
HETATM    7  C   UNL     1      -7.769  10.196  69.808  1.00  0.00    -0.168 C  
HETATM    8  O   UNL     1     -10.087   9.590  69.393  1.00  0.00    -0.179 OA 
HETATM    9  C   UNL     1      -8.787   9.058  69.700  1.00  0.00    -0.145 C  
ENDROOT
BRANCH   1  10
HETATM   10  O   UNL     1      -7.830   6.902  69.125  1.00  0.00    -0.107 OA 
BRANCH  10  11
HETATM   11  C   UNL     1      -7.978   5.705  68.312  1.00  0.00    -0.100 C  
HETATM   12  O   UNL     1      -8.121   6.969  66.244  1.00  0.00    -0.106 OA 
HETATM   13  H2  UNL     1      -9.515   1.312  68.230  1.00  0.00     0.000 HD 
HETATM   14  H   UNL     1      -8.620   7.134  65.452  1.00  0.00     0.000 HD 
HETATM   15  C   UNL     1      -8.785   5.972  67.031  1.00  0.00    -0.110 C  
HETATM   16  H1  UNL     1      -8.777   1.865  69.652  1.00  0.00     0.000 HD 
HETATM   17  C   UNL     1      -9.583   3.600  66.919  1.00  0.00    -0.180 C  
HETATM   18  N   UNL     1      -9.723   5.075  64.944  1.00  0.00    -0.363 NA 
HETATM   19  N   UNL     1      -9.348   2.110  68.842  1.00  0.00    -0.153 NA 
HETATM   20  H1  UNL     1      -9.820   4.251  64.351  1.00  0.00     0.000 HD 
HETATM   21  H2  UNL     1      -9.332   5.869  64.438  1.00  0.00     0.000 HD 
HETATM   22  C   UNL     1      -8.724   3.233  68.135  1.00  0.00    -0.105 C  
HETATM   23  C   UNL     1      -8.932   4.734  66.139  1.00  0.00    -0.122 C  
HETATM   24  C   UNL     1      -8.488   4.454  69.089  1.00  0.00    -0.078 C  
BRANCH  24  25
HETATM   25  O   UNL     1      -7.676   4.152  70.256  1.00  0.00    -0.048 OA 
BRANCH  25  26
HETATM   26  C   UNL     1      -7.911   4.947  71.424  1.00  0.00    -0.105 C  
HETATM   27  O   UNL     1      -9.153   4.601  72.044  1.00  0.00    -0.124 OA 
HETATM   28  C   UNL     1      -9.163   3.263  72.561  1.00  0.00    -0.098 C  
HETATM   29  C   UNL     1      -8.147   3.140  73.704  1.00  0.00    -0.073 C  
HETATM   30  H2  UNL     1      -5.395   6.048  71.460  1.00  0.00     0.000 HD 
HETATM   31  C   UNL     1      -6.756   3.483  73.168  1.00  0.00    -0.038 C  
HETATM   32  O   UNL     1      -8.060   1.817  74.254  1.00  0.00    -0.047 OA 
HETATM   33  H1  UNL     1      -4.647   5.073  72.595  1.00  0.00     0.000 HD 
HETATM   34  H   UNL     1      -7.431   1.741  74.962  1.00  0.00     0.000 HD 
HETATM   35  H   UNL     1      -4.954   3.704  73.924  1.00  0.00     0.000 HD 
HETATM   36  N   UNL     1      -5.405   5.136  71.916  1.00  0.00    -0.005 NA 
HETATM   37  O   UNL     1      -5.817   3.490  74.258  1.00  0.00    -0.007 OA 
HETATM   38  C   UNL     1      -6.751   4.850  72.464  1.00  0.00    -0.056 C  
BRANCH  28  39
HETATM   39  C   UNL     1     -10.608   2.939  72.975  1.00  0.00    -0.149 C  
HETATM   40  H2  UNL     1     -10.870   4.574  74.204  1.00  0.00     0.000 HD 
HETATM   41  N   UNL     1     -11.017   3.566  74.239  1.00  0.00    -0.073 NA 
HETATM   42  H1  UNL     1     -11.976   3.351  74.514  1.00  0.00     0.000 HD 
ENDBRANCH  28  39
ENDBRANCH  25  26
ENDBRANCH  24  25
ENDBRANCH  10  11
ENDBRANCH   1  10
BRANCH   5  43
HETATM   43  C   UNL     1      -5.491   9.080  69.816  1.00  0.00    -0.033 C  
HETATM   44  O   UNL     1      -5.724   7.669  69.881  1.00  0.00    -0.023 OA 
HETATM   45  H   UNL     1      -5.048   7.260  70.407  1.00  0.00     0.000 HD 
ENDBRANCH   5  43
TORSDOF 6
ENDMDL
MODEL      309
REMARK 921   NORMALIZED FREE ENERGY PREDICTED BY IDOCK:   -1.19 KCAL/MOL
REMARK 922        TOTAL FREE ENERGY PREDICTED BY IDOCK:   -3.25 KCAL/MOL
REMARK 923 INTER-LIGAND FREE ENERGY PREDICTED BY IDOCK:   -3.12 KCAL/MOL
REMARK 924 INTRA-LIGAND FREE ENERGY PREDICTED BY IDOCK:   -0.13 KCAL/MOL
REMARK 927      BINDING AFFINITY PREDICTED BY RF-SCORE:    0.00 PKD
ROOT
HETATM    1  C   UNL     1     -10.720  10.000  67.562  1.00  0.00    -0.281 C  
HETATM    2  O   UNL     1     -11.587  11.870  70.171  1.00  0.00    -0.476 OA 
HETATM    3  O   UNL     1      -9.934  11.200  67.606  1.00  0.00    -0.171 OA 
HETATM    4  H   UNL     1     -13.069   9.845  69.896  1.00  0.00     0.000 HD 
HETATM    5  C   UNL     1      -9.496  11.417  68.960  1.00  0.00     0.037 C  
HETATM    6  H   UNL     1     -12.280  11.525  70.720  1.00  0.00     0.000 HD 
HETATM    7  C   UNL     1     -10.609  10.865  69.840  1.00  0.00     0.014 C  
HETATM    8  O   UNL     1     -12.718   9.972  69.023  1.00  0.00     0.755 OA 
HETATM    9  C   UNL     1     -11.292   9.795  68.984  1.00  0.00     0.035 C  
ENDROOT
BRANCH   1  10
HETATM   10  O   UNL     1      -9.901   8.881  67.216  1.00  0.00    -0.171 OA 
BRANCH  10  11
HETATM   11  C   UNL     1      -8.808   9.094  66.280  1.00  0.00    -0.148 C  
HETATM   12  O   UNL     1     -10.197  10.358  64.742  1.00  0.00    -0.345 OA 
HETATM   13  H2  UNL     1      -4.817   7.370  64.617  1.00  0.00     0.000 HD 
HETATM   14  H   UNL     1     -10.505  10.447  63.847  1.00  0.00     0.000 HD 
HETATM   15  C   UNL     1      -9.305   9.239  64.833  1.00  0.00    -0.073 C  
HETATM   16  H1  UNL     1      -5.127   7.188  66.272  1.00  0.00     0.000 HD 
HETATM   17  C   UNL     1      -7.148   8.374  63.898  1.00  0.00    -0.088 C  
HETATM   18  N   UNL     1      -8.738   9.611  62.471  1.00  0.00    -0.204 NA 
HETATM   19  N   UNL     1      -5.528   7.241  65.336  1.00  0.00    -0.028 NA 
HETATM   20  H1  UNL     1      -7.987   9.781  61.803  1.00  0.00     0.000 HD 
HETATM   21  H2  UNL     1      -9.469  10.320  62.417  1.00  0.00     0.000 HD 
HETATM   22  C   UNL     1      -6.547   8.296  65.307  1.00  0.00    -0.052 C  
HETATM   23  C   UNL     1      -8.176   9.495  63.828  1.00  0.00    -0.161 C  
HETATM   24  C   UNL     1      -7.638   8.073  66.410  1.00  0.00    -0.091 C  
BRANCH  24  25
HETATM   25  O   UNL     1      -7.111   7.994  67.762  1.00  0.00    -0.082 OA 
BRANCH  25  26
HETATM   26  C   UNL     1      -6.873   6.680  68.282  1.00  0.00    -0.074 C  
HETATM   27  O   UNL     1      -6.495   6.731  69.659  1.00  0.00    -0.041 OA 
HETATM   28  C   UNL     1      -7.543   7.225  70.507  1.00  0.00    -0.088 C  
HETATM   29  C   UNL     1      -8.724   6.245  70.496  1.00  0.00    -0.143 C  
HETATM   30  H2  UNL     1      -7.859   5.380  66.072  1.00  0.00     0.000 HD 
HETATM   31  C   UNL     1      -9.234   6.103  69.061  1.00  0.00    -0.126 C  
HETATM   32  O   UNL     1      -9.839   6.684  71.287  1.00  0.00    -0.177 OA 
HETATM   33  H1  UNL     1      -9.408   5.018  66.592  1.00  0.00     0.000 HD 
HETATM   34  H   UNL     1     -10.570   6.077  71.280  1.00  0.00     0.000 HD 
HETATM   35  H   UNL     1     -10.577   5.007  68.130  1.00  0.00     0.000 HD 
HETATM   36  N   UNL     1      -8.609   5.641  66.712  1.00  0.00    -0.111 NA 
HETATM   37  O   UNL     1     -10.261   5.095  69.022  1.00  0.00    -0.202 OA 
HETATM   38  C   UNL     1      -8.096   5.728  68.099  1.00  0.00    -0.104 C  
BRANCH  28  39
HETATM   39  C   UNL     1      -6.938   7.456  71.902  1.00  0.00    -0.062 C  
HETATM   40  H2  UNL     1      -4.963   7.350  71.320  1.00  0.00     0.000 HD 
HETATM   41  N   UNL     1      -5.564   6.955  72.043  1.00  0.00    -0.037 NA 
HETATM   42  H1  UNL     1      -5.164   7.109  72.968  1.00  0.00     0.000 HD 
ENDBRANCH  28  39
ENDBRANCH  25  26
ENDBRANCH  24  25
ENDBRANCH  10  11
ENDBRANCH   1  10
BRANCH   5  43
HETATM   43  C   UNL     1      -8.145  10.748  69.247  1.00  0.00    -0.096 C  
HETATM   44  O   UNL     1      -7.177  11.750  69.577  1.00  0.00    -0.329 OA 
HETATM   45  H   UNL     1      -6.341  11.336  69.754  1.00  0.00     0.000 HD 
ENDBRANCH   5  43
TORSDOF 6
ENDMDL
MODEL      310
REMARK 921   NORMALIZED FREE ENERGY PREDICTED BY IDOCK:   -1.12 KCAL/MOL
REMARK 922        TOTAL FREE ENERGY PREDICTED BY IDOCK:   -3.15 KCAL/MOL
REMARK 923 INTER-LIGAND FREE ENERGY PREDICTED BY IDOCK:   -5.36 KCAL/MOL
REMARK 924 INTRA-LIGAND FREE ENERGY PREDICTED BY IDOCK:    2.21 KCAL/MOL
REMARK 927      BINDING AFFINITY PREDICTED BY RF-SCORE:    0.00 PKD
ROOT
HETATM    1  C   UNL     1      -9.860  10.884  67.588  1.00  0.00    -0.171 C  
HETATM    2  O   UNL     1      -8.908  14.043  67.180  1.00  0.00    -0.209 OA 
HETATM    3  O   UNL     1     -10.969  11.696  67.174  1.00  0.00    -0.248 OA 
HETATM    4  H   UNL     1      -7.067  12.591  68.117  1.00  0.00     0.000 HD 
HETATM    5  C   UNL     1     -10.539  12.554  66.101  1.00  0.00    -0.253 C  
HETATM    6  H   UNL     1      -7.993  14.230  67.356  1.00  0.00     0.000 HD 
HETATM    7  C   UNL     1      -9.073  12.854  66.383  1.00  0.00    -0.074 C  
HETATM    8  O   UNL     1      -7.855  12.117  68.354  1.00  0.00    -0.140 OA 
HETATM    9  C   UNL     1      -8.578  11.658  67.201  1.00  0.00    -0.164 C  
ENDROOT
BRANCH   1  10
HETATM   10  O   UNL     1      -9.879   9.628  66.905  1.00  0.00    -0.178 OA 
BRANCH  10  11
HETATM   11  C   UNL     1     -10.562   8.513  67.541  1.00  0.00    -0.214 C  
HETATM   12  O   UNL     1     -11.712   9.947  69.125  1.00  0.00    -0.471 OA 
HETATM   13  H2  UNL     1     -10.325   3.976  68.561  1.00  0.00     0.000 HD 
HETATM   14  H   UNL     1     -11.904  10.119  70.040  1.00  0.00     0.000 HD 
HETATM   15  C   UNL     1     -10.871   8.791  69.021  1.00  0.00    -0.027 C  
HETATM   16  H1  UNL     1      -9.727   4.481  67.058  1.00  0.00     0.000 HD 
HETATM   17  C   UNL     1     -10.815   6.354  69.596  1.00  0.00    -0.380 C  
HETATM   18  N   UNL     1     -11.865   7.987  71.120  1.00  0.00    -0.289 NA 
HETATM   19  N   UNL     1      -9.868   4.723  68.039  1.00  0.00    -0.146 NA 
HETATM   20  H1  UNL     1     -12.361   7.223  71.577  1.00  0.00     0.000 HD 
HETATM   21  H2  UNL     1     -12.354   8.877  71.218  1.00  0.00     0.000 HD 
HETATM   22  C   UNL     1     -10.602   5.990  68.121  1.00  0.00    -0.262 C  
HETATM   23  C   UNL     1     -11.618   7.642  69.709  1.00  0.00     0.272 C  
HETATM   24  C   UNL     1      -9.877   7.129  67.325  1.00  0.00    -0.167 C  
BRANCH  24  25
HETATM   25  O   UNL     1      -9.657   6.828  65.920  1.00  0.00     0.055 OA 
BRANCH  25  26
HETATM   26  C   UNL     1      -8.299   6.613  65.516  1.00  0.00    -0.144 C  
HETATM   27  O   UNL     1      -8.039   7.208  64.242  1.00  0.00    -0.122 OA 
HETATM   28  C   UNL     1      -8.144   8.640  64.265  1.00  0.00    -0.158 C  
HETATM   29  C   UNL     1      -7.048   9.227  65.164  1.00  0.00    -0.090 C  
HETATM   30  H2  UNL     1      -7.497   5.599  67.939  1.00  0.00     0.000 HD 
HETATM   31  C   UNL     1      -7.216   8.667  66.577  1.00  0.00    -0.080 C  
HETATM   32  O   UNL     1      -7.105  10.656  65.278  1.00  0.00    -0.304 OA 
HETATM   33  H1  UNL     1      -6.801   6.956  68.628  1.00  0.00     0.000 HD 
HETATM   34  H   UNL     1      -6.426  11.019  65.834  1.00  0.00     0.000 HD 
HETATM   35  H   UNL     1      -6.226   8.767  68.274  1.00  0.00     0.000 HD 
HETATM   36  N   UNL     1      -7.476   6.618  67.941  1.00  0.00    -0.096 NA 
HETATM   37  O   UNL     1      -6.121   9.115  67.396  1.00  0.00    -0.053 OA 
HETATM   38  C   UNL     1      -7.268   7.131  66.567  1.00  0.00    -0.079 C  
BRANCH  28  39
HETATM   39  C   UNL     1      -8.084   9.130  62.808  1.00  0.00    -0.154 C  
HETATM   40  H2  UNL     1      -6.035   9.007  62.606  1.00  0.00     0.000 HD 
HETATM   41  N   UNL     1      -6.778   9.681  62.422  1.00  0.00    -0.095 NA 
HETATM   42  H1  UNL     1      -6.738  10.006  61.456  1.00  0.00     0.000 HD 
ENDBRANCH  28  39
ENDBRANCH  25  26
ENDBRANCH  24  25
ENDBRANCH  10  11
ENDBRANCH   1  10
BRANCH   5  43
HETATM   43  C   UNL     1     -10.743  11.908  64.725  1.00  0.00    -0.307 C  
HETATM   44  O   UNL     1      -9.836  12.492  63.783  1.00  0.00    -0.612 OA 
HETATM   45  H   UNL     1      -9.962  12.093  62.931  1.00  0.00     0.000 HD 
ENDBRANCH   5  43
TORSDOF 6
ENDMDL
MODEL      311
REMARK 921   NORMALIZED FREE ENERGY PREDICTED BY IDOCK:   -0.64 KCAL/MOL
REMARK 922        TOTAL FREE ENERGY PREDICTED BY IDOCK:   -2.50 KCAL/MOL
REMARK 923 INTER-LIGAND FREE ENERGY PREDICTED BY IDOCK:   -3.68 KCAL/MOL
REMARK 924 INTRA-LIGAND FREE ENERGY PREDICTED BY IDOCK:    1.18 KCAL/MOL
REMARK 927      BINDING AFFINITY PREDICTED BY RF-SCORE:    0.00 PKD
ROOT
HETATM    1  C   UNL     1     -11.233  13.439  66.382  1.00  0.00    -0.304 C  
HETATM    2  O   UNL     1     -11.696  15.165  63.579  1.00  0.00    -0.375 OA 
HETATM    3  O   UNL     1     -12.626  13.487  66.043  1.00  0.00    -0.420 OA 
HETATM    4  H   UNL     1      -9.296  15.217  64.362  1.00  0.00     0.000 HD 
HETATM    5  C   UNL     1     -12.769  13.223  64.635  1.00  0.00    -0.218 C  
HETATM    6  H   UNL     1     -10.914  15.521  63.173  1.00  0.00     0.000 HD 
HETATM    7  C   UNL     1     -11.517  13.794  63.985  1.00  0.00    -0.216 C  
HETATM    8  O   UNL     1      -9.776  15.022  65.158  1.00  0.00    -0.232 OA 
HETATM    9  C   UNL     1     -10.452  13.757  65.085  1.00  0.00    -0.384 C  
ENDROOT
BRANCH   1  10
HETATM   10  O   UNL     1     -10.876  12.133  66.841  1.00  0.00    -0.232 OA 
BRANCH  10  11
HETATM   11  C   UNL     1      -9.591  11.590  66.430  1.00  0.00    -0.209 C  
HETATM   12  O   UNL     1     -10.531  10.484  64.485  1.00  0.00    -0.310 OA 
HETATM   13  H2  UNL     1      -5.419  10.135  67.896  1.00  0.00     0.000 HD 
HETATM   14  H   UNL     1     -10.623   9.666  64.009  1.00  0.00     0.000 HD 
HETATM   15  C   UNL     1      -9.740  10.268  65.661  1.00  0.00    -0.247 C  
HETATM   16  H1  UNL     1      -6.104  11.478  68.669  1.00  0.00     0.000 HD 
HETATM   17  C   UNL     1      -7.474   9.477  66.377  1.00  0.00    -0.097 C  
HETATM   18  N   UNL     1      -8.636   8.422  64.473  1.00  0.00    -0.390 NA 
HETATM   19  N   UNL     1      -6.280  10.590  68.197  1.00  0.00    -0.050 NA 
HETATM   20  H1  UNL     1      -7.746   8.036  64.159  1.00  0.00     0.000 HD 
HETATM   21  H2  UNL     1      -9.299   8.531  63.705  1.00  0.00     0.000 HD 
HETATM   22  C   UNL     1      -7.211  10.812  67.086  1.00  0.00    -0.100 C  
HETATM   23  C   UNL     1      -8.402   9.687  65.189  1.00  0.00    -0.137 C  
HETATM   24  C   UNL     1      -8.533  11.500  67.571  1.00  0.00    -0.143 C  
BRANCH  24  25
HETATM   25  O   UNL     1      -8.330  12.770  68.247  1.00  0.00    -0.162 OA 
BRANCH  25  26
HETATM   26  C   UNL     1      -8.186  13.926  67.412  1.00  0.00    -0.187 C  
HETATM   27  O   UNL     1      -9.110  14.951  67.785  1.00  0.00    -0.180 OA 
HETATM   28  C   UNL     1      -8.863  15.473  69.098  1.00  0.00    -0.253 C  
HETATM   29  C   UNL     1      -7.506  16.189  69.126  1.00  0.00    -0.221 C  
HETATM   30  H2  UNL     1      -5.883  13.046  66.202  1.00  0.00     0.000 HD 
HETATM   31  C   UNL     1      -6.413  15.189  68.746  1.00  0.00    -0.086 C  
HETATM   32  O   UNL     1      -7.158  16.707  70.419  1.00  0.00     0.969 OA 
HETATM   33  H1  UNL     1      -4.731  13.870  67.092  1.00  0.00     0.000 HD 
HETATM   34  H   UNL     1      -6.318  17.150  70.436  1.00  0.00     0.000 HD 
HETATM   35  H   UNL     1      -4.475  15.257  68.413  1.00  0.00     0.000 HD 
HETATM   36  N   UNL     1      -5.681  13.500  67.092  1.00  0.00    -0.162 NA 
HETATM   37  O   UNL     1      -5.154  15.879  68.650  1.00  0.00    -0.091 OA 
HETATM   38  C   UNL     1      -6.732  14.493  67.413  1.00  0.00     0.009 C  
BRANCH  28  39
HETATM   39  C   UNL     1     -10.052  16.378  69.467  1.00  0.00    -0.199 C  
HETATM   40  H2  UNL     1     -10.261  17.254  67.612  1.00  0.00     0.000 HD 
HETATM   41  N   UNL     1     -10.203  17.545  68.588  1.00  0.00    -0.356 NA 
HETATM   42  H1  UNL     1     -10.991  18.144  68.832  1.00  0.00     0.000 HD 
ENDBRANCH  28  39
ENDBRANCH  25  26
ENDBRANCH  24  25
ENDBRANCH  10  11
ENDBRANCH   1  10
BRANCH   5  43
HETATM   43  C   UNL     1     -12.944  11.727  64.340  1.00  0.00     0.492 C  
HETATM   44  O   UNL     1     -14.242  11.499  63.782  1.00  0.00     0.816 OA 
HETATM   45  H   UNL     1     -14.350  10.573  63.599  1.00  0.00     0.000 HD 
ENDBRANCH   5  43
TORSDOF 6
ENDMDL
MODEL      312
REMARK 921   NORMALIZED FREE ENERGY PREDICTED BY IDOCK:   -0.59 KCAL/MOL
REMARK 922        TOTAL FREE ENERGY PREDICTED BY IDOCK:   -2.44 KCAL/MOL
REMARK 923 INTER-LIGAND FREE ENERGY PREDICTED BY IDOCK:   -3.93 KCAL/MOL
REMARK 924 INTRA-LIGAND FREE ENERGY PREDICTED BY IDOCK:    1.49 KCAL/MOL
REMARK 927      BINDING AFFINITY PREDICTED BY RF-SCORE:    0.00 PKD
ROOT
HETATM    1  C   UNL     1      -6.943   7.563  66.036  1.00  0.00    -0.061 C  
HETATM    2  O   UNL     1      -8.684   5.973  63.693  1.00  0.00    -0.330 OA 
HETATM    3  O   UNL     1      -6.201   7.503  64.810  1.00  0.00    -0.038 OA 
HETATM    4  H   UNL     1      -9.828   5.932  65.943  1.00  0.00     0.000 HD 
HETATM    5  C   UNL     1      -7.081   7.835  63.720  1.00  0.00    -0.073 C  
HETATM    6  H   UNL     1      -9.541   5.655  63.952  1.00  0.00     0.000 HD 
HETATM    7  C   UNL     1      -8.453   7.325  64.136  1.00  0.00     0.286 C  
HETATM    8  O   UNL     1      -8.917   6.076  66.170  1.00  0.00    -0.147 OA 
HETATM    9  C   UNL     1      -8.426   7.329  65.667  1.00  0.00    -0.131 C  
ENDROOT
BRANCH   1  10
HETATM   10  O   UNL     1      -6.804   8.851  66.641  1.00  0.00    -0.074 OA 
BRANCH  10  11
HETATM   11  C   UNL     1      -8.010   9.621  66.898  1.00  0.00    -0.105 C  
HETATM   12  O   UNL     1      -7.524  11.221  65.138  1.00  0.00    -0.149 OA 
HETATM   13  H2  UNL     1     -11.109  10.892  70.131  1.00  0.00     0.000 HD 
HETATM   14  H   UNL     1      -7.419  12.138  64.911  1.00  0.00     0.000 HD 
HETATM   15  C   UNL     1      -7.841  11.104  66.531  1.00  0.00    -0.151 C  
HETATM   16  H1  UNL     1     -10.510   9.309  70.190  1.00  0.00     0.000 HD 
HETATM   17  C   UNL     1      -9.548  11.821  68.217  1.00  0.00    -0.199 C  
HETATM   18  N   UNL     1      -8.855  13.338  66.398  1.00  0.00    -0.444 NA 
HETATM   19  N   UNL     1     -10.312  10.282  69.956  1.00  0.00    -0.244 NA 
HETATM   20  H1  UNL     1      -9.698  13.890  66.553  1.00  0.00     0.000 HD 
HETATM   21  H2  UNL     1      -8.505  13.430  65.444  1.00  0.00     0.000 HD 
HETATM   22  C   UNL     1      -9.846  10.358  68.568  1.00  0.00    -0.167 C  
HETATM   23  C   UNL     1      -9.108  11.934  66.764  1.00  0.00    -0.197 C  
HETATM   24  C   UNL     1      -8.612   9.424  68.322  1.00  0.00    -0.120 C  
BRANCH  24  25
HETATM   25  O   UNL     1      -8.849   8.026  68.640  1.00  0.00    -0.134 OA 
BRANCH  25  26
HETATM   26  C   UNL     1      -9.624   7.758  69.816  1.00  0.00    -0.167 C  
HETATM   27  O   UNL     1     -10.269   6.485  69.731  1.00  0.00    -0.177 OA 
HETATM   28  C   UNL     1      -9.340   5.391  69.703  1.00  0.00    -0.135 C  
HETATM   29  C   UNL     1      -8.582   5.319  71.036  1.00  0.00    -0.123 C  
HETATM   30  H2  UNL     1      -8.648   9.904  71.224  1.00  0.00     0.000 HD 
HETATM   31  C   UNL     1      -7.834   6.636  71.249  1.00  0.00    -0.102 C  
HETATM   32  O   UNL     1      -7.598   4.275  71.079  1.00  0.00    -0.056 OA 
HETATM   33  H1  UNL     1      -7.470   9.158  72.149  1.00  0.00     0.000 HD 
HETATM   34  H   UNL     1      -7.130   4.231  71.905  1.00  0.00     0.000 HD 
HETATM   35  H   UNL     1      -6.757   7.443  72.684  1.00  0.00     0.000 HD 
HETATM   36  N   UNL     1      -8.021   9.103  71.293  1.00  0.00    -0.325 NA 
HETATM   37  O   UNL     1      -7.221   6.625  72.551  1.00  0.00    -0.082 OA 
HETATM   38  C   UNL     1      -8.779   7.841  71.126  1.00  0.00    -0.135 C  
BRANCH  28  39
HETATM   39  C   UNL     1     -10.136   4.117  69.370  1.00  0.00     0.219 C  
HETATM   40  H2  UNL     1      -8.628   3.164  68.336  1.00  0.00     0.000 HD 
HETATM   41  N   UNL     1      -9.616   3.381  68.210  1.00  0.00    -0.139 NA 
HETATM   42  H1  UNL     1     -10.144   2.536  67.990  1.00  0.00     0.000 HD 
ENDBRANCH  28  39
ENDBRANCH  25  26
ENDBRANCH  24  25
ENDBRANCH  10  11
ENDBRANCH   1  10
BRANCH   5  43
HETATM   43  C   UNL     1      -7.089   9.340  63.420  1.00  0.00    -0.090 C  
HETATM   44  O   UNL     1      -8.368   9.715  62.896  1.00  0.00    -0.142 OA 
HETATM   45  H   UNL     1      -8.373  10.646  62.710  1.00  0.00     0.000 HD 
ENDBRANCH   5  43
TORSDOF 6
ENDMDL
MODEL      313
REMARK 921   NORMALIZED FREE ENERGY PREDICTED BY IDOCK:   -0.01 KCAL/MOL
REMARK 922        TOTAL FREE ENERGY PREDICTED BY IDOCK:   -1.65 KCAL/MOL
REMARK 923 INTER-LIGAND FREE ENERGY PREDICTED BY IDOCK:   -5.31 KCAL/MOL
REMARK 924 INTRA-LIGAND FREE ENERGY PREDICTED BY IDOCK:    3.66 KCAL/MOL
REMARK 927      BINDING AFFINITY PREDICTED BY RF-SCORE:    0.00 PKD
ROOT
HETATM    1  C   UNL     1      -8.649  16.079  68.177  1.00  0.00    -0.171 C  
HETATM    2  O   UNL     1      -9.546  17.762  65.454  1.00  0.00    -0.077 OA 
HETATM    3  O   UNL     1      -9.739  16.964  68.468  1.00  0.00    -0.243 OA 
HETATM    4  H   UNL     1      -7.493  16.342  65.080  1.00  0.00     0.000 HD 
HETATM    5  C   UNL     1     -10.716  16.856  67.416  1.00  0.00    -0.241 C  
HETATM    6  H   UNL     1      -9.051  17.576  64.666  1.00  0.00     0.000 HD 
HETATM    7  C   UNL     1      -9.922  16.559  66.153  1.00  0.00    -0.343 C  
HETATM    8  O   UNL     1      -7.496  16.469  66.021  1.00  0.00    -0.050 OA 
HETATM    9  C   UNL     1      -8.645  15.872  66.644  1.00  0.00    -0.285 C  
ENDROOT
BRANCH   1  10
HETATM   10  O   UNL     1      -8.844  14.818  68.823  1.00  0.00    -0.175 OA 
BRANCH  10  11
HETATM   11  C   UNL     1     -10.170  14.223  68.777  1.00  0.00    -0.226 C  
HETATM   12  O   UNL     1     -11.009  15.629  70.568  1.00  0.00    -0.312 OA 
HETATM   13  H2  UNL     1     -12.589  10.371  67.783  1.00  0.00     0.000 HD 
HETATM   14  H   UNL     1     -11.444  15.656  71.413  1.00  0.00     0.000 HD 
HETATM   15  C   UNL     1     -10.873  14.267  70.143  1.00  0.00     0.228 C  
HETATM   16  H1  UNL     1     -11.274  10.758  66.787  1.00  0.00     0.000 HD 
HETATM   17  C   UNL     1     -12.238  12.233  69.620  1.00  0.00    -0.175 C  
HETATM   18  N   UNL     1     -12.880  13.746  71.462  1.00  0.00    -0.353 NA 
HETATM   19  N   UNL     1     -11.662  10.793  67.730  1.00  0.00    -0.507 NA 
HETATM   20  H1  UNL     1     -13.819  13.350  71.444  1.00  0.00     0.000 HD 
HETATM   21  H2  UNL     1     -12.870  14.695  71.835  1.00  0.00     0.000 HD 
HETATM   22  C   UNL     1     -11.654  12.181  68.202  1.00  0.00    -0.337 C  
HETATM   23  C   UNL     1     -12.285  13.671  70.116  1.00  0.00    -0.342 C  
HETATM   24  C   UNL     1     -10.219  12.807  68.126  1.00  0.00    -0.241 C  
BRANCH  24  25
HETATM   25  O   UNL     1      -9.627  12.781  66.799  1.00  0.00    -0.230 OA 
BRANCH  25  26
HETATM   26  C   UNL     1      -8.388  12.074  66.663  1.00  0.00    -0.085 C  
HETATM   27  O   UNL     1      -7.929  11.589  67.927  1.00  0.00    -0.115 OA 
HETATM   28  C   UNL     1      -8.801  10.600  68.494  1.00  0.00    -0.148 C  
HETATM   29  C   UNL     1      -8.807   9.345  67.611  1.00  0.00    -0.115 C  
HETATM   30  H2  UNL     1      -8.442  12.045  63.917  1.00  0.00     0.000 HD 
HETATM   31  C   UNL     1      -9.290   9.729  66.212  1.00  0.00    -0.180 C  
HETATM   32  O   UNL     1      -9.690   8.317  68.083  1.00  0.00    -0.151 OA 
HETATM   33  H1  UNL     1      -9.046  10.510  63.636  1.00  0.00     0.000 HD 
HETATM   34  H   UNL     1      -9.693   7.540  67.536  1.00  0.00     0.000 HD 
HETATM   35  H   UNL     1      -9.482   8.825  64.475  1.00  0.00     0.000 HD 
HETATM   36  N   UNL     1      -8.990  11.278  64.305  1.00  0.00     0.025 NA 
HETATM   37  O   UNL     1      -9.182   8.586  65.344  1.00  0.00    -0.117 OA 
HETATM   38  C   UNL     1      -8.473  10.899  65.640  1.00  0.00    -0.139 C  
BRANCH  28  39
HETATM   39  C   UNL     1      -8.333  10.344  69.937  1.00  0.00     0.103 C  
HETATM   40  H2  UNL     1      -7.340  12.135  70.181  1.00  0.00     0.000 HD 
HETATM   41  N   UNL     1      -7.164  11.142  70.331  1.00  0.00    -0.236 NA 
HETATM   42  H1  UNL     1      -6.854  10.972  71.288  1.00  0.00     0.000 HD 
ENDBRANCH  28  39
ENDBRANCH  25  26
ENDBRANCH  24  25
ENDBRANCH  10  11
ENDBRANCH   1  10
BRANCH   5  43
HETATM   43  C   UNL     1     -11.765  15.775  67.709  1.00  0.00     0.019 C  
HETATM   44  O   UNL     1     -12.064  15.061  66.504  1.00  0.00    -0.093 OA 
HETATM   45  H   UNL     1     -12.713  14.392  66.685  1.00  0.00     0.000 HD 
ENDBRANCH   5  43
TORSDOF 6
ENDMDL
MODEL      314
REMARK 921   NORMALIZED FREE ENERGY PREDICTED BY IDOCK:    0.74 KCAL/MOL
REMARK 922        TOTAL FREE ENERGY PREDICTED BY IDOCK:   -0.64 KCAL/MOL
REMARK 923 INTER-LIGAND FREE ENERGY PREDICTED BY IDOCK:   -1.11 KCAL/MOL
REMARK 924 INTRA-LIGAND FREE ENERGY PREDICTED BY IDOCK:    0.47 KCAL/MOL
REMARK 927      BINDING AFFINITY PREDICTED BY RF-SCORE:    0.00 PKD
ROOT
HETATM    1  C   UNL     1     -12.003   6.566  70.324  1.00  0.00    -0.185 C  
HETATM    2  O   UNL     1     -14.350   7.320  72.554  1.00  0.00    -0.509 OA 
HETATM    3  O   UNL     1     -12.953   7.484  69.765  1.00  0.00     1.681 OA 
HETATM    4  H   UNL     1     -12.761   5.542  73.385  1.00  0.00     0.000 HD 
HETATM    5  C   UNL     1     -13.219   8.518  70.731  1.00  0.00     0.450 C  
HETATM    6  H   UNL     1     -14.270   6.902  73.403  1.00  0.00     0.000 HD 
HETATM    7  C   UNL     1     -13.091   7.847  72.091  1.00  0.00    -0.162 C  
HETATM    8  O   UNL     1     -12.680   5.476  72.441  1.00  0.00     0.238 OA 
HETATM    9  C   UNL     1     -12.136   6.673  71.861  1.00  0.00    -0.340 C  
ENDROOT
BRANCH   1  10
HETATM   10  O   UNL     1     -10.675   6.926  69.937  1.00  0.00    -0.224 OA 
BRANCH  10  11
HETATM   11  C   UNL     1      -9.565   6.349  70.680  1.00  0.00    -0.172 C  
HETATM   12  O   UNL     1      -9.876   7.844  72.567  1.00  0.00    -0.193 OA 
HETATM   13  H2  UNL     1      -5.456   4.187  70.332  1.00  0.00     0.000 HD 
HETATM   14  H   UNL     1      -9.469   8.474  73.150  1.00  0.00     0.000 HD 
HETATM   15  C   UNL     1      -8.907   7.368  71.623  1.00  0.00    -0.116 C  
HETATM   16  H1  UNL     1      -6.664   3.773  69.218  1.00  0.00     0.000 HD 
HETATM   17  C   UNL     1      -6.696   6.196  71.511  1.00  0.00    -0.056 C  
HETATM   18  N   UNL     1      -7.175   7.820  73.307  1.00  0.00    -0.093 NA 
HETATM   19  N   UNL     1      -6.259   4.512  69.794  1.00  0.00    -0.026 NA 
HETATM   20  H1  UNL     1      -6.407   7.427  73.851  1.00  0.00     0.000 HD 
HETATM   21  H2  UNL     1      -7.879   8.260  73.900  1.00  0.00     0.000 HD 
HETATM   22  C   UNL     1      -7.306   5.086  70.646  1.00  0.00    -0.065 C  
HETATM   23  C   UNL     1      -7.752   6.778  72.441  1.00  0.00    -0.093 C  
HETATM   24  C   UNL     1      -8.524   5.591  69.800  1.00  0.00    -0.105 C  
BRANCH  24  25
HETATM   25  O   UNL     1      -9.135   4.571  68.965  1.00  0.00    -0.106 OA 
BRANCH  25  26
HETATM   26  C   UNL     1      -9.314   4.896  67.581  1.00  0.00    -0.130 C  
HETATM   27  O   UNL     1      -8.629   6.105  67.243  1.00  0.00    -0.105 OA 
HETATM   28  C   UNL     1      -7.204   5.990  67.363  1.00  0.00    -0.076 C  
HETATM   29  C   UNL     1      -6.676   4.980  66.335  1.00  0.00    -0.054 C  
HETATM   30  H2  UNL     1     -10.491   2.500  66.935  1.00  0.00     0.000 HD 
HETATM   31  C   UNL     1      -7.334   3.624  66.593  1.00  0.00    -0.068 C  
HETATM   32  O   UNL     1      -5.258   4.771  66.414  1.00  0.00    -0.008 OA 
HETATM   33  H1  UNL     1      -9.181   1.674  66.300  1.00  0.00     0.000 HD 
HETATM   34  H   UNL     1      -4.931   4.146  65.778  1.00  0.00     0.000 HD 
HETATM   35  H   UNL     1      -7.348   1.860  65.720  1.00  0.00     0.000 HD 
HETATM   36  N   UNL     1      -9.474   2.426  66.923  1.00  0.00     0.030 NA 
HETATM   37  O   UNL     1      -6.939   2.703  65.560  1.00  0.00    -0.050 OA 
HETATM   38  C   UNL     1      -8.866   3.744  66.628  1.00  0.00    -0.126 C  
BRANCH  28  39
HETATM   39  C   UNL     1      -6.612   7.402  67.210  1.00  0.00    -0.061 C  
HETATM   40  H2  UNL     1      -6.031   7.624  69.176  1.00  0.00     0.000 HD 
HETATM   41  N   UNL     1      -6.541   8.154  68.470  1.00  0.00    -0.057 NA 
HETATM   42  H1  UNL     1      -6.149   9.090  68.368  1.00  0.00     0.000 HD 
ENDBRANCH  28  39
ENDBRANCH  25  26
ENDBRANCH  24  25
ENDBRANCH  10  11
ENDBRANCH   1  10
BRANCH   5  43
HETATM   43  C   UNL     1     -12.264   9.710  70.581  1.00  0.00    -0.161 C  
HETATM   44  O   UNL     1     -11.888  10.187  71.878  1.00  0.00    -0.170 OA 
HETATM   45  H   UNL     1     -11.298  10.925  71.785  1.00  0.00     0.000 HD 
ENDBRANCH   5  43
TORSDOF 6
ENDMDL
MODEL      315
REMARK 921   NORMALIZED FREE ENERGY PREDICTED BY IDOCK:    1.00 KCAL/MOL
REMARK 922        TOTAL FREE ENERGY PREDICTED BY IDOCK:   -0.30 KCAL/MOL
REMARK 923 INTER-LIGAND FREE ENERGY PREDICTED BY IDOCK:   -3.49 KCAL/MOL
REMARK 924 INTRA-LIGAND FREE ENERGY PREDICTED BY IDOCK:    3.19 KCAL/MOL
REMARK 927      BINDING AFFINITY PREDICTED BY RF-SCORE:    0.00 PKD
ROOT
HETATM    1  C   UNL     1      -6.738   4.767  67.067  1.00  0.00    -0.051 C  
HETATM    2  O   UNL     1      -6.440   4.189  70.327  1.00  0.00    -0.030 OA 
HETATM    3  O   UNL     1      -6.731   3.357  67.330  1.00  0.00    -0.044 OA 
HETATM    4  H   UNL     1      -6.242   6.640  69.757  1.00  0.00     0.000 HD 
HETATM    5  C   UNL     1      -7.592   3.092  68.453  1.00  0.00    -0.052 C  
HETATM    6  H   UNL     1      -6.375   4.956  70.883  1.00  0.00     0.000 HD 
HETATM    7  C   UNL     1      -7.487   4.321  69.345  1.00  0.00    -0.054 C  
HETATM    8  O   UNL     1      -6.013   6.213  68.941  1.00  0.00    -0.022 OA 
HETATM    9  C   UNL     1      -7.111   5.463  68.396  1.00  0.00    -0.062 C  
ENDROOT
BRANCH   1  10
HETATM   10  O   UNL     1      -7.718   5.085  66.075  1.00  0.00    -0.089 OA 
BRANCH  10  11
HETATM   11  C   UNL     1      -7.773   6.451  65.579  1.00  0.00    -0.096 C  
HETATM   12  O   UNL     1      -7.344   5.777  63.287  1.00  0.00    -0.053 OA 
HETATM   13  H2  UNL     1      -7.078  10.929  66.646  1.00  0.00     0.000 HD 
HETATM   14  H   UNL     1      -6.802   5.900  62.517  1.00  0.00     0.000 HD 
HETATM   15  C   UNL     1      -6.897   6.651  64.333  1.00  0.00    -0.046 C  
HETATM   16  H1  UNL     1      -7.737   9.924  67.841  1.00  0.00     0.000 HD 
HETATM   17  C   UNL     1      -6.551   9.079  64.840  1.00  0.00    -0.069 C  
HETATM   18  N   UNL     1      -6.088   8.180  62.588  1.00  0.00    -0.081 NA 
HETATM   19  N   UNL     1      -7.110   9.989  67.039  1.00  0.00    -0.088 NA 
HETATM   20  H1  UNL     1      -6.130   9.128  62.215  1.00  0.00     0.000 HD 
HETATM   21  H2  UNL     1      -6.310   7.478  61.882  1.00  0.00     0.000 HD 
HETATM   22  C   UNL     1      -7.495   8.982  66.045  1.00  0.00    -0.094 C  
HETATM   23  C   UNL     1      -6.960   8.075  63.770  1.00  0.00    -0.075 C  
HETATM   24  C   UNL     1      -7.526   7.542  66.664  1.00  0.00    -0.092 C  
BRANCH  24  25
HETATM   25  O   UNL     1      -8.410   7.404  67.809  1.00  0.00    -0.117 OA 
BRANCH  25  26
HETATM   26  C   UNL     1      -9.784   7.111  67.527  1.00  0.00    -0.142 C  
HETATM   27  O   UNL     1     -10.381   6.364  68.590  1.00  0.00    -0.166 OA 
HETATM   28  C   UNL     1     -10.458   7.106  69.816  1.00  0.00    -0.225 C  
HETATM   29  C   UNL     1     -11.405   8.301  69.642  1.00  0.00     0.218 C  
HETATM   30  H2  UNL     1      -9.917   8.745  65.323  1.00  0.00     0.000 HD 
HETATM   31  C   UNL     1     -10.870   9.195  68.523  1.00  0.00    -0.043 C  
HETATM   32  O   UNL     1     -11.508   9.125  70.813  1.00  0.00    -0.267 OA 
HETATM   33  H1  UNL     1     -10.619  10.109  65.992  1.00  0.00     0.000 HD 
HETATM   34  H   UNL     1     -12.094   9.864  70.705  1.00  0.00     0.000 HD 
HETATM   35  H   UNL     1     -11.483  10.806  67.574  1.00  0.00     0.000 HD 
HETATM   36  N   UNL     1     -10.068   9.272  66.183  1.00  0.00    -0.276 NA 
HETATM   37  O   UNL     1     -11.815  10.251  68.270  1.00  0.00    -0.236 OA 
HETATM   38  C   UNL     1     -10.626   8.392  67.235  1.00  0.00    -0.257 C  
BRANCH  28  39
HETATM   39  C   UNL     1     -10.888   6.126  70.922  1.00  0.00    -0.281 C  
HETATM   40  H2  UNL     1     -11.870   7.512  72.091  1.00  0.00     0.000 HD 
HETATM   41  N   UNL     1     -11.176   6.775  72.208  1.00  0.00    -0.250 NA 
HETATM   42  H1  UNL     1     -11.461   6.125  72.941  1.00  0.00     0.000 HD 
ENDBRANCH  28  39
ENDBRANCH  25  26
ENDBRANCH  24  25
ENDBRANCH  10  11
ENDBRANCH   1  10
BRANCH   5  43
HETATM   43  C   UNL     1      -9.038   2.812  68.021  1.00  0.00    -0.182 C  
HETATM   44  O   UNL     1      -9.709   4.051  67.768  1.00  0.00    -0.166 OA 
HETATM   45  H   UNL     1     -10.604   3.878  67.502  1.00  0.00     0.000 HD 
ENDBRANCH   5  43
TORSDOF 6
ENDMDL
MODEL      316
REMARK 921   NORMALIZED FREE ENERGY PREDICTED BY IDOCK:    1.77 KCAL/MOL
REMARK 922        TOTAL FREE ENERGY PREDICTED BY IDOCK:    0.75 KCAL/MOL
REMARK 923 INTER-LIGAND FREE ENERGY PREDICTED BY IDOCK:   -6.69 KCAL/MOL
REMARK 924 INTRA-LIGAND FREE ENERGY PREDICTED BY IDOCK:    7.43 KCAL/MOL
REMARK 927      BINDING AFFINITY PREDICTED BY RF-SCORE:    0.00 PKD
ROOT
HETATM    1  C   UNL     1     -11.450  15.554  71.433  1.00  0.00    -0.414 C  
HETATM    2  O   UNL     1     -12.576  15.564  74.561  1.00  0.00    -0.703 OA 
HETATM    3  O   UNL     1     -11.457  14.224  71.971  1.00  0.00     0.406 OA 
HETATM    4  H   UNL     1     -12.328  17.891  73.614  1.00  0.00     0.000 HD 
HETATM    5  C   UNL     1     -12.702  14.010  72.660  1.00  0.00    -0.229 C  
HETATM    6  H   UNL     1     -12.819  16.411  74.915  1.00  0.00     0.000 HD 
HETATM    7  C   UNL     1     -13.090  15.368  73.228  1.00  0.00    -0.524 C  
HETATM    8  O   UNL     1     -11.732  17.379  73.081  1.00  0.00     0.174 OA 
HETATM    9  C   UNL     1     -12.421  16.387  72.302  1.00  0.00    -0.090 C  
ENDROOT
BRANCH   1  10
HETATM   10  O   UNL     1     -11.914  15.547  70.080  1.00  0.00    -0.319 OA 
BRANCH  10  11
HETATM   11  C   UNL     1     -10.965  15.211  69.032  1.00  0.00    -0.244 C  
HETATM   12  O   UNL     1     -12.219  13.252  68.340  1.00  0.00    -0.271 OA 
HETATM   13  H2  UNL     1      -6.515  15.474  67.686  1.00  0.00     0.000 HD 
HETATM   14  H   UNL     1     -12.192  12.318  68.166  1.00  0.00     0.000 HD 
HETATM   15  C   UNL     1     -10.921  13.701  68.751  1.00  0.00    -0.264 C  
HETATM   16  H1  UNL     1      -7.175  16.805  68.500  1.00  0.00     0.000 HD 
HETATM   17  C   UNL     1      -8.547  13.813  67.961  1.00  0.00    -0.177 C  
HETATM   18  N   UNL     1      -9.963  11.861  67.433  1.00  0.00    -0.189 NA 
HETATM   19  N   UNL     1      -7.177  15.791  68.394  1.00  0.00    -0.117 NA 
HETATM   20  H1  UNL     1      -9.317  11.609  66.686  1.00  0.00     0.000 HD 
HETATM   21  H2  UNL     1     -10.904  11.505  67.264  1.00  0.00     0.000 HD 
HETATM   22  C   UNL     1      -8.545  15.338  68.121  1.00  0.00    -0.160 C  
HETATM   23  C   UNL     1      -9.949  13.321  67.628  1.00  0.00    -0.229 C  
HETATM   24  C   UNL     1      -9.544  15.823  69.226  1.00  0.00    -0.270 C  
BRANCH  24  25
HETATM   25  O   UNL     1      -9.576  17.264  69.410  1.00  0.00    -0.053 OA 
BRANCH  25  26
HETATM   26  C   UNL     1     -10.344  18.015  68.462  1.00  0.00    -0.349 C  
HETATM   27  O   UNL     1      -9.760  19.298  68.224  1.00  0.00    -0.337 OA 
HETATM   28  C   UNL     1      -8.470  19.216  67.599  1.00  0.00    -0.291 C  
HETATM   29  C   UNL     1      -8.613  18.623  66.191  1.00  0.00    -0.137 C  
HETATM   30  H2  UNL     1     -11.965  15.911  67.764  1.00  0.00     0.000 HD 
HETATM   31  C   UNL     1      -9.230  17.228  66.304  1.00  0.00    -0.215 C  
HETATM   32  O   UNL     1      -7.361  18.464  65.507  1.00  0.00    -0.534 OA 
HETATM   33  H1  UNL     1     -11.217  15.398  66.357  1.00  0.00     0.000 HD 
HETATM   34  H   UNL     1      -7.449  18.097  64.635  1.00  0.00     0.000 HD 
HETATM   35  H   UNL     1      -9.864  15.848  65.053  1.00  0.00     0.000 HD 
HETATM   36  N   UNL     1     -11.090  15.891  67.241  1.00  0.00    -0.234 NA 
HETATM   37  O   UNL     1      -9.481  16.714  64.983  1.00  0.00     0.346 OA 
HETATM   38  C   UNL     1     -10.538  17.260  67.110  1.00  0.00    -0.256 C  
BRANCH  28  39
HETATM   39  C   UNL     1      -7.855  20.626  67.622  1.00  0.00    -0.197 C  
HETATM   40  H2  UNL     1      -7.850  20.909  65.579  1.00  0.00     0.000 HD 
HETATM   41  N   UNL     1      -7.204  21.008  66.361  1.00  0.00    -0.525 NA 
HETATM   42  H1  UNL     1      -6.796  21.943  66.376  1.00  0.00     0.000 HD 
ENDBRANCH  28  39
ENDBRANCH  25  26
ENDBRANCH  24  25
ENDBRANCH  10  11
ENDBRANCH   1  10
BRANCH   5  43
HETATM   43  C   UNL     1     -13.786  13.438  71.737  1.00  0.00    -0.254 C  
HETATM   44  O   UNL     1     -14.375  12.286  72.349  1.00  0.00    -0.030 OA 
HETATM   45  H   UNL     1     -15.046  11.931  71.777  1.00  0.00     0.000 HD 
ENDBRANCH   5  43
TORSDOF 6
ENDMDL
MODEL      317
REMARK 921   NORMALIZED FREE ENERGY PREDICTED BY IDOCK:    2.07 KCAL/MOL
REMARK 922        TOTAL FREE ENERGY PREDICTED BY IDOCK:    1.15 KCAL/MOL
REMARK 923 INTER-LIGAND FREE ENERGY PREDICTED BY IDOCK:   -2.19 KCAL/MOL
REMARK 924 INTRA-LIGAND FREE ENERGY PREDICTED BY IDOCK:    3.34 KCAL/MOL
REMARK 927      BINDING AFFINITY PREDICTED BY RF-SCORE:    0.00 PKD
ROOT
HETATM    1  C   UNL     1      -9.381  15.740  66.648  1.00  0.00    -0.258 C  
HETATM    2  O   UNL     1      -9.399  12.937  64.860  1.00  0.00    -0.266 OA 
HETATM    3  O   UNL     1      -9.507  16.034  65.249  1.00  0.00    -0.317 OA 
HETATM    4  H   UNL     1      -8.962  12.519  67.311  1.00  0.00     0.000 HD 
HETATM    5  C   UNL     1     -10.476  15.139  64.674  1.00  0.00    -0.052 C  
HETATM    6  H   UNL     1      -9.320  12.128  65.351  1.00  0.00     0.000 HD 
HETATM    7  C   UNL     1     -10.348  13.842  65.460  1.00  0.00    -0.321 C  
HETATM    8  O   UNL     1      -8.701  13.425  67.200  1.00  0.00    -0.210 OA 
HETATM    9  C   UNL     1      -9.807  14.264  66.829  1.00  0.00    -0.270 C  
ENDROOT
BRANCH   1  10
HETATM   10  O   UNL     1     -10.248  16.579  67.415  1.00  0.00    -0.273 OA 
BRANCH  10  11
HETATM   11  C   UNL     1      -9.972  18.007  67.442  1.00  0.00    -0.326 C  
HETATM   12  O   UNL     1     -11.906  18.542  66.076  1.00  0.00     2.116 OA 
HETATM   13  H2  UNL     1      -6.642  21.244  67.774  1.00  0.00     0.000 HD 
HETATM   14  H   UNL     1     -12.225  18.983  65.297  1.00  0.00     0.000 HD 
HETATM   15  C   UNL     1     -10.487  18.721  66.182  1.00  0.00    -0.446 C  
HETATM   16  H1  UNL     1      -6.481  19.844  68.716  1.00  0.00     0.000 HD 
HETATM   17  C   UNL     1      -8.749  20.515  66.364  1.00  0.00    -0.042 C  
HETATM   18  N   UNL     1     -10.751  20.834  64.955  1.00  0.00     0.612 NA 
HETATM   19  N   UNL     1      -6.819  20.242  67.840  1.00  0.00    -0.279 NA 
HETATM   20  H1  UNL     1     -10.583  21.839  64.965  1.00  0.00     0.000 HD 
HETATM   21  H2  UNL     1     -11.733  20.609  64.798  1.00  0.00     0.000 HD 
HETATM   22  C   UNL     1      -8.241  19.917  67.681  1.00  0.00    -0.313 C  
HETATM   23  C   UNL     1     -10.236  20.233  66.197  1.00  0.00    -0.299 C  
HETATM   24  C   UNL     1      -8.493  18.373  67.771  1.00  0.00    -0.259 C  
BRANCH  24  25
HETATM   25  O   UNL     1      -8.028  17.764  69.006  1.00  0.00    -0.205 OA 
BRANCH  25  26
HETATM   26  C   UNL     1      -6.609  17.660  69.175  1.00  0.00    -0.251 C  
HETATM   27  O   UNL     1      -6.275  16.648  70.129  1.00  0.00    -0.165 OA 
HETATM   28  C   UNL     1      -6.643  15.330  69.694  1.00  0.00    -0.174 C  
HETATM   29  C   UNL     1      -5.820  14.942  68.459  1.00  0.00    -0.097 C  
HETATM   30  H2  UNL     1      -6.006  19.312  67.065  1.00  0.00     0.000 HD 
HETATM   31  C   UNL     1      -6.092  15.956  67.346  1.00  0.00    -0.115 C  
HETATM   32  O   UNL     1      -6.155  13.651  67.930  1.00  0.00    -0.127 OA 
HETATM   33  H1  UNL     1      -5.682  18.183  65.872  1.00  0.00     0.000 HD 
HETATM   34  H   UNL     1      -5.645  13.411  67.165  1.00  0.00     0.000 HD 
HETATM   35  H   UNL     1      -5.402  16.301  65.536  1.00  0.00     0.000 HD 
HETATM   36  N   UNL     1      -6.172  18.356  66.750  1.00  0.00    -0.170 NA 
HETATM   37  O   UNL     1      -5.233  15.671  66.227  1.00  0.00     1.253 OA 
HETATM   38  C   UNL     1      -5.859  17.395  67.832  1.00  0.00    -0.138 C  
BRANCH  28  39
HETATM   39  C   UNL     1      -6.457  14.381  70.890  1.00  0.00     0.149 C  
HETATM   40  H2  UNL     1      -5.494  15.734  72.113  1.00  0.00     0.000 HD 
HETATM   41  N   UNL     1      -5.367  14.773  71.794  1.00  0.00    -0.106 NA 
HETATM   42  H1  UNL     1      -5.244  14.144  72.587  1.00  0.00     0.000 HD 
ENDBRANCH  28  39
ENDBRANCH  25  26
ENDBRANCH  24  25
ENDBRANCH  10  11
ENDBRANCH   1  10
BRANCH   5  43
HETATM   43  C   UNL     1     -11.899  15.711  64.729  1.00  0.00    -0.047 C  
HETATM   44  O   UNL     1     -12.693  15.116  63.697  1.00  0.00    -0.797 OA 
HETATM   45  H   UNL     1     -13.573  15.470  63.730  1.00  0.00     0.000 HD 
ENDBRANCH   5  43
TORSDOF 6
ENDMDL
MODEL      318
REMARK 921   NORMALIZED FREE ENERGY PREDICTED BY IDOCK:    2.35 KCAL/MOL
REMARK 922        TOTAL FREE ENERGY PREDICTED BY IDOCK:    1.53 KCAL/MOL
REMARK 923 INTER-LIGAND FREE ENERGY PREDICTED BY IDOCK:    1.79 KCAL/MOL
REMARK 924 INTRA-LIGAND FREE ENERGY PREDICTED BY IDOCK:   -0.26 KCAL/MOL
REMARK 927      BINDING AFFINITY PREDICTED BY RF-SCORE:    0.00 PKD
ROOT
HETATM    1  C   UNL     1      -9.107  11.129  68.146  1.00  0.00    -0.159 C  
HETATM    2  O   UNL     1      -8.554  14.375  68.602  1.00  0.00    -0.171 OA 
HETATM    3  O   UNL     1      -7.970  11.559  67.385  1.00  0.00    -0.129 OA 
HETATM    4  H   UNL     1     -10.667  13.585  69.736  1.00  0.00     0.000 HD 
HETATM    5  C   UNL     1      -7.146  12.397  68.216  1.00  0.00    -0.098 C  
HETATM    6  H   UNL     1      -9.155  14.824  69.185  1.00  0.00     0.000 HD 
HETATM    7  C   UNL     1      -8.111  13.117  69.148  1.00  0.00     0.480 C  
HETATM    8  O   UNL     1     -10.534  12.935  69.056  1.00  0.00    -0.134 OA 
HETATM    9  C   UNL     1      -9.323  12.187  69.253  1.00  0.00     0.778 C  
ENDROOT
BRANCH   1  10
HETATM   10  O   UNL     1      -8.851   9.859  68.750  1.00  0.00    -0.126 OA 
BRANCH  10  11
HETATM   11  C   UNL     1      -9.740   8.754  68.425  1.00  0.00    -0.162 C  
HETATM   12  O   UNL     1     -11.562   9.656  69.752  1.00  0.00    -0.428 OA 
HETATM   13  H2  UNL     1      -9.965   4.245  67.288  1.00  0.00     0.000 HD 
HETATM   14  H   UNL     1     -12.194   9.489  70.442  1.00  0.00     0.000 HD 
HETATM   15  C   UNL     1     -10.762   8.485  69.541  1.00  0.00    -0.174 C  
HETATM   16  H1  UNL     1      -8.698   5.162  66.638  1.00  0.00     0.000 HD 
HETATM   17  C   UNL     1     -10.957   6.067  68.919  1.00  0.00    -0.395 C  
HETATM   18  N   UNL     1     -12.666   7.149  70.334  1.00  0.00    -0.452 NA 
HETATM   19  N   UNL     1      -9.321   5.022  67.433  1.00  0.00    -0.122 NA 
HETATM   20  H1  UNL     1     -13.310   6.390  70.115  1.00  0.00     0.000 HD 
HETATM   21  H2  UNL     1     -13.155   8.009  70.582  1.00  0.00     0.000 HD 
HETATM   22  C   UNL     1     -10.020   6.278  67.724  1.00  0.00    -0.127 C  
HETATM   23  C   UNL     1     -11.732   7.344  69.213  1.00  0.00     0.674 C  
HETATM   24  C   UNL     1      -9.014   7.457  67.956  1.00  0.00    -0.132 C  
BRANCH  24  25
HETATM   25  O   UNL     1      -8.107   7.695  66.846  1.00  0.00    -0.112 OA 
BRANCH  25  26
HETATM   26  C   UNL     1      -8.519   8.667  65.877  1.00  0.00    -0.146 C  
HETATM   27  O   UNL     1      -7.487   9.626  65.637  1.00  0.00    -0.095 OA 
HETATM   28  C   UNL     1      -6.320   9.049  65.034  1.00  0.00    -0.065 C  
HETATM   29  C   UNL     1      -6.662   8.533  63.629  1.00  0.00    -0.084 C  
HETATM   30  H2  UNL     1     -10.813   7.330  65.175  1.00  0.00     0.000 HD 
HETATM   31  C   UNL     1      -7.766   7.481  63.746  1.00  0.00    -0.126 C  
HETATM   32  O   UNL     1      -5.558   7.899  62.967  1.00  0.00    -0.053 OA 
HETATM   33  H1  UNL     1     -10.302   6.549  63.786  1.00  0.00     0.000 HD 
HETATM   34  H   UNL     1      -5.770   7.579  62.098  1.00  0.00     0.000 HD 
HETATM   35  H   UNL     1      -8.865   6.428  62.499  1.00  0.00     0.000 HD 
HETATM   36  N   UNL     1     -10.006   6.970  64.666  1.00  0.00     3.325 NA 
HETATM   37  O   UNL     1      -8.179   7.081  62.427  1.00  0.00    -0.126 OA 
HETATM   38  C   UNL     1      -8.972   8.022  64.530  1.00  0.00     0.650 C  
BRANCH  28  39
HETATM   39  C   UNL     1      -5.213  10.118  65.051  1.00  0.00    -0.078 C  
HETATM   40  H2  UNL     1      -6.301  11.561  66.045  1.00  0.00     0.000 HD 
HETATM   41  N   UNL     1      -5.717  11.488  65.212  1.00  0.00    -0.171 NA 
HETATM   42  H1  UNL     1      -4.983  12.197  65.225  1.00  0.00     0.000 HD 
ENDBRANCH  28  39
ENDBRANCH  25  26
ENDBRANCH  24  25
ENDBRANCH  10  11
ENDBRANCH   1  10
BRANCH   5  43
HETATM   43  C   UNL     1      -6.089  11.593  68.985  1.00  0.00    -0.057 C  
HETATM   44  O   UNL     1      -6.699  10.962  70.116  1.00  0.00    -0.196 OA 
HETATM   45  H   UNL     1      -6.045  10.465  70.592  1.00  0.00     0.000 HD 
ENDBRANCH   5  43
TORSDOF 6
ENDMDL
MODEL      319
REMARK 921   NORMALIZED FREE ENERGY PREDICTED BY IDOCK:    2.45 KCAL/MOL
REMARK 922        TOTAL FREE ENERGY PREDICTED BY IDOCK:    1.67 KCAL/MOL
REMARK 923 INTER-LIGAND FREE ENERGY PREDICTED BY IDOCK:   -1.82 KCAL/MOL
REMARK 924 INTRA-LIGAND FREE ENERGY PREDICTED BY IDOCK:    3.49 KCAL/MOL
REMARK 927      BINDING AFFINITY PREDICTED BY RF-SCORE:    0.00 PKD
ROOT
HETATM    1  C   UNL     1      -8.803  11.399  67.920  1.00  0.00    -0.149 C  
HETATM    2  O   UNL     1      -7.958  14.338  69.224  1.00  0.00    -0.332 OA 
HETATM    3  O   UNL     1      -7.999  12.148  66.998  1.00  0.00    -0.168 OA 
HETATM    4  H   UNL     1      -9.554  13.050  70.696  1.00  0.00     0.000 HD 
HETATM    5  C   UNL     1      -6.889  12.722  67.712  1.00  0.00    -0.135 C  
HETATM    6  H   UNL     1      -8.284  14.517  70.098  1.00  0.00     0.000 HD 
HETATM    7  C   UNL     1      -7.412  13.009  69.112  1.00  0.00     0.196 C  
HETATM    8  O   UNL     1      -9.709  12.678  69.836  1.00  0.00     1.807 OA 
HETATM    9  C   UNL     1      -8.549  12.006  69.320  1.00  0.00     0.733 C  
ENDROOT
BRANCH   1  10
HETATM   10  O   UNL     1      -8.411  10.025  67.922  1.00  0.00    -0.117 OA 
BRANCH  10  11
HETATM   11  C   UNL     1      -9.381   9.036  68.367  1.00  0.00    -0.139 C  
HETATM   12  O   UNL     1      -8.376   8.848  70.569  1.00  0.00    -0.124 OA 
HETATM   13  H2  UNL     1     -12.218   5.599  67.022  1.00  0.00     0.000 HD 
HETATM   14  H   UNL     1      -8.015   8.262  71.225  1.00  0.00     0.000 HD 
HETATM   15  C   UNL     1      -8.797   8.089  69.428  1.00  0.00    -0.144 C  
HETATM   16  H1  UNL     1     -12.069   6.945  66.005  1.00  0.00     0.000 HD 
HETATM   17  C   UNL     1     -10.351   6.236  68.774  1.00  0.00    -0.245 C  
HETATM   18  N   UNL     1      -9.165   6.186  70.939  1.00  0.00    -0.153 NA 
HETATM   19  N   UNL     1     -11.604   6.336  66.677  1.00  0.00     0.476 NA 
HETATM   20  H1  UNL     1      -9.838   5.498  71.277  1.00  0.00     0.000 HD 
HETATM   21  H2  UNL     1      -8.746   6.721  71.700  1.00  0.00     0.000 HD 
HETATM   22  C   UNL     1     -11.050   7.153  67.763  1.00  0.00    -0.025 C  
HETATM   23  C   UNL     1      -9.808   7.054  69.937  1.00  0.00    -0.170 C  
HETATM   24  C   UNL     1     -10.099   8.271  67.215  1.00  0.00    -0.247 C  
BRANCH  24  25
HETATM   25  O   UNL     1     -10.722   9.165  66.253  1.00  0.00     0.022 OA 
BRANCH  25  26
HETATM   26  C   UNL     1     -10.050  10.406  66.002  1.00  0.00    -0.243 C  
HETATM   27  O   UNL     1      -9.448  10.413  64.705  1.00  0.00    -0.223 OA 
HETATM   28  C   UNL     1     -10.412  10.350  63.644  1.00  0.00     0.490 C  
HETATM   29  C   UNL     1     -11.270  11.622  63.646  1.00  0.00    -0.411 C  
HETATM   30  H2  UNL     1     -11.050  11.662  68.230  1.00  0.00     0.000 HD 
HETATM   31  C   UNL     1     -11.983  11.733  64.994  1.00  0.00     0.049 C  
HETATM   32  O   UNL     1     -12.293  11.625  62.638  1.00  0.00    -0.546 OA 
HETATM   33  H1  UNL     1     -12.322  12.518  67.558  1.00  0.00     0.000 HD 
HETATM   34  H   UNL     1     -12.824  12.412  62.640  1.00  0.00     0.000 HD 
HETATM   35  H   UNL     1     -13.136  13.053  65.890  1.00  0.00     0.000 HD 
HETATM   36  N   UNL     1     -11.709  11.709  67.454  1.00  0.00    -0.606 NA 
HETATM   37  O   UNL     1     -12.693  12.984  65.052  1.00  0.00    -0.622 OA 
HETATM   38  C   UNL     1     -10.988  11.643  66.162  1.00  0.00    -0.288 C  
BRANCH  28  39
HETATM   39  C   UNL     1      -9.640  10.122  62.332  1.00  0.00    -0.104 C  
HETATM   40  H2  UNL     1      -9.235   8.125  62.645  1.00  0.00     0.000 HD 
HETATM   41  N   UNL     1      -8.732   8.969  62.373  1.00  0.00    -0.302 NA 
HETATM   42  H1  UNL     1      -8.220   8.818  61.503  1.00  0.00     0.000 HD 
ENDBRANCH  28  39
ENDBRANCH  25  26
ENDBRANCH  24  25
ENDBRANCH  10  11
ENDBRANCH   1  10
BRANCH   5  43
HETATM   43  C   UNL     1      -5.668  11.794  67.729  1.00  0.00    -0.057 C  
HETATM   44  O   UNL     1      -6.067  10.487  68.159  1.00  0.00    -0.044 OA 
HETATM   45  H   UNL     1      -5.311   9.912  68.170  1.00  0.00     0.000 HD 
ENDBRANCH   5  43
TORSDOF 6
ENDMDL
MODEL      320
REMARK 921   NORMALIZED FREE ENERGY PREDICTED BY IDOCK:    2.98 KCAL/MOL
REMARK 922        TOTAL FREE ENERGY PREDICTED BY IDOCK:    2.39 KCAL/MOL
REMARK 923 INTER-LIGAND FREE ENERGY PREDICTED BY IDOCK:    0.72 KCAL/MOL
REMARK 924 INTRA-LIGAND FREE ENERGY PREDICTED BY IDOCK:    1.67 KCAL/MOL
REMARK 927      BINDING AFFINITY PREDICTED BY RF-SCORE:    0.00 PKD
ROOT
HETATM    1  C   UNL     1      -8.996   6.982  67.850  1.00  0.00    -0.122 C  
HETATM    2  O   UNL     1     -10.375   4.737  69.878  1.00  0.00    -0.238 OA 
HETATM    3  O   UNL     1      -8.852   5.659  67.312  1.00  0.00    -0.109 OA 
HETATM    4  H   UNL     1     -10.394   7.065  70.856  1.00  0.00     0.000 HD 
HETATM    5  C   UNL     1     -10.106   4.966  67.446  1.00  0.00    -0.150 C  
HETATM    6  H   UNL     1     -10.770   5.078  70.672  1.00  0.00     0.000 HD 
HETATM    7  C   UNL     1     -10.738   5.512  68.718  1.00  0.00    -0.125 C  
HETATM    8  O   UNL     1      -9.686   7.104  70.225  1.00  0.00    -0.175 OA 
HETATM    9  C   UNL     1     -10.150   6.916  68.878  1.00  0.00    -0.170 C  
ENDROOT
BRANCH   1  10
HETATM   10  O   UNL     1      -9.337   7.907  66.815  1.00  0.00    -0.162 OA 
BRANCH  10  11
HETATM   11  C   UNL     1      -9.901   9.191  67.202  1.00  0.00    -0.195 C  
HETATM   12  O   UNL     1     -11.739   9.007  65.627  1.00  0.00     4.505 OA 
HETATM   13  H2  UNL     1      -8.946  13.429  68.874  1.00  0.00     0.000 HD 
HETATM   14  H   UNL     1     -12.211   9.420  64.913  1.00  0.00     0.000 HD 
HETATM   15  C   UNL     1     -10.665   9.859  66.048  1.00  0.00     0.208 C  
HETATM   16  H1  UNL     1      -8.082  12.117  69.506  1.00  0.00     0.000 HD 
HETATM   17  C   UNL     1     -10.226  12.153  66.950  1.00  0.00    -0.228 C  
HETATM   18  N   UNL     1     -11.997  11.773  65.275  1.00  0.00    -0.227 NA 
HETATM   19  N   UNL     1      -8.541  12.513  68.686  1.00  0.00    -0.029 NA 
HETATM   20  H1  UNL     1     -12.417  12.666  65.533  1.00  0.00     0.000 HD 
HETATM   21  H2  UNL     1     -12.681  11.127  64.881  1.00  0.00     0.000 HD 
HETATM   22  C   UNL     1      -9.534  11.558  68.183  1.00  0.00    -0.184 C  
HETATM   23  C   UNL     1     -11.296  11.201  66.436  1.00  0.00     0.079 C  
HETATM   24  C   UNL     1      -8.891  10.159  67.888  1.00  0.00    -0.125 C  
BRANCH  24  25
HETATM   25  O   UNL     1      -8.226   9.556  69.031  1.00  0.00    -0.105 OA 
BRANCH  25  26
HETATM   26  C   UNL     1      -6.809   9.367  68.923  1.00  0.00    -0.055 C  
HETATM   27  O   UNL     1      -6.399   9.310  67.554  1.00  0.00    -0.061 OA 
HETATM   28  C   UNL     1      -6.611  10.546  66.857  1.00  0.00    -0.081 C  
HETATM   29  C   UNL     1      -5.714  11.639  67.454  1.00  0.00    -0.088 C  
HETATM   30  H2  UNL     1      -6.323   9.760  71.597  1.00  0.00     0.000 HD 
HETATM   31  C   UNL     1      -6.059  11.807  68.934  1.00  0.00    -0.054 C  
HETATM   32  O   UNL     1      -5.894  12.925  66.841  1.00  0.00    -0.450 OA 
HETATM   33  H1  UNL     1      -5.844  11.364  71.592  1.00  0.00     0.000 HD 
HETATM   34  H   UNL     1      -5.338  13.601  67.211  1.00  0.00     0.000 HD 
HETATM   35  H   UNL     1      -5.355  12.845  70.450  1.00  0.00     0.000 HD 
HETATM   36  N   UNL     1      -6.376  10.648  71.098  1.00  0.00    -0.282 NA 
HETATM   37  O   UNL     1      -5.141  12.741  69.530  1.00  0.00    -0.070 OA 
HETATM   38  C   UNL     1      -5.995  10.463  69.678  1.00  0.00    -0.048 C  
BRANCH  28  39
HETATM   39  C   UNL     1      -6.361  10.282  65.363  1.00  0.00    -0.124 C  
HETATM   40  H2  UNL     1      -7.727  11.655  64.653  1.00  0.00     0.000 HD 
HETATM   41  N   UNL     1      -7.480  10.678  64.496  1.00  0.00    -0.351 NA 
HETATM   42  H1  UNL     1      -7.314  10.504  63.505  1.00  0.00     0.000 HD 
ENDBRANCH  28  39
ENDBRANCH  25  26
ENDBRANCH  24  25
ENDBRANCH  10  11
ENDBRANCH   1  10
BRANCH   5  43
HETATM   43  C   UNL     1     -11.010   5.161  66.221  1.00  0.00     0.032 C  
HETATM   44  O   UNL     1     -11.688   6.418  66.323  1.00  0.00    -0.099 OA 
HETATM   45  H   UNL     1     -12.247   6.538  65.565  1.00  0.00     0.000 HD 
ENDBRANCH   5  43
TORSDOF 6
ENDMDL
MODEL      321
REMARK 921   NORMALIZED FREE ENERGY PREDICTED BY IDOCK:    3.22 KCAL/MOL
REMARK 922        TOTAL FREE ENERGY PREDICTED BY IDOCK:    2.71 KCAL/MOL
REMARK 923 INTER-LIGAND FREE ENERGY PREDICTED BY IDOCK:   -3.89 KCAL/MOL
REMARK 924 INTRA-LIGAND FREE ENERGY PREDICTED BY IDOCK:    6.60 KCAL/MOL
REMARK 927      BINDING AFFINITY PREDICTED BY RF-SCORE:    0.00 PKD
ROOT
HETATM    1  C   UNL     1      -7.772   9.348  67.537  1.00  0.00    -0.091 C  
HETATM    2  O   UNL     1      -5.351   7.200  66.778  1.00  0.00    -0.021 OA 
HETATM    3  O   UNL     1      -6.957   9.861  66.473  1.00  0.00    -0.086 OA 
HETATM    4  H   UNL     1      -6.696   6.470  68.786  1.00  0.00     0.000 HD 
HETATM    5  C   UNL     1      -6.722   8.807  65.522  1.00  0.00    -0.071 C  
HETATM    6  H   UNL     1      -5.328   6.398  67.287  1.00  0.00     0.000 HD 
HETATM    7  C   UNL     1      -6.685   7.523  66.338  1.00  0.00    -0.057 C  
HETATM    8  O   UNL     1      -6.840   7.409  68.762  1.00  0.00    -0.067 OA 
HETATM    9  C   UNL     1      -7.537   7.819  67.575  1.00  0.00    -0.109 C  
ENDROOT
BRANCH   1  10
HETATM   10  O   UNL     1      -9.153   9.608  67.278  1.00  0.00    -0.133 OA 
BRANCH  10  11
HETATM   11  C   UNL     1      -9.893  10.408  68.242  1.00  0.00    -0.154 C  
HETATM   12  O   UNL     1      -9.373   8.913  70.082  1.00  0.00    -0.162 OA 
HETATM   13  H2  UNL     1     -13.458  13.344  68.827  1.00  0.00     0.000 HD 
HETATM   14  H   UNL     1      -9.719   8.387  70.794  1.00  0.00     0.000 HD 
HETATM   15  C   UNL     1     -10.452   9.558  69.393  1.00  0.00    -0.217 C  
HETATM   16  H1  UNL     1     -12.539  13.489  67.411  1.00  0.00     0.000 HD 
HETATM   17  C   UNL     1     -12.349  11.147  69.780  1.00  0.00    -0.315 C  
HETATM   18  N   UNL     1     -11.719   9.490  71.497  1.00  0.00    -0.381 NA 
HETATM   19  N   UNL     1     -12.906  12.856  68.122  1.00  0.00     1.133 NA 
HETATM   20  H1  UNL     1     -12.224  10.038  72.193  1.00  0.00     0.000 HD 
HETATM   21  H2  UNL     1     -10.978   8.927  71.915  1.00  0.00     0.000 HD 
HETATM   22  C   UNL     1     -11.797  12.098  68.710  1.00  0.00    -0.303 C  
HETATM   23  C   UNL     1     -11.212  10.381  70.440  1.00  0.00    -0.321 C  
HETATM   24  C   UNL     1     -10.969  11.344  67.613  1.00  0.00    -0.250 C  
BRANCH  24  25
HETATM   25  O   UNL     1     -10.424  12.208  66.579  1.00  0.00    -0.219 OA 
BRANCH  25  26
HETATM   26  C   UNL     1      -9.290  13.006  66.941  1.00  0.00    -0.241 C  
HETATM   27  O   UNL     1      -9.203  14.179  66.130  1.00  0.00    -0.189 OA 
HETATM   28  C   UNL     1     -10.304  15.078  66.332  1.00  0.00    -0.287 C  
HETATM   29  C   UNL     1     -10.268  15.630  67.763  1.00  0.00    -0.252 C  
HETATM   30  H2  UNL     1      -8.709  11.561  69.204  1.00  0.00     0.000 HD 
HETATM   31  C   UNL     1     -10.359  14.461  68.745  1.00  0.00    -0.241 C  
HETATM   32  O   UNL     1     -11.362  16.509  68.066  1.00  0.00    -0.269 OA 
HETATM   33  H1  UNL     1      -9.425  12.519  70.375  1.00  0.00     0.000 HD 
HETATM   34  H   UNL     1     -11.339  16.850  68.952  1.00  0.00     0.000 HD 
HETATM   35  H   UNL     1     -10.260  14.231  70.697  1.00  0.00     0.000 HD 
HETATM   36  N   UNL     1      -9.427  12.261  69.388  1.00  0.00     0.830 NA 
HETATM   37  O   UNL     1     -10.203  14.958  70.087  1.00  0.00    -0.046 OA 
HETATM   38  C   UNL     1      -9.287  13.400  68.451  1.00  0.00    -0.165 C  
BRANCH  28  39
HETATM   39  C   UNL     1     -10.220  16.162  65.244  1.00  0.00    -0.170 C  
HETATM   40  H2  UNL     1      -8.915  17.401  66.251  1.00  0.00     0.000 HD 
HETATM   41  N   UNL     1      -9.799  17.476  65.748  1.00  0.00    -0.551 NA 
HETATM   42  H1  UNL     1      -9.743  18.195  65.027  1.00  0.00     0.000 HD 
ENDBRANCH  28  39
ENDBRANCH  25  26
ENDBRANCH  24  25
ENDBRANCH  10  11
ENDBRANCH   1  10
BRANCH   5  43
HETATM   43  C   UNL     1      -7.795   8.765  64.425  1.00  0.00    -0.132 C  
HETATM   44  O   UNL     1      -8.321   7.437  64.323  1.00  0.00    -0.349 OA 
HETATM   45  H   UNL     1      -8.985   7.411  63.644  1.00  0.00     0.000 HD 
ENDBRANCH   5  43
TORSDOF 6
ENDMDL
MODEL      322
REMARK 921   NORMALIZED FREE ENERGY PREDICTED BY IDOCK:    3.30 KCAL/MOL
REMARK 922        TOTAL FREE ENERGY PREDICTED BY IDOCK:    2.82 KCAL/MOL
REMARK 923 INTER-LIGAND FREE ENERGY PREDICTED BY IDOCK:   -0.41 KCAL/MOL
REMARK 924 INTRA-LIGAND FREE ENERGY PREDICTED BY IDOCK:    3.23 KCAL/MOL
REMARK 927      BINDING AFFINITY PREDICTED BY RF-SCORE:    0.00 PKD
ROOT
HETATM    1  C   UNL     1      -8.883   6.911  67.849  1.00  0.00    -0.123 C  
HETATM    2  O   UNL     1     -10.631   4.666  69.569  1.00  0.00     0.114 OA 
HETATM    3  O   UNL     1      -8.906   5.653  67.160  1.00  0.00    -0.109 OA 
HETATM    4  H   UNL     1     -10.360   6.844  70.817  1.00  0.00     0.000 HD 
HETATM    5  C   UNL     1     -10.248   5.134  67.187  1.00  0.00    -0.208 C  
HETATM    6  H   UNL     1     -11.002   4.966  70.391  1.00  0.00     0.000 HD 
HETATM    7  C   UNL     1     -10.842   5.614  68.504  1.00  0.00    -0.102 C  
HETATM    8  O   UNL     1      -9.631   6.855  70.208  1.00  0.00    -0.168 OA 
HETATM    9  C   UNL     1     -10.071   6.892  68.840  1.00  0.00    -0.170 C  
ENDROOT
BRANCH   1  10
HETATM   10  O   UNL     1      -9.056   7.989  66.926  1.00  0.00    -0.139 OA 
BRANCH  10  11
HETATM   11  C   UNL     1      -9.190   9.335  67.461  1.00  0.00    -0.124 C  
HETATM   12  O   UNL     1     -11.175   9.803  66.145  1.00  0.00     0.601 OA 
HETATM   13  H2  UNL     1      -6.901  12.982  69.231  1.00  0.00     0.000 HD 
HETATM   14  H   UNL     1     -11.593  10.394  65.529  1.00  0.00     0.000 HD 
HETATM   15  C   UNL     1      -9.865  10.290  66.464  1.00  0.00    -0.212 C  
HETATM   16  H1  UNL     1      -6.371  11.431  69.661  1.00  0.00     0.000 HD 
HETATM   17  C   UNL     1      -8.700  12.285  67.430  1.00  0.00    -0.180 C  
HETATM   18  N   UNL     1     -10.689  12.557  65.995  1.00  0.00    -0.257 NA 
HETATM   19  N   UNL     1      -6.793  12.012  68.936  1.00  0.00    -0.098 NA 
HETATM   20  H1  UNL     1     -10.809  13.501  66.360  1.00  0.00     0.000 HD 
HETATM   21  H2  UNL     1     -11.567  12.159  65.662  1.00  0.00     0.000 HD 
HETATM   22  C   UNL     1      -8.065  11.412  68.519  1.00  0.00    -0.149 C  
HETATM   23  C   UNL     1     -10.046  11.710  67.013  1.00  0.00    -0.209 C  
HETATM   24  C   UNL     1      -7.877   9.926  68.058  1.00  0.00    -0.086 C  
BRANCH  24  25
HETATM   25  O   UNL     1      -7.279   9.061  69.061  1.00  0.00    -0.069 OA 
BRANCH  25  26
HETATM   26  C   UNL     1      -7.064   9.634  70.356  1.00  0.00    -0.136 C  
HETATM   27  O   UNL     1      -8.224  10.334  70.810  1.00  0.00     0.283 OA 
HETATM   28  C   UNL     1      -9.348   9.469  71.026  1.00  0.00    -0.001 C  
HETATM   29  C   UNL     1      -9.044   8.499  72.176  1.00  0.00    -0.249 C  
HETATM   30  H2  UNL     1      -4.674   8.347  70.780  1.00  0.00     0.000 HD 
HETATM   31  C   UNL     1      -7.810   7.673  71.811  1.00  0.00    -0.087 C  
HETATM   32  O   UNL     1     -10.103   7.565  72.433  1.00  0.00    -0.184 OA 
HETATM   33  H1  UNL     1      -5.179   7.060  71.723  1.00  0.00     0.000 HD 
HETATM   34  H   UNL     1      -9.914   6.965  73.145  1.00  0.00     0.000 HD 
HETATM   35  H   UNL     1      -6.677   6.336  72.706  1.00  0.00     0.000 HD 
HETATM   36  N   UNL     1      -5.463   7.751  71.028  1.00  0.00    -0.030 NA 
HETATM   37  O   UNL     1      -7.444   6.849  72.933  1.00  0.00    -0.082 OA 
HETATM   38  C   UNL     1      -6.630   8.577  71.419  1.00  0.00    -0.066 C  
BRANCH  28  39
HETATM   39  C   UNL     1     -10.578  10.360  71.273  1.00  0.00     1.277 C  
HETATM   40  H2  UNL     1     -11.962   9.086  70.429  1.00  0.00     0.000 HD 
HETATM   41  N   UNL     1     -11.707  10.072  70.379  1.00  0.00    -0.284 NA 
HETATM   42  H1  UNL     1     -12.522  10.663  70.543  1.00  0.00     0.000 HD 
ENDBRANCH  28  39
ENDBRANCH  25  26
ENDBRANCH  24  25
ENDBRANCH  10  11
ENDBRANCH   1  10
BRANCH   5  43
HETATM   43  C   UNL     1     -11.073   5.596  65.978  1.00  0.00     0.504 C  
HETATM   44  O   UNL     1     -11.613   6.897  66.236  1.00  0.00     0.335 OA 
HETATM   45  H   UNL     1     -12.123   7.182  65.488  1.00  0.00     0.000 HD 
ENDBRANCH   5  43
TORSDOF 6
ENDMDL
MODEL      323
REMARK 921   NORMALIZED FREE ENERGY PREDICTED BY IDOCK:    4.31 KCAL/MOL
REMARK 922        TOTAL FREE ENERGY PREDICTED BY IDOCK:    4.18 KCAL/MOL
REMARK 923 INTER-LIGAND FREE ENERGY PREDICTED BY IDOCK:   -1.74 KCAL/MOL
REMARK 924 INTRA-LIGAND FREE ENERGY PREDICTED BY IDOCK:    5.92 KCAL/MOL
REMARK 927      BINDING AFFINITY PREDICTED BY RF-SCORE:    0.00 PKD
ROOT
HETATM    1  C   UNL     1     -10.992   9.368  68.252  1.00  0.00    -0.032 C  
HETATM    2  O   UNL     1     -11.720  11.667  70.540  1.00  0.00    -0.477 OA 
HETATM    3  O   UNL     1     -10.037  10.437  68.214  1.00  0.00    -0.146 OA 
HETATM    4  H   UNL     1     -13.476   9.858  70.394  1.00  0.00     0.000 HD 
HETATM    5  C   UNL     1      -9.654  10.763  69.563  1.00  0.00     0.054 C  
HETATM    6  H   UNL     1     -12.490  11.500  71.070  1.00  0.00     0.000 HD 
HETATM    7  C   UNL     1     -10.889  10.496  70.412  1.00  0.00    -0.101 C  
HETATM    8  O   UNL     1     -13.056   9.818  69.542  1.00  0.00     0.983 OA 
HETATM    9  C   UNL     1     -11.675   9.434  69.638  1.00  0.00     0.322 C  
ENDROOT
BRANCH   1  10
HETATM   10  O   UNL     1     -10.335   8.106  68.109  1.00  0.00    -0.203 OA 
BRANCH  10  11
HETATM   11  C   UNL     1      -8.918   8.105  67.784  1.00  0.00    -0.132 C  
HETATM   12  O   UNL     1      -9.167   9.836  66.100  1.00  0.00    -0.159 OA 
HETATM   13  H2  UNL     1      -5.039   5.535  67.635  1.00  0.00     0.000 HD 
HETATM   14  H   UNL     1      -9.006  10.088  65.198  1.00  0.00     0.000 HD 
HETATM   15  C   UNL     1      -8.657   8.514  66.325  1.00  0.00    -0.129 C  
HETATM   16  H1  UNL     1      -6.102   5.288  68.931  1.00  0.00     0.000 HD 
HETATM   17  C   UNL     1      -6.531   7.194  66.227  1.00  0.00    -0.051 C  
HETATM   18  N   UNL     1      -7.011   8.942  64.552  1.00  0.00    -0.084 NA 
HETATM   19  N   UNL     1      -6.010   5.535  67.946  1.00  0.00    -0.017 NA 
HETATM   20  H1  UNL     1      -6.020   8.966  64.312  1.00  0.00     0.000 HD 
HETATM   21  H2  UNL     1      -7.479   9.824  64.343  1.00  0.00     0.000 HD 
HETATM   22  C   UNL     1      -6.670   6.823  67.709  1.00  0.00    -0.068 C  
HETATM   23  C   UNL     1      -7.168   8.551  65.963  1.00  0.00    -0.077 C  
HETATM   24  C   UNL     1      -8.165   6.799  68.180  1.00  0.00    -0.114 C  
BRANCH  24  25
HETATM   25  O   UNL     1      -8.343   6.454  69.580  1.00  0.00    -0.123 OA 
BRANCH  25  26
HETATM   26  C   UNL     1      -7.228   5.838  70.237  1.00  0.00    -0.075 C  
HETATM   27  O   UNL     1      -6.574   6.757  71.115  1.00  0.00    -0.051 OA 
HETATM   28  C   UNL     1      -7.405   7.165  72.212  1.00  0.00    -0.080 C  
HETATM   29  C   UNL     1      -7.704   5.960  73.114  1.00  0.00    -0.102 C  
HETATM   30  H2  UNL     1      -7.830   3.300  69.375  1.00  0.00     0.000 HD 
HETATM   31  C   UNL     1      -8.418   4.890  72.286  1.00  0.00    -0.123 C  
HETATM   32  O   UNL     1      -8.568   6.271  74.217  1.00  0.00    -0.119 OA 
HETATM   33  H1  UNL     1      -8.619   2.696  70.722  1.00  0.00     0.000 HD 
HETATM   34  H   UNL     1      -8.753   5.525  74.775  1.00  0.00     0.000 HD 
HETATM   35  H   UNL     1      -9.036   3.045  72.576  1.00  0.00     0.000 HD 
HETATM   36  N   UNL     1      -8.360   3.541  70.212  1.00  0.00    -0.055 NA 
HETATM   37  O   UNL     1      -8.593   3.710  73.090  1.00  0.00    -0.088 OA 
HETATM   38  C   UNL     1      -7.625   4.546  71.016  1.00  0.00    -0.064 C  
BRANCH  28  39
HETATM   39  C   UNL     1      -6.685   8.318  72.932  1.00  0.00    -0.096 C  
HETATM   40  H2  UNL     1      -5.316   8.706  71.440  1.00  0.00     0.000 HD 
HETATM   41  N   UNL     1      -5.319   8.557  72.449  1.00  0.00    -0.041 NA 
HETATM   42  H1  UNL     1      -4.842   9.322  72.926  1.00  0.00     0.000 HD 
ENDBRANCH  28  39
ENDBRANCH  25  26
ENDBRANCH  24  25
ENDBRANCH  10  11
ENDBRANCH   1  10
BRANCH   5  43
HETATM   43  C   UNL     1      -8.441   9.949  70.034  1.00  0.00    -0.165 C  
HETATM   44  O   UNL     1      -8.694   8.554  69.832  1.00  0.00    -0.128 OA 
HETATM   45  H   UNL     1      -7.943   8.051  70.124  1.00  0.00     0.000 HD 
ENDBRANCH   5  43
TORSDOF 6
ENDMDL
MODEL      324
REMARK 921   NORMALIZED FREE ENERGY PREDICTED BY IDOCK:    4.58 KCAL/MOL
REMARK 922        TOTAL FREE ENERGY PREDICTED BY IDOCK:    4.54 KCAL/MOL
REMARK 923 INTER-LIGAND FREE ENERGY PREDICTED BY IDOCK:    3.31 KCAL/MOL
REMARK 924 INTRA-LIGAND FREE ENERGY PREDICTED BY IDOCK:    1.22 KCAL/MOL
REMARK 927      BINDING AFFINITY PREDICTED BY RF-SCORE:    0.00 PKD
ROOT
HETATM    1  C   UNL     1      -8.462   9.592  69.153  1.00  0.00    -0.131 C  
HETATM    2  O   UNL     1      -5.998   7.606  70.169  1.00  0.00    -0.024 OA 
HETATM    3  O   UNL     1      -8.089   9.901  70.504  1.00  0.00    -0.230 OA 
HETATM    4  H   UNL     1      -6.860   6.983  67.880  1.00  0.00     0.000 HD 
HETATM    5  C   UNL     1      -6.653   9.937  70.590  1.00  0.00    -0.103 C  
HETATM    6  H   UNL     1      -5.689   6.966  69.539  1.00  0.00     0.000 HD 
HETATM    7  C   UNL     1      -6.159   8.911  69.580  1.00  0.00    -0.039 C  
HETATM    8  O   UNL     1      -7.591   7.453  68.263  1.00  0.00    -0.109 OA 
HETATM    9  C   UNL     1      -7.270   8.828  68.530  1.00  0.00    -0.074 C  
ENDROOT
BRANCH   1  10
HETATM   10  O   UNL     1      -8.693  10.793  68.412  1.00  0.00    -0.129 OA 
BRANCH  10  11
HETATM   11  C   UNL     1      -9.740  10.784  67.403  1.00  0.00    -0.171 C  
HETATM   12  O   UNL     1      -8.711   8.970  66.161  1.00  0.00    -0.133 OA 
HETATM   13  H2  UNL     1     -12.908  13.363  65.169  1.00  0.00     0.000 HD 
HETATM   14  H   UNL     1      -8.392   8.672  65.317  1.00  0.00     0.000 HD 
HETATM   15  C   UNL     1      -9.224  10.303  66.037  1.00  0.00    -0.164 C  
HETATM   16  H1  UNL     1     -12.657  13.670  66.817  1.00  0.00     0.000 HD 
HETATM   17  C   UNL     1     -10.954  11.628  64.802  1.00  0.00    -0.351 C  
HETATM   18  N   UNL     1      -9.733   9.795  63.688  1.00  0.00    -0.463 NA 
HETATM   19  N   UNL     1     -12.236  13.374  65.936  1.00  0.00    -0.439 NA 
HETATM   20  H1  UNL     1     -10.459   9.764  62.972  1.00  0.00     0.000 HD 
HETATM   21  H2  UNL     1      -9.251   8.901  63.786  1.00  0.00     0.000 HD 
HETATM   22  C   UNL     1     -11.587  12.072  66.127  1.00  0.00    -0.304 C  
HETATM   23  C   UNL     1     -10.314  10.256  64.960  1.00  0.00    -0.104 C  
HETATM   24  C   UNL     1     -10.549  12.112  67.300  1.00  0.00    -0.227 C  
BRANCH  24  25
HETATM   25  O   UNL     1     -11.107  12.527  68.576  1.00  0.00    -0.232 OA 
BRANCH  25  26
HETATM   26  C   UNL     1     -10.231  12.467  69.709  1.00  0.00     1.382 C  
HETATM   27  O   UNL     1      -8.975  13.088  69.424  1.00  0.00     0.803 OA 
HETATM   28  C   UNL     1      -9.093  14.498  69.184  1.00  0.00     0.029 C  
HETATM   29  C   UNL     1      -9.558  15.206  70.464  1.00  0.00     0.841 C  
HETATM   30  H2  UNL     1     -12.159  11.551  71.438  1.00  0.00     0.000 HD 
HETATM   31  C   UNL     1     -10.913  14.631  70.880  1.00  0.00     0.216 C  
HETATM   32  O   UNL     1      -9.744  16.620  70.301  1.00  0.00     0.763 OA 
HETATM   33  H1  UNL     1     -12.604  12.979  72.189  1.00  0.00     0.000 HD 
HETATM   34  H   UNL     1     -10.032  17.057  71.094  1.00  0.00     0.000 HD 
HETATM   35  H   UNL     1     -12.141  14.843  72.403  1.00  0.00     0.000 HD 
HETATM   36  N   UNL     1     -12.194  12.566  71.352  1.00  0.00     0.075 NA 
HETATM   37  O   UNL     1     -11.300  15.200  72.144  1.00  0.00    -0.419 OA 
HETATM   38  C   UNL     1     -10.860  13.099  70.991  1.00  0.00     3.593 C  
BRANCH  28  39
HETATM   39  C   UNL     1      -7.734  14.992  68.659  1.00  0.00    -0.128 C  
HETATM   40  H2  UNL     1      -7.014  15.663  70.472  1.00  0.00     0.000 HD 
HETATM   41  N   UNL     1      -7.101  16.005  69.515  1.00  0.00    -0.209 NA 
HETATM   42  H1  UNL     1      -6.199  16.332  69.166  1.00  0.00     0.000 HD 
ENDBRANCH  28  39
ENDBRANCH  25  26
ENDBRANCH  24  25
ENDBRANCH  10  11
ENDBRANCH   1  10
BRANCH   5  43
HETATM   43  C   UNL     1      -6.090  11.337  70.315  1.00  0.00    -0.146 C  
HETATM   44  O   UNL     1      -6.365  11.705  68.959  1.00  0.00    -0.060 OA 
HETATM   45  H   UNL     1      -6.016  12.572  68.789  1.00  0.00     0.000 HD 
ENDBRANCH   5  43
TORSDOF 6
ENDMDL
MODEL      325
REMARK 921   NORMALIZED FREE ENERGY PREDICTED BY IDOCK:    4.58 KCAL/MOL
REMARK 922        TOTAL FREE ENERGY PREDICTED BY IDOCK:    4.55 KCAL/MOL
REMARK 923 INTER-LIGAND FREE ENERGY PREDICTED BY IDOCK:   -1.76 KCAL/MOL
REMARK 924 INTRA-LIGAND FREE ENERGY PREDICTED BY IDOCK:    6.31 KCAL/MOL
REMARK 927      BINDING AFFINITY PREDICTED BY RF-SCORE:    0.00 PKD
ROOT
HETATM    1  C   UNL     1     -10.603   9.138  68.309  1.00  0.00    -0.174 C  
HETATM    2  O   UNL     1     -11.433  10.212  71.344  1.00  0.00    -0.327 OA 
HETATM    3  O   UNL     1      -9.633   8.713  69.278  1.00  0.00    -0.163 OA 
HETATM    4  H   UNL     1     -12.971  11.099  69.549  1.00  0.00     0.000 HD 
HETATM    5  C   UNL     1     -10.325   8.214  70.437  1.00  0.00    -0.206 C  
HETATM    6  H   UNL     1     -12.231  10.723  71.403  1.00  0.00     0.000 HD 
HETATM    7  C   UNL     1     -11.604   9.034  70.531  1.00  0.00    -0.175 C  
HETATM    8  O   UNL     1     -12.180  10.888  69.067  1.00  0.00    -0.462 OA 
HETATM    9  C   UNL     1     -11.890   9.481  69.095  1.00  0.00     0.730 C  
ENDROOT
BRANCH   1  10
HETATM   10  O   UNL     1     -10.880   8.082  67.385  1.00  0.00    -0.231 OA 
BRANCH  10  11
HETATM   11  C   UNL     1      -9.770   7.260  66.931  1.00  0.00    -0.194 C  
HETATM   12  O   UNL     1     -10.970   5.188  67.325  1.00  0.00    -0.169 OA 
HETATM   13  H2  UNL     1      -5.140   6.993  66.514  1.00  0.00     0.000 HD 
HETATM   14  H   UNL     1     -10.957   4.336  67.748  1.00  0.00     0.000 HD 
HETATM   15  C   UNL     1      -9.750   5.884  67.614  1.00  0.00    -0.115 C  
HETATM   16  H1  UNL     1      -5.873   8.497  66.246  1.00  0.00     0.000 HD 
HETATM   17  C   UNL     1      -7.268   5.675  67.352  1.00  0.00    -0.076 C  
HETATM   18  N   UNL     1      -8.657   3.695  67.841  1.00  0.00    -0.094 NA 
HETATM   19  N   UNL     1      -5.905   7.619  66.764  1.00  0.00    -0.038 NA 
HETATM   20  H1  UNL     1      -7.896   3.097  67.520  1.00  0.00     0.000 HD 
HETATM   21  H2  UNL     1      -9.566   3.242  67.751  1.00  0.00     0.000 HD 
HETATM   22  C   UNL     1      -7.220   6.996  66.573  1.00  0.00    -0.082 C  
HETATM   23  C   UNL     1      -8.606   4.984  67.132  1.00  0.00    -0.104 C  
HETATM   24  C   UNL     1      -8.381   7.968  66.975  1.00  0.00    -0.116 C  
BRANCH  24  25
HETATM   25  O   UNL     1      -8.375   9.233  66.259  1.00  0.00    -0.118 OA 
BRANCH  25  26
HETATM   26  C   UNL     1      -8.827  10.383  66.986  1.00  0.00    -0.136 C  
HETATM   27  O   UNL     1      -8.625  10.218  68.391  1.00  0.00    -0.118 OA 
HETATM   28  C   UNL     1      -7.237  10.138  68.749  1.00  0.00    -0.081 C  
HETATM   29  C   UNL     1      -6.545  11.473  68.442  1.00  0.00    -0.060 C  
HETATM   30  H2  UNL     1      -9.229  11.922  64.746  1.00  0.00     0.000 HD 
HETATM   31  C   UNL     1      -6.684  11.770  66.949  1.00  0.00    -0.105 C  
HETATM   32  O   UNL     1      -5.138  11.468  68.731  1.00  0.00    -0.047 OA 
HETATM   33  H1  UNL     1      -7.814  12.816  64.728  1.00  0.00     0.000 HD 
HETATM   34  H   UNL     1      -4.710  12.295  68.541  1.00  0.00     0.000 HD 
HETATM   35  H   UNL     1      -6.233  13.260  65.746  1.00  0.00     0.000 HD 
HETATM   36  N   UNL     1      -8.254  11.952  65.044  1.00  0.00     1.206 NA 
HETATM   37  O   UNL     1      -6.146  13.076  66.674  1.00  0.00     0.342 OA 
HETATM   38  C   UNL     1      -8.153  11.705  66.501  1.00  0.00    -0.075 C  
BRANCH  28  39
HETATM   39  C   UNL     1      -7.165   9.725  70.229  1.00  0.00    -0.149 C  
HETATM   40  H2  UNL     1      -5.180   9.164  70.216  1.00  0.00     0.000 HD 
HETATM   41  N   UNL     1      -6.074   8.786  70.528  1.00  0.00    -0.031 NA 
HETATM   42  H1  UNL     1      -6.026   8.512  71.510  1.00  0.00     0.000 HD 
ENDBRANCH  28  39
ENDBRANCH  25  26
ENDBRANCH  24  25
ENDBRANCH  10  11
ENDBRANCH   1  10
BRANCH   5  43
HETATM   43  C   UNL     1     -10.608   6.709  70.341  1.00  0.00    -0.223 C  
HETATM   44  O   UNL     1      -9.866   6.018  71.351  1.00  0.00    -0.170 OA 
HETATM   45  H   UNL     1     -10.040   5.086  71.292  1.00  0.00     0.000 HD 
ENDBRANCH   5  43
TORSDOF 6
ENDMDL
MODEL      326
REMARK 921   NORMALIZED FREE ENERGY PREDICTED BY IDOCK:    4.72 KCAL/MOL
REMARK 922        TOTAL FREE ENERGY PREDICTED BY IDOCK:    4.73 KCAL/MOL
REMARK 923 INTER-LIGAND FREE ENERGY PREDICTED BY IDOCK:    2.19 KCAL/MOL
REMARK 924 INTRA-LIGAND FREE ENERGY PREDICTED BY IDOCK:    2.55 KCAL/MOL
REMARK 927      BINDING AFFINITY PREDICTED BY RF-SCORE:    0.00 PKD
ROOT
HETATM    1  C   UNL     1     -11.353   9.880  67.655  1.00  0.00     0.251 C  
HETATM    2  O   UNL     1     -12.426  12.270  69.701  1.00  0.00    -0.033 OA 
HETATM    3  O   UNL     1     -10.732  11.133  67.336  1.00  0.00    -0.219 OA 
HETATM    4  H   UNL     1     -13.631  10.080  70.055  1.00  0.00     0.000 HD 
HETATM    5  C   UNL     1     -10.310  11.765  68.558  1.00  0.00    -0.217 C  
HETATM    6  H   UNL     1     -13.061  12.005  70.356  1.00  0.00     0.000 HD 
HETATM    7  C   UNL     1     -11.328  11.341  69.607  1.00  0.00    -0.287 C  
HETATM    8  O   UNL     1     -13.310  10.005  69.164  1.00  0.00     1.682 OA 
HETATM    9  C   UNL     1     -11.875  10.002  69.106  1.00  0.00     0.230 C  
ENDROOT
BRANCH   1  10
HETATM   10  O   UNL     1     -10.397   8.818  67.584  1.00  0.00    -0.226 OA 
BRANCH  10  11
HETATM   11  C   UNL     1      -9.315   8.934  66.620  1.00  0.00    -0.185 C  
HETATM   12  O   UNL     1     -10.810   9.581  64.820  1.00  0.00     1.105 OA 
HETATM   13  H2  UNL     1      -5.088   7.390  65.424  1.00  0.00     0.000 HD 
HETATM   14  H   UNL     1     -11.100   9.403  63.933  1.00  0.00     0.000 HD 
HETATM   15  C   UNL     1      -9.784   8.647  65.185  1.00  0.00     0.762 C  
HETATM   16  H1  UNL     1      -5.421   7.588  67.074  1.00  0.00     0.000 HD 
HETATM   17  C   UNL     1      -7.508   7.869  64.487  1.00  0.00    -0.099 C  
HETATM   18  N   UNL     1      -9.202   8.491  62.803  1.00  0.00    -0.125 NA 
HETATM   19  N   UNL     1      -5.798   7.352  66.156  1.00  0.00    -0.036 NA 
HETATM   20  H1  UNL     1      -8.460   8.587  62.110  1.00  0.00     0.000 HD 
HETATM   21  H2  UNL     1     -10.016   9.062  62.576  1.00  0.00     0.000 HD 
HETATM   22  C   UNL     1      -6.942   8.223  65.868  1.00  0.00    -0.064 C  
HETATM   23  C   UNL     1      -8.669   8.791  64.143  1.00  0.00     0.008 C  
HETATM   24  C   UNL     1      -8.027   8.141  66.996  1.00  0.00    -0.104 C  
BRANCH  24  25
HETATM   25  O   UNL     1      -7.534   8.471  68.322  1.00  0.00    -0.092 OA 
BRANCH  25  26
HETATM   26  C   UNL     1      -6.126   8.708  68.443  1.00  0.00    -0.050 C  
HETATM   27  O   UNL     1      -5.835  10.107  68.442  1.00  0.00    -0.042 OA 
HETATM   28  C   UNL     1      -6.374  10.789  69.584  1.00  0.00    -0.089 C  
HETATM   29  C   UNL     1      -5.688  10.283  70.861  1.00  0.00    -0.086 C  
HETATM   30  H2  UNL     1      -5.502   6.091  69.001  1.00  0.00     0.000 HD 
HETATM   31  C   UNL     1      -5.929   8.778  70.987  1.00  0.00    -0.041 C  
HETATM   32  O   UNL     1      -6.198  10.884  72.061  1.00  0.00     0.614 OA 
HETATM   33  H1  UNL     1      -5.388   6.150  70.669  1.00  0.00     0.000 HD 
HETATM   34  H   UNL     1      -5.773  10.570  72.851  1.00  0.00     0.000 HD 
HETATM   35  H   UNL     1      -5.338   7.339  72.191  1.00  0.00     0.000 HD 
HETATM   36  N   UNL     1      -5.793   6.588  69.842  1.00  0.00    -0.018 NA 
HETATM   37  O   UNL     1      -5.188   8.274  72.113  1.00  0.00    -0.035 OA 
HETATM   38  C   UNL     1      -5.508   8.036  69.709  1.00  0.00    -0.023 C  
BRANCH  28  39
HETATM   39  C   UNL     1      -6.205  12.299  69.343  1.00  0.00    -0.110 C  
HETATM   40  H2  UNL     1      -5.262  12.139  67.516  1.00  0.00     0.000 HD 
HETATM   41  N   UNL     1      -5.130  12.631  68.399  1.00  0.00    -0.056 NA 
HETATM   42  H1  UNL     1      -5.019  13.633  68.239  1.00  0.00     0.000 HD 
ENDBRANCH  28  39
ENDBRANCH  25  26
ENDBRANCH  24  25
ENDBRANCH  10  11
ENDBRANCH   1  10
BRANCH   5  43
HETATM   43  C   UNL     1      -8.879  11.373  68.949  1.00  0.00    -0.001 C  
HETATM   44  O   UNL     1      -8.904  10.146  69.687  1.00  0.00    -0.227 OA 
HETATM   45  H   UNL     1      -8.018   9.904  69.929  1.00  0.00     0.000 HD 
ENDBRANCH   5  43
TORSDOF 6
ENDMDL
MODEL      327
REMARK 921   NORMALIZED FREE ENERGY PREDICTED BY IDOCK:    5.13 KCAL/MOL
REMARK 922        TOTAL FREE ENERGY PREDICTED BY IDOCK:    5.29 KCAL/MOL
REMARK 923 INTER-LIGAND FREE ENERGY PREDICTED BY IDOCK:   -2.66 KCAL/MOL
REMARK 924 INTRA-LIGAND FREE ENERGY PREDICTED BY IDOCK:    7.95 KCAL/MOL
REMARK 927      BINDING AFFINITY PREDICTED BY RF-SCORE:    0.00 PKD
ROOT
HETATM    1  C   UNL     1      -8.017   9.064  68.511  1.00  0.00    -0.103 C  
HETATM    2  O   UNL     1      -6.103  10.832  70.575  1.00  0.00    -0.139 OA 
HETATM    3  O   UNL     1      -6.679   9.158  68.002  1.00  0.00    -0.066 OA 
HETATM    4  H   UNL     1      -8.525  10.804  71.287  1.00  0.00     0.000 HD 
HETATM    5  C   UNL     1      -5.756   8.913  69.080  1.00  0.00    -0.040 C  
HETATM    6  H   UNL     1      -6.528  11.169  71.355  1.00  0.00     0.000 HD 
HETATM    7  C   UNL     1      -6.438   9.453  70.329  1.00  0.00    -0.064 C  
HETATM    8  O   UNL     1      -8.574  10.615  70.358  1.00  0.00     0.627 OA 
HETATM    9  C   UNL     1      -7.937   9.371  70.025  1.00  0.00    -0.137 C  
ENDROOT
BRANCH   1  10
HETATM   10  O   UNL     1      -8.531   7.743  68.323  1.00  0.00    -0.124 OA 
BRANCH  10  11
HETATM   11  C   UNL     1      -7.821   6.854  67.417  1.00  0.00    -0.111 C  
HETATM   12  O   UNL     1      -6.638   8.681  66.340  1.00  0.00    -0.061 OA 
HETATM   13  H2  UNL     1      -7.987   2.794  65.145  1.00  0.00     0.000 HD 
HETATM   14  H   UNL     1      -6.422   9.105  65.518  1.00  0.00     0.000 HD 
HETATM   15  C   UNL     1      -7.471   7.541  66.087  1.00  0.00    -0.083 C  
HETATM   16  H1  UNL     1      -8.633   2.851  66.710  1.00  0.00     0.000 HD 
HETATM   17  C   UNL     1      -7.490   5.368  64.842  1.00  0.00    -0.070 C  
HETATM   18  N   UNL     1      -6.412   7.367  63.877  1.00  0.00    -0.048 NA 
HETATM   19  N   UNL     1      -8.466   3.362  65.843  1.00  0.00    -0.107 NA 
HETATM   20  H1  UNL     1      -5.896   6.765  63.236  1.00  0.00     0.000 HD 
HETATM   21  H2  UNL     1      -5.928   8.249  64.050  1.00  0.00     0.000 HD 
HETATM   22  C   UNL     1      -7.741   4.601  66.146  1.00  0.00    -0.091 C  
HETATM   23  C   UNL     1      -6.696   6.636  65.123  1.00  0.00    -0.050 C  
HETATM   24  C   UNL     1      -8.498   5.466  67.211  1.00  0.00    -0.106 C  
BRANCH  24  25
HETATM   25  O   UNL     1      -8.756   4.778  68.465  1.00  0.00    -0.096 OA 
BRANCH  25  26
HETATM   26  C   UNL     1      -8.169   5.348  69.641  1.00  0.00    -0.100 C  
HETATM   27  O   UNL     1      -9.126   6.112  70.378  1.00  0.00    -0.151 OA 
HETATM   28  C   UNL     1     -10.191   5.310  70.908  1.00  0.00    -0.234 C  
HETATM   29  C   UNL     1      -9.635   4.333  71.953  1.00  0.00    -0.150 C  
HETATM   30  H2  UNL     1      -5.822   3.937  69.429  1.00  0.00     0.000 HD 
HETATM   31  C   UNL     1      -8.589   3.440  71.285  1.00  0.00    -0.069 C  
HETATM   32  O   UNL     1     -10.630   3.458  72.506  1.00  0.00    -0.112 OA 
HETATM   33  H1  UNL     1      -6.115   2.685  70.501  1.00  0.00     0.000 HD 
HETATM   34  H   UNL     1     -10.285   2.854  73.153  1.00  0.00     0.000 HD 
HETATM   35  H   UNL     1      -7.324   2.050  71.867  1.00  0.00     0.000 HD 
HETATM   36  N   UNL     1      -6.542   3.386  69.894  1.00  0.00    -0.033 NA 
HETATM   37  O   UNL     1      -7.974   2.604  72.282  1.00  0.00    -0.053 OA 
HETATM   38  C   UNL     1      -7.516   4.275  70.569  1.00  0.00    -0.049 C  
BRANCH  28  39
HETATM   39  C   UNL     1     -11.262   6.268  71.459  1.00  0.00    -0.290 C  
HETATM   40  H2  UNL     1     -10.678   6.157  73.434  1.00  0.00     0.000 HD 
HETATM   41  N   UNL     1     -11.538   6.087  72.891  1.00  0.00    -0.499 NA 
HETATM   42  H1  UNL     1     -12.247   6.722  73.256  1.00  0.00     0.000 HD 
ENDBRANCH  28  39
ENDBRANCH  25  26
ENDBRANCH  24  25
ENDBRANCH  10  11
ENDBRANCH   1  10
BRANCH   5  43
HETATM   43  C   UNL     1      -5.400   7.426  69.211  1.00  0.00    -0.015 C  
HETATM   44  O   UNL     1      -6.597   6.662  69.388  1.00  0.00    -0.045 OA 
HETATM   45  H   UNL     1      -6.377   5.742  69.470  1.00  0.00     0.000 HD 
ENDBRANCH   5  43
TORSDOF 6
ENDMDL
MODEL      328
REMARK 921   NORMALIZED FREE ENERGY PREDICTED BY IDOCK:    6.21 KCAL/MOL
REMARK 922        TOTAL FREE ENERGY PREDICTED BY IDOCK:    6.74 KCAL/MOL
REMARK 923 INTER-LIGAND FREE ENERGY PREDICTED BY IDOCK:    6.00 KCAL/MOL
REMARK 924 INTRA-LIGAND FREE ENERGY PREDICTED BY IDOCK:    0.74 KCAL/MOL
REMARK 927      BINDING AFFINITY PREDICTED BY RF-SCORE:    0.00 PKD
ROOT
HETATM    1  C   UNL     1     -10.674  14.806  69.356  1.00  0.00    -0.239 C  
HETATM    2  O   UNL     1     -10.925  14.074  72.589  1.00  0.00     2.143 OA 
HETATM    3  O   UNL     1     -11.383  13.572  69.541  1.00  0.00    -0.257 OA 
HETATM    4  H   UNL     1      -9.503  16.117  72.167  1.00  0.00     0.000 HD 
HETATM    5  C   UNL     1     -12.337  13.742  70.605  1.00  0.00    -0.375 C  
HETATM    6  H   UNL     1     -10.528  14.693  73.190  1.00  0.00     0.000 HD 
HETATM    7  C   UNL     1     -11.699  14.733  71.568  1.00  0.00    -0.286 C  
HETATM    8  O   UNL     1      -9.460  15.653  71.340  1.00  0.00     2.191 OA 
HETATM    9  C   UNL     1     -10.745  15.562  70.704  1.00  0.00    -0.233 C  
ENDROOT
BRANCH   1  10
HETATM   10  O   UNL     1     -11.299  15.593  68.339  1.00  0.00    -0.330 OA 
BRANCH  10  11
HETATM   11  C   UNL     1     -11.372  15.042  66.995  1.00  0.00    -0.318 C  
HETATM   12  O   UNL     1     -13.727  14.494  67.204  1.00  0.00     3.074 OA 
HETATM   13  H2  UNL     1      -8.987  12.921  63.605  1.00  0.00     0.000 HD 
HETATM   14  H   UNL     1     -14.390  13.817  67.130  1.00  0.00     0.000 HD 
HETATM   15  C   UNL     1     -12.444  13.947  66.875  1.00  0.00    -0.162 C  
HETATM   16  H1  UNL     1      -8.188  14.111  64.509  1.00  0.00     0.000 HD 
HETATM   17  C   UNL     1     -11.221  12.813  65.006  1.00  0.00    -0.333 C  
HETATM   18  N   UNL     1     -13.602  12.325  65.437  1.00  0.00     1.629 NA 
HETATM   19  N   UNL     1      -8.892  13.373  64.515  1.00  0.00     2.531 NA 
HETATM   20  H1  UNL     1     -13.681  11.941  64.496  1.00  0.00     0.000 HD 
HETATM   21  H2  UNL     1     -14.496  12.665  65.790  1.00  0.00     0.000 HD 
HETATM   22  C   UNL     1     -10.163  13.923  64.998  1.00  0.00    -0.358 C  
HETATM   23  C   UNL     1     -12.563  13.369  65.460  1.00  0.00    -0.465 C  
HETATM   24  C   UNL     1     -10.000  14.601  66.402  1.00  0.00    -0.283 C  
BRANCH  24  25
HETATM   25  O   UNL     1      -9.007  15.662  66.440  1.00  0.00    -0.275 OA 
BRANCH  25  26
HETATM   26  C   UNL     1      -9.028  16.519  67.588  1.00  0.00    -0.197 C  
HETATM   27  O   UNL     1      -7.882  16.304  68.415  1.00  0.00    -0.155 OA 
HETATM   28  C   UNL     1      -6.653  16.666  67.768  1.00  0.00    -0.141 C  
HETATM   29  C   UNL     1      -6.629  18.179  67.510  1.00  0.00    -0.189 C  
HETATM   30  H2  UNL     1     -11.144  18.031  66.704  1.00  0.00     0.000 HD 
HETATM   31  C   UNL     1      -7.817  18.547  66.620  1.00  0.00    -0.252 C  
HETATM   32  O   UNL     1      -5.448  18.624  66.824  1.00  0.00    -0.142 OA 
HETATM   33  H1  UNL     1     -10.336  19.348  66.062  1.00  0.00     0.000 HD 
HETATM   34  H   UNL     1      -5.433  19.560  66.665  1.00  0.00     0.000 HD 
HETATM   35  H   UNL     1      -8.611  20.206  65.921  1.00  0.00     0.000 HD 
HETATM   36  N   UNL     1     -10.265  18.361  66.309  1.00  0.00    -0.398 NA 
HETATM   37  O   UNL     1      -7.872  19.977  66.474  1.00  0.00    -0.290 OA 
HETATM   38  C   UNL     1      -9.138  18.030  67.211  1.00  0.00    -0.255 C  
BRANCH  28  39
HETATM   39  C   UNL     1      -5.500  16.167  68.655  1.00  0.00    -0.105 C  
HETATM   40  H2  UNL     1      -6.586  14.735  69.665  1.00  0.00     0.000 HD 
HETATM   41  N   UNL     1      -5.945  15.497  69.884  1.00  0.00    -0.143 NA 
HETATM   42  H1  UNL     1      -5.180  15.166  70.472  1.00  0.00     0.000 HD 
ENDBRANCH  28  39
ENDBRANCH  25  26
ENDBRANCH  24  25
ENDBRANCH  10  11
ENDBRANCH   1  10
BRANCH   5  43
HETATM   43  C   UNL     1     -13.699  14.227  70.091  1.00  0.00     1.342 C  
HETATM   44  O   UNL     1     -14.152  15.319  70.899  1.00  0.00    -0.728 OA 
HETATM   45  H   UNL     1     -14.995  15.620  70.581  1.00  0.00     0.000 HD 
ENDBRANCH   5  43
TORSDOF 6
ENDMDL
MODEL      329
REMARK 921   NORMALIZED FREE ENERGY PREDICTED BY IDOCK:    6.83 KCAL/MOL
REMARK 922        TOTAL FREE ENERGY PREDICTED BY IDOCK:    7.58 KCAL/MOL
REMARK 923 INTER-LIGAND FREE ENERGY PREDICTED BY IDOCK:    3.68 KCAL/MOL
REMARK 924 INTRA-LIGAND FREE ENERGY PREDICTED BY IDOCK:    3.90 KCAL/MOL
REMARK 927      BINDING AFFINITY PREDICTED BY RF-SCORE:    0.00 PKD
ROOT
HETATM    1  C   UNL     1     -11.699  11.146  68.274  1.00  0.00    -0.252 C  
HETATM    2  O   UNL     1     -10.940  14.122  67.003  1.00  0.00    -0.292 OA 
HETATM    3  O   UNL     1     -10.486  11.648  68.854  1.00  0.00    -0.212 OA 
HETATM    4  H   UNL     1     -12.942  13.073  65.879  1.00  0.00     0.000 HD 
HETATM    5  C   UNL     1     -10.674  13.035  69.191  1.00  0.00    -0.022 C  
HETATM    6  H   UNL     1     -11.539  14.464  66.350  1.00  0.00     0.000 HD 
HETATM    7  C   UNL     1     -11.634  13.581  68.144  1.00  0.00    -0.333 C  
HETATM    8  O   UNL     1     -12.485  12.324  66.244  1.00  0.00    -0.421 OA 
HETATM    9  C   UNL     1     -12.442  12.366  67.679  1.00  0.00     1.019 C  
ENDROOT
BRANCH   1  10
HETATM   10  O   UNL     1     -12.517  10.538  69.277  1.00  0.00    -0.232 OA 
BRANCH  10  11
HETATM   11  C   UNL     1     -12.119   9.235  69.787  1.00  0.00     0.690 C  
HETATM   12  O   UNL     1     -14.381   8.359  69.690  1.00  0.00     3.093 OA 
HETATM   13  H2  UNL     1      -9.067   6.954  72.463  1.00  0.00     0.000 HD 
HETATM   14  H   UNL     1     -15.083   7.932  70.167  1.00  0.00     0.000 HD 
HETATM   15  C   UNL     1     -13.255   8.544  70.558  1.00  0.00     0.928 C  
HETATM   16  H1  UNL     1      -8.490   8.244  71.528  1.00  0.00     0.000 HD 
HETATM   17  C   UNL     1     -11.644   7.251  71.975  1.00  0.00    -0.311 C  
HETATM   18  N   UNL     1     -14.010   6.571  71.813  1.00  0.00    -0.134 NA 
HETATM   19  N   UNL     1      -9.278   7.864  72.053  1.00  0.00    -0.143 NA 
HETATM   20  H1  UNL     1     -13.756   5.647  72.162  1.00  0.00     0.000 HD 
HETATM   21  H2  UNL     1     -14.859   6.548  71.248  1.00  0.00     0.000 HD 
HETATM   22  C   UNL     1     -10.460   7.824  71.186  1.00  0.00    -0.208 C  
HETATM   23  C   UNL     1     -12.873   7.154  71.082  1.00  0.00    -0.288 C  
HETATM   24  C   UNL     1     -10.775   9.233  70.576  1.00  0.00    -0.257 C  
BRANCH  24  25
HETATM   25  O   UNL     1      -9.680   9.813  69.817  1.00  0.00    -0.202 OA 
BRANCH  25  26
HETATM   26  C   UNL     1      -8.456   9.068  69.785  1.00  0.00    -0.132 C  
HETATM   27  O   UNL     1      -7.873   9.089  68.480  1.00  0.00    -0.099 OA 
HETATM   28  C   UNL     1      -7.458  10.403  68.077  1.00  0.00    -0.090 C  
HETATM   29  C   UNL     1      -6.321  10.890  68.985  1.00  0.00    -0.049 C  
HETATM   30  H2  UNL     1      -8.322   8.734  72.508  1.00  0.00     0.000 HD 
HETATM   31  C   UNL     1      -6.821  10.920  70.429  1.00  0.00     0.281 C  
HETATM   32  O   UNL     1      -5.872  12.219  68.677  1.00  0.00    -0.053 OA 
HETATM   33  H1  UNL     1      -7.258   9.960  72.917  1.00  0.00     0.000 HD 
HETATM   34  H   UNL     1      -5.168  12.520  69.239  1.00  0.00     0.000 HD 
HETATM   35  H   UNL     1      -6.038  11.275  72.199  1.00  0.00     0.000 HD 
HETATM   36  N   UNL     1      -7.936   9.635  72.228  1.00  0.00     1.126 NA 
HETATM   37  O   UNL     1      -5.727  11.257  71.301  1.00  0.00    -0.355 OA 
HETATM   38  C   UNL     1      -7.420   9.565  70.841  1.00  0.00    -0.013 C  
BRANCH  28  39
HETATM   39  C   UNL     1      -7.079  10.331  66.587  1.00  0.00    -0.108 C  
HETATM   40  H2  UNL     1      -8.861   9.526  65.932  1.00  0.00     0.000 HD 
HETATM   41  N   UNL     1      -7.863   9.351  65.824  1.00  0.00    -0.098 NA 
HETATM   42  H1  UNL     1      -7.611   9.303  64.836  1.00  0.00     0.000 HD 
ENDBRANCH  28  39
ENDBRANCH  25  26
ENDBRANCH  24  25
ENDBRANCH  10  11
ENDBRANCH   1  10
BRANCH   5  43
HETATM   43  C   UNL     1     -11.208  13.218  70.617  1.00  0.00     1.169 C  
HETATM   44  O   UNL     1     -12.336  14.099  70.596  1.00  0.00    -0.319 OA 
HETATM   45  H   UNL     1     -12.667  14.213  71.479  1.00  0.00     0.000 HD 
ENDBRANCH   5  43
TORSDOF 6
ENDMDL
MODEL      330
REMARK 921   NORMALIZED FREE ENERGY PREDICTED BY IDOCK:    8.17 KCAL/MOL
REMARK 922        TOTAL FREE ENERGY PREDICTED BY IDOCK:    9.40 KCAL/MOL
REMARK 923 INTER-LIGAND FREE ENERGY PREDICTED BY IDOCK:   -0.41 KCAL/MOL
REMARK 924 INTRA-LIGAND FREE ENERGY PREDICTED BY IDOCK:    9.81 KCAL/MOL
REMARK 927      BINDING AFFINITY PREDICTED BY RF-SCORE:    0.00 PKD
ROOT
HETATM    1  C   UNL     1      -7.942   8.902  68.378  1.00  0.00    -0.105 C  
HETATM    2  O   UNL     1      -7.093   6.267  70.218  1.00  0.00    -0.069 OA 
HETATM    3  O   UNL     1      -8.791   7.784  68.080  1.00  0.00    -0.126 OA 
HETATM    4  H   UNL     1      -5.510   8.210  70.523  1.00  0.00     0.000 HD 
HETATM    5  C   UNL     1      -9.194   7.168  69.317  1.00  0.00    -0.140 C  
HETATM    6  H   UNL     1      -6.363   6.390  70.813  1.00  0.00     0.000 HD 
HETATM    7  C   UNL     1      -8.024   7.365  70.270  1.00  0.00    -0.107 C  
HETATM    8  O   UNL     1      -5.897   8.382  69.673  1.00  0.00    -0.029 OA 
HETATM    9  C   UNL     1      -7.311   8.621  69.762  1.00  0.00    -0.052 C  
ENDROOT
BRANCH   1  10
HETATM   10  O   UNL     1      -8.709  10.107  68.443  1.00  0.00    -0.118 OA 
BRANCH  10  11
HETATM   11  C   UNL     1      -7.999  11.360  68.645  1.00  0.00    -0.141 C  
HETATM   12  O   UNL     1      -6.782  10.514  70.568  1.00  0.00    -0.292 OA 
HETATM   13  H2  UNL     1      -8.189  15.981  68.112  1.00  0.00     0.000 HD 
HETATM   14  H   UNL     1      -6.551  10.652  71.479  1.00  0.00     0.000 HD 
HETATM   15  C   UNL     1      -7.626  11.583  70.119  1.00  0.00     1.576 C  
HETATM   16  H1  UNL     1      -8.852  15.016  66.888  1.00  0.00     0.000 HD 
HETATM   17  C   UNL     1      -7.657  14.074  69.856  1.00  0.00     0.648 C  
HETATM   18  N   UNL     1      -6.543  13.022  71.791  1.00  0.00     1.625 NA 
HETATM   19  N   UNL     1      -8.669  15.110  67.887  1.00  0.00    -0.155 NA 
HETATM   20  H1  UNL     1      -6.027  13.887  71.949  1.00  0.00     0.000 HD 
HETATM   21  H2  UNL     1      -6.050  12.208  72.159  1.00  0.00     0.000 HD 
HETATM   22  C   UNL     1      -7.932  13.931  68.354  1.00  0.00    -0.144 C  
HETATM   23  C   UNL     1      -6.850  12.884  70.358  1.00  0.00     1.155 C  
HETATM   24  C   UNL     1      -8.691  12.604  68.010  1.00  0.00    -0.190 C  
BRANCH  24  25
HETATM   25  O   UNL     1      -8.972  12.426  66.596  1.00  0.00    -0.212 OA 
BRANCH  25  26
HETATM   26  C   UNL     1     -10.320  12.670  66.173  1.00  0.00    -0.256 C  
HETATM   27  O   UNL     1     -11.230  11.766  66.804  1.00  0.00    -0.301 OA 
HETATM   28  C   UNL     1     -11.302  11.949  68.225  1.00  0.00    -0.277 C  
HETATM   29  C   UNL     1     -11.893  13.330  68.542  1.00  0.00    -0.349 C  
HETATM   30  H2  UNL     1      -9.727  15.009  64.860  1.00  0.00     0.000 HD 
HETATM   31  C   UNL     1     -10.999  14.403  67.920  1.00  0.00    -0.262 C  
HETATM   32  O   UNL     1     -11.962  13.615  69.947  1.00  0.00    -0.311 OA 
HETATM   33  H1  UNL     1     -10.165  16.134  66.019  1.00  0.00     0.000 HD 
HETATM   34  H   UNL     1     -12.328  14.469  70.142  1.00  0.00     0.000 HD 
HETATM   35  H   UNL     1     -11.055  16.360  67.719  1.00  0.00     0.000 HD 
HETATM   36  N   UNL     1      -9.869  15.171  65.856  1.00  0.00    -0.318 NA 
HETATM   37  O   UNL     1     -11.610  15.693  68.106  1.00  0.00    -0.353 OA 
HETATM   38  C   UNL     1     -10.772  14.143  66.422  1.00  0.00    -0.288 C  
BRANCH  28  39
HETATM   39  C   UNL     1     -12.114  10.777  68.802  1.00  0.00     0.029 C  
HETATM   40  H2  UNL     1     -10.609  10.011  69.986  1.00  0.00     0.000 HD 
HETATM   41  N   UNL     1     -11.286   9.672  69.302  1.00  0.00    -0.432 NA 
HETATM   42  H1  UNL     1     -11.825   8.895  69.685  1.00  0.00     0.000 HD 
ENDBRANCH  28  39
ENDBRANCH  25  26
ENDBRANCH  24  25
ENDBRANCH  10  11
ENDBRANCH   1  10
BRANCH   5  43
HETATM   43  C   UNL     1     -10.496   7.767  69.866  1.00  0.00    -0.232 C  
HETATM   44  O   UNL     1     -10.226   8.448  71.096  1.00  0.00    -0.189 OA 
HETATM   45  H   UNL     1     -11.031   8.819  71.436  1.00  0.00     0.000 HD 
ENDBRANCH   5  43
TORSDOF 6
ENDMDL
MODEL      331
REMARK 921   NORMALIZED FREE ENERGY PREDICTED BY IDOCK:    9.20 KCAL/MOL
REMARK 922        TOTAL FREE ENERGY PREDICTED BY IDOCK:   10.78 KCAL/MOL
REMARK 923 INTER-LIGAND FREE ENERGY PREDICTED BY IDOCK:    4.93 KCAL/MOL
REMARK 924 INTRA-LIGAND FREE ENERGY PREDICTED BY IDOCK:    5.85 KCAL/MOL
REMARK 927      BINDING AFFINITY PREDICTED BY RF-SCORE:    0.00 PKD
ROOT
HETATM    1  C   UNL     1      -7.430  12.544  66.681  1.00  0.00     0.426 C  
HETATM    2  O   UNL     1      -8.680  14.109  69.335  1.00  0.00    -0.333 OA 
HETATM    3  O   UNL     1      -6.402  13.274  67.367  1.00  0.00    -0.249 OA 
HETATM    4  H   UNL     1     -10.462  12.978  67.950  1.00  0.00     0.000 HD 
HETATM    5  C   UNL     1      -6.536  13.042  68.781  1.00  0.00    -0.085 C  
HETATM    6  H   UNL     1      -9.610  13.995  69.487  1.00  0.00     0.000 HD 
HETATM    7  C   UNL     1      -8.027  12.862  69.025  1.00  0.00     0.308 C  
HETATM    8  O   UNL     1      -9.754  13.098  67.329  1.00  0.00    -0.220 OA 
HETATM    9  C   UNL     1      -8.583  12.349  67.694  1.00  0.00    -0.172 C  
ENDROOT
BRANCH   1  10
HETATM   10  O   UNL     1      -6.942  11.265  66.268  1.00  0.00    -0.098 OA 
BRANCH  10  11
HETATM   11  C   UNL     1      -7.748  10.493  65.336  1.00  0.00    -0.106 C  
HETATM   12  O   UNL     1      -6.301   8.550  65.488  1.00  0.00    -0.054 OA 
HETATM   13  H2  UNL     1     -10.627  10.720  61.685  1.00  0.00     0.000 HD 
HETATM   14  H   UNL     1      -5.783   7.911  65.011  1.00  0.00     0.000 HD 
HETATM   15  C   UNL     1      -6.911   9.460  64.564  1.00  0.00    -0.097 C  
HETATM   16  H1  UNL     1     -10.760  11.921  62.873  1.00  0.00     0.000 HD 
HETATM   17  C   UNL     1      -8.472   9.508  62.606  1.00  0.00    -0.190 C  
HETATM   18  N   UNL     1      -6.863   7.659  62.893  1.00  0.00    -0.070 NA 
HETATM   19  N   UNL     1     -10.136  11.285  62.376  1.00  0.00     0.279 NA 
HETATM   20  H1  UNL     1      -7.415   7.094  62.249  1.00  0.00     0.000 HD 
HETATM   21  H2  UNL     1      -6.322   7.085  63.541  1.00  0.00     0.000 HD 
HETATM   22  C   UNL     1      -9.410  10.465  63.352  1.00  0.00    -0.300 C  
HETATM   23  C   UNL     1      -7.741   8.611  63.595  1.00  0.00    -0.136 C  
HETATM   24  C   UNL     1      -8.650  11.350  64.398  1.00  0.00     0.522 C  
BRANCH  24  25
HETATM   25  O   UNL     1      -9.503  12.271  65.131  1.00  0.00    -0.064 OA 
BRANCH  25  26
HETATM   26  C   UNL     1      -9.982  13.414  64.411  1.00  0.00     0.070 C  
HETATM   27  O   UNL     1     -11.366  13.274  64.083  1.00  0.00    -0.374 OA 
HETATM   28  C   UNL     1     -12.213  13.249  65.242  1.00  0.00    -0.448 C  
HETATM   29  C   UNL     1     -12.150  14.603  65.960  1.00  0.00    -0.203 C  
HETATM   30  H2  UNL     1      -7.715  14.909  64.822  1.00  0.00     0.000 HD 
HETATM   31  C   UNL     1     -10.704  14.876  66.375  1.00  0.00    -0.316 C  
HETATM   32  O   UNL     1     -12.938  14.652  67.159  1.00  0.00     0.289 OA 
HETATM   33  H1  UNL     1      -8.197  15.852  66.117  1.00  0.00     0.000 HD 
HETATM   34  H   UNL     1     -12.899  15.491  67.604  1.00  0.00     0.000 HD 
HETATM   35  H   UNL     1      -9.715  16.366  67.196  1.00  0.00     0.000 HD 
HETATM   36  N   UNL     1      -8.350  14.977  65.616  1.00  0.00     1.720 NA 
HETATM   37  O   UNL     1     -10.614  16.197  66.939  1.00  0.00    -0.309 OA 
HETATM   38  C   UNL     1      -9.747  14.752  65.178  1.00  0.00     0.022 C  
BRANCH  28  39
HETATM   39  C   UNL     1     -13.625  12.857  64.774  1.00  0.00     1.512 C  
HETATM   40  H2  UNL     1     -13.743  11.096  65.841  1.00  0.00     0.000 HD 
HETATM   41  N   UNL     1     -13.909  11.420  64.889  1.00  0.00     3.739 NA 
HETATM   42  H1  UNL     1     -14.846  11.160  64.578  1.00  0.00     0.000 HD 
ENDBRANCH  28  39
ENDBRANCH  25  26
ENDBRANCH  24  25
ENDBRANCH  10  11
ENDBRANCH   1  10
BRANCH   5  43
HETATM   43  C   UNL     1      -5.721  11.829  69.249  1.00  0.00    -0.062 C  
HETATM   44  O   UNL     1      -6.602  10.724  69.482  1.00  0.00    -0.071 OA 
HETATM   45  H   UNL     1      -6.098   9.973  69.772  1.00  0.00     0.000 HD 
ENDBRANCH   5  43
TORSDOF 6
ENDMDL
MODEL      332
REMARK 921   NORMALIZED FREE ENERGY PREDICTED BY IDOCK:   12.74 KCAL/MOL
REMARK 922        TOTAL FREE ENERGY PREDICTED BY IDOCK:   15.57 KCAL/MOL
REMARK 923 INTER-LIGAND FREE ENERGY PREDICTED BY IDOCK:   -0.92 KCAL/MOL
REMARK 924 INTRA-LIGAND FREE ENERGY PREDICTED BY IDOCK:   16.49 KCAL/MOL
REMARK 927      BINDING AFFINITY PREDICTED BY RF-SCORE:    0.00 PKD
ROOT
HETATM    1  C   UNL     1      -9.083  16.047  68.464  1.00  0.00    -0.203 C  
HETATM    2  O   UNL     1     -10.089  18.847  69.948  1.00  0.00    -0.062 OA 
HETATM    3  O   UNL     1     -10.269  16.554  67.835  1.00  0.00    -0.256 OA 
HETATM    4  H   UNL     1      -8.134  17.773  71.131  1.00  0.00     0.000 HD 
HETATM    5  C   UNL     1     -10.124  17.974  67.650  1.00  0.00    -0.347 C  
HETATM    6  H   UNL     1      -9.562  19.145  70.679  1.00  0.00     0.000 HD 
HETATM    7  C   UNL     1      -9.279  18.452  68.823  1.00  0.00    -0.254 C  
HETATM    8  O   UNL     1      -8.522  17.047  70.658  1.00  0.00     3.479 OA 
HETATM    9  C   UNL     1      -8.452  17.231  69.234  1.00  0.00     0.177 C  
ENDROOT
BRANCH   1  10
HETATM   10  O   UNL     1      -8.159  15.577  67.480  1.00  0.00    -0.143 OA 
BRANCH  10  11
HETATM   11  C   UNL     1      -8.670  14.750  66.398  1.00  0.00    -0.027 C  
HETATM   12  O   UNL     1      -9.413  16.666  65.107  1.00  0.00     0.028 OA 
HETATM   13  H2  UNL     1     -10.484  10.607  65.293  1.00  0.00     0.000 HD 
HETATM   14  H   UNL     1     -10.139  17.079  64.653  1.00  0.00     0.000 HD 
HETATM   15  C   UNL     1      -9.844  15.418  65.664  1.00  0.00    -0.352 C  
HETATM   16  H1  UNL     1      -9.262  10.648  66.466  1.00  0.00     0.000 HD 
HETATM   17  C   UNL     1     -10.816  13.208  64.997  1.00  0.00    -0.331 C  
HETATM   18  N   UNL     1     -11.508  15.287  63.861  1.00  0.00    -0.527 NA 
HETATM   19  N   UNL     1     -10.055  11.137  66.051  1.00  0.00    -0.236 NA 
HETATM   20  H1  UNL     1     -11.867  14.730  63.086  1.00  0.00     0.000 HD 
HETATM   21  H2  UNL     1     -11.253  16.231  63.570  1.00  0.00     0.000 HD 
HETATM   22  C   UNL     1      -9.624  12.472  65.622  1.00  0.00    -0.088 C  
HETATM   23  C   UNL     1     -10.385  14.580  64.499  1.00  0.00     0.089 C  
HETATM   24  C   UNL     1      -8.980  13.277  66.803  1.00  0.00    -0.174 C  
BRANCH  24  25
HETATM   25  O   UNL     1      -7.844  12.617  67.424  1.00  0.00    -0.161 OA 
BRANCH  25  26
HETATM   26  C   UNL     1      -8.142  11.607  68.397  1.00  0.00    -0.153 C  
HETATM   27  O   UNL     1      -9.388  10.968  68.112  1.00  0.00    -0.160 OA 
HETATM   28  C   UNL     1      -9.367  10.230  66.881  1.00  0.00    -0.158 C  
HETATM   29  C   UNL     1      -8.382   9.059  66.994  1.00  0.00    -0.116 C  
HETATM   30  H2  UNL     1      -5.668  11.701  69.586  1.00  0.00     0.000 HD 
HETATM   31  C   UNL     1      -6.989   9.613  67.297  1.00  0.00    -0.085 C  
HETATM   32  O   UNL     1      -8.266   8.289  65.788  1.00  0.00    -0.108 OA 
HETATM   33  H1  UNL     1      -4.921  10.398  68.848  1.00  0.00     0.000 HD 
HETATM   34  H   UNL     1      -7.656   7.564  65.859  1.00  0.00     0.000 HD 
HETATM   35  H   UNL     1      -5.219   8.862  67.714  1.00  0.00     0.000 HD 
HETATM   36  N   UNL     1      -5.660  11.096  68.766  1.00  0.00    -0.040 NA 
HETATM   37  O   UNL     1      -6.084   8.518  67.526  1.00  0.00    -0.050 OA 
HETATM   38  C   UNL     1      -7.011  10.539  68.523  1.00  0.00    -0.066 C  
BRANCH  28  39
HETATM   39  C   UNL     1     -10.812   9.801  66.574  1.00  0.00     0.123 C  
HETATM   40  H2  UNL     1     -11.691  11.614  67.015  1.00  0.00     0.000 HD 
HETATM   41  N   UNL     1     -11.829  10.628  67.238  1.00  0.00    -0.142 NA 
HETATM   42  H1  UNL     1     -12.787  10.343  67.034  1.00  0.00     0.000 HD 
ENDBRANCH  28  39
ENDBRANCH  25  26
ENDBRANCH  24  25
ENDBRANCH  10  11
ENDBRANCH   1  10
BRANCH   5  43
HETATM   43  C   UNL     1      -9.487  18.322  66.298  1.00  0.00    -0.230 C  
HETATM   44  O   UNL     1      -8.856  19.604  66.383  1.00  0.00    -0.348 OA 
HETATM   45  H   UNL     1      -8.462  19.820  65.546  1.00  0.00     0.000 HD 
ENDBRANCH   5  43
TORSDOF 6
ENDMDL
MODEL      333
REMARK 921   NORMALIZED FREE ENERGY PREDICTED BY IDOCK:   19.05 KCAL/MOL
REMARK 922        TOTAL FREE ENERGY PREDICTED BY IDOCK:   24.09 KCAL/MOL
REMARK 923 INTER-LIGAND FREE ENERGY PREDICTED BY IDOCK:    9.57 KCAL/MOL
REMARK 924 INTRA-LIGAND FREE ENERGY PREDICTED BY IDOCK:   14.52 KCAL/MOL
REMARK 927      BINDING AFFINITY PREDICTED BY RF-SCORE:    0.00 PKD
ROOT
HETATM    1  C   UNL     1     -10.720  15.873  68.073  1.00  0.00    -0.301 C  
HETATM    2  O   UNL     1     -10.915  16.537  71.325  1.00  0.00     0.096 OA 
HETATM    3  O   UNL     1     -11.168  14.718  68.798  1.00  0.00    -0.246 OA 
HETATM    4  H   UNL     1      -9.928  18.449  70.004  1.00  0.00     0.000 HD 
HETATM    5  C   UNL     1     -12.168  15.128  69.749  1.00  0.00    -0.289 C  
HETATM    6  H   UNL     1     -10.671  17.417  71.587  1.00  0.00     0.000 HD 
HETATM    7  C   UNL     1     -11.776  16.537  70.169  1.00  0.00     0.321 C  
HETATM    8  O   UNL     1      -9.766  17.698  69.446  1.00  0.00    -0.055 OA 
HETATM    9  C   UNL     1     -10.985  17.095  68.983  1.00  0.00    -0.006 C  
ENDROOT
BRANCH   1  10
HETATM   10  O   UNL     1     -11.462  16.018  66.859  1.00  0.00     0.084 OA 
BRANCH  10  11
HETATM   11  C   UNL     1     -11.242  15.043  65.802  1.00  0.00    -0.318 C  
HETATM   12  O   UNL     1     -13.601  14.918  65.245  1.00  0.00     0.118 OA 
HETATM   13  H2  UNL     1      -8.518  11.571  64.319  1.00  0.00     0.000 HD 
HETATM   14  H   UNL     1     -14.353  14.351  65.118  1.00  0.00     0.000 HD 
HETATM   15  C   UNL     1     -12.458  14.127  65.596  1.00  0.00    -0.469 C  
HETATM   16  H1  UNL     1      -7.775  12.887  65.084  1.00  0.00     0.000 HD 
HETATM   17  C   UNL     1     -11.032  12.257  64.734  1.00  0.00    -0.346 C  
HETATM   18  N   UNL     1     -13.469  12.269  64.345  1.00  0.00    -0.416 NA 
HETATM   19  N   UNL     1      -8.605  12.298  65.029  1.00  0.00     1.215 NA 
HETATM   20  H1  UNL     1     -13.340  11.592  63.594  1.00  0.00     0.000 HD 
HETATM   21  H2  UNL     1     -14.315  12.825  64.221  1.00  0.00     0.000 HD 
HETATM   22  C   UNL     1      -9.784  13.145  64.818  1.00  0.00     0.147 C  
HETATM   23  C   UNL     1     -12.265  13.108  64.467  1.00  0.00    -0.406 C  
HETATM   24  C   UNL     1      -9.908  14.246  65.925  1.00  0.00    -0.298 C  
BRANCH  24  25
HETATM   25  O   UNL     1      -8.747  15.112  66.038  1.00  0.00    -0.112 OA 
BRANCH  25  26
HETATM   26  C   UNL     1      -8.769  16.081  67.095  1.00  0.00    -0.190 C  
HETATM   27  O   UNL     1      -9.274  15.513  68.305  1.00  0.00    -0.183 OA 
HETATM   28  C   UNL     1      -8.426  14.482  68.833  1.00  0.00    -0.110 C  
HETATM   29  C   UNL     1      -7.079  15.085  69.256  1.00  0.00    -0.170 C  
HETATM   30  H2  UNL     1      -7.349  17.972  65.699  1.00  0.00     0.000 HD 
HETATM   31  C   UNL     1      -6.422  15.729  68.035  1.00  0.00    -0.137 C  
HETATM   32  O   UNL     1      -6.150  14.113  69.758  1.00  0.00    -0.115 OA 
HETATM   33  H1  UNL     1      -5.813  17.723  66.315  1.00  0.00     0.000 HD 
HETATM   34  H   UNL     1      -5.316  14.486  70.020  1.00  0.00     0.000 HD 
HETATM   35  H   UNL     1      -4.810  16.803  67.687  1.00  0.00     0.000 HD 
HETATM   36  N   UNL     1      -6.726  17.301  66.148  1.00  0.00    -0.222 NA 
HETATM   37  O   UNL     1      -5.218  16.402  68.446  1.00  0.00    -0.098 OA 
HETATM   38  C   UNL     1      -7.371  16.726  67.351  1.00  0.00    -0.160 C  
BRANCH  28  39
HETATM   39  C   UNL     1      -9.189  13.798  69.980  1.00  0.00     2.344 C  
HETATM   40  H2  UNL     1      -9.554  15.510  71.071  1.00  0.00     0.000 HD 
HETATM   41  N   UNL     1      -9.195  14.569  71.231  1.00  0.00     3.008 NA 
HETATM   42  H1  UNL     1      -9.702  14.115  71.991  1.00  0.00     0.000 HD 
ENDBRANCH  28  39
ENDBRANCH  25  26
ENDBRANCH  24  25
ENDBRANCH  10  11
ENDBRANCH   1  10
BRANCH   5  43
HETATM   43  C   UNL     1     -13.584  15.072  69.160  1.00  0.00     3.154 C  
HETATM   44  O   UNL     1     -13.563  15.566  67.816  1.00  0.00     3.728 OA 
HETATM   45  H   UNL     1     -14.439  15.532  67.452  1.00  0.00     0.000 HD 
ENDBRANCH   5  43
TORSDOF 6
ENDMDL
MODEL      334
REMARK 921   NORMALIZED FREE ENERGY PREDICTED BY IDOCK:   19.36 KCAL/MOL
REMARK 922        TOTAL FREE ENERGY PREDICTED BY IDOCK:   24.51 KCAL/MOL
REMARK 923 INTER-LIGAND FREE ENERGY PREDICTED BY IDOCK:    0.89 KCAL/MOL
REMARK 924 INTRA-LIGAND FREE ENERGY PREDICTED BY IDOCK:   23.62 KCAL/MOL
REMARK 927      BINDING AFFINITY PREDICTED BY RF-SCORE:    0.00 PKD
ROOT
HETATM    1  C   UNL     1      -5.725   3.907  67.274  1.00  0.00    -0.022 C  
HETATM    2  O   UNL     1      -6.693   4.292  70.431  1.00  0.00    -0.031 OA 
HETATM    3  O   UNL     1      -6.066   2.641  67.855  1.00  0.00    -0.023 OA 
HETATM    4  H   UNL     1      -5.867   6.445  69.403  1.00  0.00     0.000 HD 
HETATM    5  C   UNL     1      -7.298   2.785  68.587  1.00  0.00    -0.048 C  
HETATM    6  H   UNL     1      -6.687   5.182  70.764  1.00  0.00     0.000 HD 
HETATM    7  C   UNL     1      -7.288   4.210  69.121  1.00  0.00    -0.054 C  
HETATM    8  O   UNL     1      -5.449   5.780  68.869  1.00  0.00    -0.009 OA 
HETATM    9  C   UNL     1      -6.406   4.990  68.144  1.00  0.00    -0.036 C  
ENDROOT
BRANCH   1  10
HETATM   10  O   UNL     1      -6.223   3.993  65.937  1.00  0.00    -0.030 OA 
BRANCH  10  11
HETATM   11  C   UNL     1      -6.573   5.306  65.419  1.00  0.00    -0.040 C  
HETATM   12  O   UNL     1      -5.963   4.719  63.144  1.00  0.00    -0.017 OA 
HETATM   13  H2  UNL     1      -6.915   9.838  66.427  1.00  0.00     0.000 HD 
HETATM   14  H   UNL     1      -5.448   4.951  62.380  1.00  0.00     0.000 HD 
HETATM   15  C   UNL     1      -5.741   5.682  64.183  1.00  0.00    -0.020 C  
HETATM   16  H1  UNL     1      -7.355   8.726  67.627  1.00  0.00     0.000 HD 
HETATM   17  C   UNL     1      -5.956   8.132  64.657  1.00  0.00    -0.048 C  
HETATM   18  N   UNL     1      -5.263   7.334  62.427  1.00  0.00    -0.036 NA 
HETATM   19  N   UNL     1      -6.743   8.920  66.834  1.00  0.00    -0.068 NA 
HETATM   20  H1  UNL     1      -5.509   8.244  62.039  1.00  0.00     0.000 HD 
HETATM   21  H2  UNL     1      -5.310   6.592  61.729  1.00  0.00     0.000 HD 
HETATM   22  C   UNL     1      -6.876   7.841  65.850  1.00  0.00    -0.057 C  
HETATM   23  C   UNL     1      -6.111   7.050  63.598  1.00  0.00    -0.043 C  
HETATM   24  C   UNL     1      -6.595   6.438  66.490  1.00  0.00    -0.048 C  
BRANCH  24  25
HETATM   25  O   UNL     1      -7.447   6.119  67.624  1.00  0.00    -0.085 OA 
BRANCH  25  26
HETATM   26  C   UNL     1      -8.422   5.089  67.423  1.00  0.00    -0.105 C  
HETATM   27  O   UNL     1      -9.170   4.846  68.618  1.00  0.00    -0.109 OA 
HETATM   28  C   UNL     1      -9.968   5.970  69.013  1.00  0.00    -0.158 C  
HETATM   29  C   UNL     1     -11.054   6.233  67.960  1.00  0.00    -0.265 C  
HETATM   30  H2  UNL     1      -8.077   4.975  64.701  1.00  0.00     0.000 HD 
HETATM   31  C   UNL     1     -10.379   6.516  66.617  1.00  0.00    -0.147 C  
HETATM   32  O   UNL     1     -11.875   7.372  68.256  1.00  0.00     0.585 OA 
HETATM   33  H1  UNL     1      -9.356   5.923  64.187  1.00  0.00     0.000 HD 
HETATM   34  H   UNL     1     -12.547   7.534  67.604  1.00  0.00     0.000 HD 
HETATM   35  H   UNL     1     -10.969   6.817  64.764  1.00  0.00     0.000 HD 
HETATM   36  N   UNL     1      -8.722   5.720  64.960  1.00  0.00    -0.087 NA 
HETATM   37  O   UNL     1     -11.388   6.641  65.599  1.00  0.00     2.700 OA 
HETATM   38  C   UNL     1      -9.392   5.399  66.241  1.00  0.00    -0.154 C  
BRANCH  28  39
HETATM   39  C   UNL     1     -10.523   5.673  70.417  1.00  0.00    -0.285 C  
HETATM   40  H2  UNL     1      -8.914   4.560  71.071  1.00  0.00     0.000 HD 
HETATM   41  N   UNL     1      -9.930   4.485  71.048  1.00  0.00    -0.199 NA 
HETATM   42  H1  UNL     1     -10.298   4.288  71.979  1.00  0.00     0.000 HD 
ENDBRANCH  28  39
ENDBRANCH  25  26
ENDBRANCH  24  25
ENDBRANCH  10  11
ENDBRANCH   1  10
BRANCH   5  43
HETATM   43  C   UNL     1      -8.527   2.502  67.714  1.00  0.00    -0.087 C  
HETATM   44  O   UNL     1      -8.143   2.496  66.335  1.00  0.00    -0.080 OA 
HETATM   45  H   UNL     1      -8.904   2.321  65.794  1.00  0.00     0.000 HD 
ENDBRANCH   5  43
TORSDOF 6
ENDMDL
MODEL      335
REMARK 921   NORMALIZED FREE ENERGY PREDICTED BY IDOCK:   26.85 KCAL/MOL
REMARK 922        TOTAL FREE ENERGY PREDICTED BY IDOCK:   34.62 KCAL/MOL
REMARK 923 INTER-LIGAND FREE ENERGY PREDICTED BY IDOCK:   18.16 KCAL/MOL
REMARK 924 INTRA-LIGAND FREE ENERGY PREDICTED BY IDOCK:   16.46 KCAL/MOL
REMARK 927      BINDING AFFINITY PREDICTED BY RF-SCORE:    0.00 PKD
ROOT
HETATM    1  C   UNL     1      -7.861   8.796  68.327  1.00  0.00    -0.101 C  
HETATM    2  O   UNL     1      -8.526   6.702  70.822  1.00  0.00    -0.131 OA 
HETATM    3  O   UNL     1      -9.055   8.048  68.054  1.00  0.00    -0.131 OA 
HETATM    4  H   UNL     1      -6.323   7.899  71.124  1.00  0.00     0.000 HD 
HETATM    5  C   UNL     1      -9.867   8.023  69.243  1.00  0.00    -0.178 C  
HETATM    6  H   UNL     1      -7.913   6.709  71.548  1.00  0.00     0.000 HD 
HETATM    7  C   UNL     1      -8.885   8.034  70.406  1.00  0.00    -0.141 C  
HETATM    8  O   UNL     1      -6.465   7.946  70.186  1.00  0.00    -0.036 OA 
HETATM    9  C   UNL     1      -7.631   8.718  69.855  1.00  0.00    -0.065 C  
ENDROOT
BRANCH   1  10
HETATM   10  O   UNL     1      -8.030  10.162  67.943  1.00  0.00    -0.101 OA 
BRANCH  10  11
HETATM   11  C   UNL     1      -6.933  11.084  68.192  1.00  0.00    -0.069 C  
HETATM   12  O   UNL     1      -6.230   9.915  70.199  1.00  0.00    -0.055 OA 
HETATM   13  H2  UNL     1      -5.416  15.450  67.631  1.00  0.00     0.000 HD 
HETATM   14  H   UNL     1      -6.025   9.988  71.125  1.00  0.00     0.000 HD 
HETATM   15  C   UNL     1      -6.603  11.202  69.688  1.00  0.00    -0.139 C  
HETATM   16  H1  UNL     1      -6.300  14.751  66.365  1.00  0.00     0.000 HD 
HETATM   17  C   UNL     1      -5.720  13.530  69.415  1.00  0.00    -0.089 C  
HETATM   18  N   UNL     1      -5.188  12.205  71.428  1.00  0.00    -0.318 NA 
HETATM   19  N   UNL     1      -6.161  14.802  67.375  1.00  0.00    -0.320 NA 
HETATM   20  H1  UNL     1      -4.407  12.833  71.620  1.00  0.00     0.000 HD 
HETATM   21  H2  UNL     1      -5.045  11.280  71.834  1.00  0.00     0.000 HD 
HETATM   22  C   UNL     1      -5.929  13.452  67.897  1.00  0.00    -0.140 C  
HETATM   23  C   UNL     1      -5.429  12.145  69.977  1.00  0.00    -0.111 C  
HETATM   24  C   UNL     1      -7.090  12.475  67.505  1.00  0.00    -0.151 C  
BRANCH  24  25
HETATM   25  O   UNL     1      -7.322  12.368  66.074  1.00  0.00     1.038 OA 
BRANCH  25  26
HETATM   26  C   UNL     1      -8.155  13.374  65.483  1.00  0.00     3.634 C  
HETATM   27  O   UNL     1      -9.471  13.346  66.040  1.00  0.00    -0.207 OA 
HETATM   28  C   UNL     1      -9.493  13.691  67.433  1.00  0.00    -0.225 C  
HETATM   29  C   UNL     1      -9.059  15.152  67.614  1.00  0.00    -0.180 C  
HETATM   30  H2  UNL     1      -6.101  14.614  64.146  1.00  0.00     0.000 HD 
HETATM   31  C   UNL     1      -7.645  15.319  67.056  1.00  0.00    -0.126 C  
HETATM   32  O   UNL     1      -9.011  15.570  68.986  1.00  0.00    -0.201 OA 
HETATM   33  H1  UNL     1      -5.769  15.877  65.192  1.00  0.00     0.000 HD 
HETATM   34  H   UNL     1      -8.742  16.474  69.097  1.00  0.00     0.000 HD 
HETATM   35  H   UNL     1      -6.398  16.812  66.761  1.00  0.00     0.000 HD 
HETATM   36  N   UNL     1      -6.163  14.940  65.109  1.00  0.00    12.202 NA 
HETATM   37  O   UNL     1      -7.277  16.709  67.108  1.00  0.00    -0.148 OA 
HETATM   38  C   UNL     1      -7.552  14.807  65.609  1.00  0.00     5.445 C  
BRANCH  28  39
HETATM   39  C   UNL     1     -10.907  13.392  67.961  1.00  0.00    -0.247 C  
HETATM   40  H2  UNL     1     -11.917  13.964  66.256  1.00  0.00     0.000 HD 
HETATM   41  N   UNL     1     -11.968  14.129  67.261  1.00  0.00    -0.442 NA 
HETATM   42  H1  UNL     1     -12.906  13.930  67.611  1.00  0.00     0.000 HD 
ENDBRANCH  28  39
ENDBRANCH  25  26
ENDBRANCH  24  25
ENDBRANCH  10  11
ENDBRANCH   1  10
BRANCH   5  43
HETATM   43  C   UNL     1     -10.846   9.203  69.301  1.00  0.00    -0.132 C  
HETATM   44  O   UNL     1     -12.116   8.747  69.779  1.00  0.00     0.024 OA 
HETATM   45  H   UNL     1     -12.723   9.476  69.815  1.00  0.00     0.000 HD 
ENDBRANCH   5  43
TORSDOF 6
ENDMDL
MODEL      336
REMARK 921   NORMALIZED FREE ENERGY PREDICTED BY IDOCK:   30.08 KCAL/MOL
REMARK 922        TOTAL FREE ENERGY PREDICTED BY IDOCK:   38.99 KCAL/MOL
REMARK 923 INTER-LIGAND FREE ENERGY PREDICTED BY IDOCK:   19.96 KCAL/MOL
REMARK 924 INTRA-LIGAND FREE ENERGY PREDICTED BY IDOCK:   19.03 KCAL/MOL
REMARK 927      BINDING AFFINITY PREDICTED BY RF-SCORE:    0.00 PKD
ROOT
HETATM    1  C   UNL     1      -8.229   9.260  69.057  1.00  0.00    -0.111 C  
HETATM    2  O   UNL     1      -5.601   7.815  67.623  1.00  0.00    -0.034 OA 
HETATM    3  O   UNL     1      -7.098  10.144  69.069  1.00  0.00    -0.064 OA 
HETATM    4  H   UNL     1      -7.570   6.249  67.838  1.00  0.00     0.000 HD 
HETATM    5  C   UNL     1      -6.471  10.109  67.774  1.00  0.00    -0.062 C  
HETATM    6  H   UNL     1      -5.735   6.932  67.300  1.00  0.00     0.000 HD 
HETATM    7  C   UNL     1      -6.684   8.693  67.257  1.00  0.00    -0.063 C  
HETATM    8  O   UNL     1      -7.738   6.897  68.511  1.00  0.00    -0.108 OA 
HETATM    9  C   UNL     1      -7.954   8.206  67.960  1.00  0.00    -0.127 C  
ENDROOT
BRANCH   1  10
HETATM   10  O   UNL     1      -9.421   9.980  68.733  1.00  0.00    -0.150 OA 
BRANCH  10  11
HETATM   11  C   UNL     1     -10.169  10.592  69.819  1.00  0.00    -0.052 C  
HETATM   12  O   UNL     1      -8.999   9.316  71.521  1.00  0.00    -0.316 OA 
HETATM   13  H2  UNL     1     -14.210  12.558  71.037  1.00  0.00     0.000 HD 
HETATM   14  H   UNL     1      -9.082   8.736  72.269  1.00  0.00     0.000 HD 
HETATM   15  C   UNL     1     -10.303   9.655  71.030  1.00  0.00    -0.222 C  
HETATM   16  H1  UNL     1     -13.600  12.896  69.492  1.00  0.00     0.000 HD 
HETATM   17  C   UNL     1     -12.448  10.729  71.753  1.00  0.00    -0.283 C  
HETATM   18  N   UNL     1     -11.152   9.321  73.312  1.00  0.00     2.779 NA 
HETATM   19  N   UNL     1     -13.676  12.208  70.242  1.00  0.00     2.399 NA 
HETATM   20  H1  UNL     1     -11.657   9.741  74.091  1.00  0.00     0.000 HD 
HETATM   21  H2  UNL     1     -10.236   8.970  73.591  1.00  0.00     0.000 HD 
HETATM   22  C   UNL     1     -12.332  11.763  70.626  1.00  0.00    -0.328 C  
HETATM   23  C   UNL     1     -11.063  10.286  72.203  1.00  0.00     2.554 C  
HETATM   24  C   UNL     1     -11.533  11.216  69.394  1.00  0.00    -0.298 C  
BRANCH  24  25
HETATM   25  O   UNL     1     -11.397  12.165  68.301  1.00  0.00    -0.244 OA 
BRANCH  25  26
HETATM   26  C   UNL     1     -10.417  11.857  67.303  1.00  0.00    -0.222 C  
HETATM   27  O   UNL     1      -9.953  10.511  67.431  1.00  0.00    -0.170 OA 
HETATM   28  C   UNL     1     -10.980   9.542  67.180  1.00  0.00     0.051 C  
HETATM   29  C   UNL     1     -11.427   9.627  65.714  1.00  0.00     3.303 C  
HETATM   30  H2  UNL     1     -10.811  14.172  65.877  1.00  0.00     0.000 HD 
HETATM   31  C   UNL     1     -11.958  11.035  65.441  1.00  0.00     1.625 C  
HETATM   32  O   UNL     1     -12.487   8.717  65.385  1.00  0.00    11.184 OA 
HETATM   33  H1  UNL     1     -11.831  13.621  64.670  1.00  0.00     0.000 HD 
HETATM   34  H   UNL     1     -12.763   8.769  64.478  1.00  0.00     0.000 HD 
HETATM   35  H   UNL     1     -12.594  12.036  63.871  1.00  0.00     0.000 HD 
HETATM   36  N   UNL     1     -11.492  13.459  65.618  1.00  0.00    -0.311 NA 
HETATM   37  O   UNL     1     -12.264  11.161  64.041  1.00  0.00     0.406 OA 
HETATM   38  C   UNL     1     -10.935  12.106  65.852  1.00  0.00    -0.292 C  
BRANCH  28  39
HETATM   39  C   UNL     1     -10.425   8.165  67.583  1.00  0.00    -0.231 C  
HETATM   40  H2  UNL     1     -11.694   7.860  69.179  1.00  0.00     0.000 HD 
HETATM   41  N   UNL     1     -10.696   7.803  68.980  1.00  0.00    -0.377 NA 
HETATM   42  H1  UNL     1     -10.327   6.889  69.247  1.00  0.00     0.000 HD 
ENDBRANCH  28  39
ENDBRANCH  25  26
ENDBRANCH  24  25
ENDBRANCH  10  11
ENDBRANCH   1  10
BRANCH   5  43
HETATM   43  C   UNL     1      -7.046  11.166  66.822  1.00  0.00    -0.139 C  
HETATM   44  O   UNL     1      -8.445  10.926  66.632  1.00  0.00    -0.140 OA 
HETATM   45  H   UNL     1      -8.801  11.580  66.043  1.00  0.00     0.000 HD 
ENDBRANCH   5  43
TORSDOF 6
ENDMDL
MODEL      337
REMARK 921   NORMALIZED FREE ENERGY PREDICTED BY IDOCK:   33.16 KCAL/MOL
REMARK 922        TOTAL FREE ENERGY PREDICTED BY IDOCK:   43.14 KCAL/MOL
REMARK 923 INTER-LIGAND FREE ENERGY PREDICTED BY IDOCK:   40.73 KCAL/MOL
REMARK 924 INTRA-LIGAND FREE ENERGY PREDICTED BY IDOCK:    2.41 KCAL/MOL
REMARK 927      BINDING AFFINITY PREDICTED BY RF-SCORE:    0.00 PKD
ROOT
HETATM    1  C   UNL     1     -10.200  16.326  68.933  1.00  0.00    -0.256 C  
HETATM    2  O   UNL     1      -9.236  13.177  69.392  1.00  0.00     0.156 OA 
HETATM    3  O   UNL     1     -11.335  15.448  68.957  1.00  0.00    -0.275 OA 
HETATM    4  H   UNL     1      -7.285  14.757  69.121  1.00  0.00     0.000 HD 
HETATM    5  C   UNL     1     -11.183  14.524  70.050  1.00  0.00    -0.181 C  
HETATM    6  H   UNL     1      -8.300  13.034  69.475  1.00  0.00     0.000 HD 
HETATM    7  C   UNL     1      -9.684  14.295  70.183  1.00  0.00     1.358 C  
HETATM    8  O   UNL     1      -7.997  15.222  68.698  1.00  0.00    -0.133 OA 
HETATM    9  C   UNL     1      -9.041  15.567  69.622  1.00  0.00    -0.187 C  
ENDROOT
BRANCH   1  10
HETATM   10  O   UNL     1     -10.480  17.523  69.662  1.00  0.00    -0.129 OA 
BRANCH  10  11
HETATM   11  C   UNL     1     -10.875  18.705  68.912  1.00  0.00     0.833 C  
HETATM   12  O   UNL     1     -11.909  19.749  70.844  1.00  0.00     6.401 OA 
HETATM   13  H2  UNL     1     -12.063  20.342  64.719  1.00  0.00     0.000 HD 
HETATM   14  H   UNL     1     -12.693  20.153  71.198  1.00  0.00     0.000 HD 
HETATM   15  C   UNL     1     -12.143  19.358  69.484  1.00  0.00     8.848 C  
HETATM   16  H1  UNL     1     -10.848  19.163  64.792  1.00  0.00     0.000 HD 
HETATM   17  C   UNL     1     -12.782  20.309  67.257  1.00  0.00     4.723 C  
HETATM   18  N   UNL     1     -13.788  21.177  69.337  1.00  0.00     4.374 NA 
HETATM   19  N   UNL     1     -11.710  19.520  65.207  1.00  0.00     1.397 NA 
HETATM   20  H1  UNL     1     -14.069  22.019  68.835  1.00  0.00     0.000 HD 
HETATM   21  H2  UNL     1     -13.680  21.344  70.338  1.00  0.00     0.000 HD 
HETATM   22  C   UNL     1     -11.487  19.772  66.634  1.00  0.00     0.768 C  
HETATM   23  C   UNL     1     -12.565  20.624  68.730  1.00  0.00     6.320 C  
HETATM   24  C   UNL     1     -10.957  18.494  67.370  1.00  0.00    -0.150 C  
BRANCH  24  25
HETATM   25  O   UNL     1      -9.729  17.952  66.813  1.00  0.00    -0.288 OA 
BRANCH  25  26
HETATM   26  C   UNL     1      -8.506  18.362  67.437  1.00  0.00    -0.253 C  
HETATM   27  O   UNL     1      -7.431  17.485  67.093  1.00  0.00    -0.181 OA 
HETATM   28  C   UNL     1      -7.106  17.524  65.696  1.00  0.00     0.181 C  
HETATM   29  C   UNL     1      -6.566  18.912  65.327  1.00  0.00    -0.221 C  
HETATM   30  H2  UNL     1      -9.501  20.761  68.332  1.00  0.00     0.000 HD 
HETATM   31  C   UNL     1      -7.635  19.958  65.645  1.00  0.00    -0.227 C  
HETATM   32  O   UNL     1      -6.254  19.053  63.933  1.00  0.00    -0.330 OA 
HETATM   33  H1  UNL     1      -8.934  21.793  67.144  1.00  0.00     0.000 HD 
HETATM   34  H   UNL     1      -5.920  19.913  63.705  1.00  0.00     0.000 HD 
HETATM   35  H   UNL     1      -7.759  21.921  65.615  1.00  0.00     0.000 HD 
HETATM   36  N   UNL     1      -9.186  20.830  67.365  1.00  0.00    -0.309 NA 
HETATM   37  O   UNL     1      -7.094  21.271  65.417  1.00  0.00     0.334 OA 
HETATM   38  C   UNL     1      -8.121  19.836  67.098  1.00  0.00    -0.292 C  
BRANCH  28  39
HETATM   39  C   UNL     1      -6.118  16.377  65.419  1.00  0.00     4.400 C  
HETATM   40  H2  UNL     1      -7.532  14.886  65.255  1.00  0.00     0.000 HD 
HETATM   41  N   UNL     1      -6.650  15.046  65.741  1.00  0.00     5.034 NA 
HETATM   42  H1  UNL     1      -5.994  14.286  65.557  1.00  0.00     0.000 HD 
ENDBRANCH  28  39
ENDBRANCH  25  26
ENDBRANCH  24  25
ENDBRANCH  10  11
ENDBRANCH   1  10
BRANCH   5  43
HETATM   43  C   UNL     1     -11.805  15.055  71.349  1.00  0.00    -0.358 C  
HETATM   44  O   UNL     1     -11.825  16.486  71.319  1.00  0.00    -0.626 OA 
HETATM   45  H   UNL     1     -12.209  16.815  72.122  1.00  0.00     0.000 HD 
ENDBRANCH   5  43
TORSDOF 6
ENDMDL
MODEL      338
REMARK 921   NORMALIZED FREE ENERGY PREDICTED BY IDOCK:   33.34 KCAL/MOL
REMARK 922        TOTAL FREE ENERGY PREDICTED BY IDOCK:   43.39 KCAL/MOL
REMARK 923 INTER-LIGAND FREE ENERGY PREDICTED BY IDOCK:   39.33 KCAL/MOL
REMARK 924 INTRA-LIGAND FREE ENERGY PREDICTED BY IDOCK:    4.05 KCAL/MOL
REMARK 927      BINDING AFFINITY PREDICTED BY RF-SCORE:    0.00 PKD
ROOT
HETATM    1  C   UNL     1      -8.378  17.782  68.128  1.00  0.00    -0.264 C  
HETATM    2  O   UNL     1      -7.366  20.853  68.901  1.00  0.00     0.482 OA 
HETATM    3  O   UNL     1      -7.840  18.442  66.973  1.00  0.00    -0.219 OA 
HETATM    4  H   UNL     1      -8.524  19.702  70.827  1.00  0.00     0.000 HD 
HETATM    5  C   UNL     1      -6.617  19.103  67.345  1.00  0.00    -0.193 C  
HETATM    6  H   UNL     1      -7.486  21.117  69.805  1.00  0.00     0.000 HD 
HETATM    7  C   UNL     1      -6.810  19.527  68.795  1.00  0.00    -0.322 C  
HETATM    8  O   UNL     1      -8.861  19.240  70.068  1.00  0.00     0.692 OA 
HETATM    9  C   UNL     1      -7.828  18.534  69.362  1.00  0.00     0.241 C  
ENDROOT
BRANCH   1  10
HETATM   10  O   UNL     1      -7.944  16.421  68.172  1.00  0.00    -0.153 OA 
BRANCH  10  11
HETATM   11  C   UNL     1      -8.104  15.611  66.974  1.00  0.00    -0.241 C  
HETATM   12  O   UNL     1      -8.003  17.537  65.499  1.00  0.00    -0.354 OA 
HETATM   13  H2  UNL     1      -9.909  11.689  65.232  1.00  0.00     0.000 HD 
HETATM   14  H   UNL     1      -8.427  18.016  64.796  1.00  0.00     0.000 HD 
HETATM   15  C   UNL     1      -8.790  16.387  65.838  1.00  0.00    -0.135 C  
HETATM   16  H1  UNL     1      -9.251  11.632  66.792  1.00  0.00     0.000 HD 
HETATM   17  C   UNL     1      -9.727  14.291  64.835  1.00  0.00     0.261 C  
HETATM   18  N   UNL     1      -9.617  16.379  63.524  1.00  0.00     7.256 NA 
HETATM   19  N   UNL     1      -9.740  12.198  66.099  1.00  0.00    -0.237 NA 
HETATM   20  H1  UNL     1      -9.720  15.833  62.669  1.00  0.00     0.000 HD 
HETATM   21  H2  UNL     1      -9.137  17.265  63.359  1.00  0.00     0.000 HD 
HETATM   22  C   UNL     1      -8.991  13.440  65.878  1.00  0.00     0.529 C  
HETATM   23  C   UNL     1      -8.945  15.567  64.552  1.00  0.00     5.303 C  
HETATM   24  C   UNL     1      -8.753  14.215  67.219  1.00  0.00    -0.218 C  
BRANCH  24  25
HETATM   25  O   UNL     1      -8.056  13.446  68.237  1.00  0.00    -0.141 OA 
BRANCH  25  26
HETATM   26  C   UNL     1      -8.162  13.921  69.585  1.00  0.00     0.936 C  
HETATM   27  O   UNL     1      -9.526  13.960  70.013  1.00  0.00     1.366 OA 
HETATM   28  C   UNL     1     -10.123  12.657  70.085  1.00  0.00     2.856 C  
HETATM   29  C   UNL     1      -9.430  11.827  71.174  1.00  0.00     9.608 C  
HETATM   30  H2  UNL     1      -5.459  13.845  70.066  1.00  0.00     0.000 HD 
HETATM   31  C   UNL     1      -7.945  11.703  70.829  1.00  0.00     5.314 C  
HETATM   32  O   UNL     1      -9.939  10.489  71.286  1.00  0.00     0.952 OA 
HETATM   33  H1  UNL     1      -5.330  12.383  70.870  1.00  0.00     0.000 HD 
HETATM   34  H   UNL     1      -9.509   9.976  71.960  1.00  0.00     0.000 HD 
HETATM   35  H   UNL     1      -6.342  10.956  71.691  1.00  0.00     0.000 HD 
HETATM   36  N   UNL     1      -5.886  12.931  70.214  1.00  0.00    -0.159 NA 
HETATM   37  O   UNL     1      -7.264  11.032  71.905  1.00  0.00     3.781 OA 
HETATM   38  C   UNL     1      -7.311  13.083  70.588  1.00  0.00     3.208 C  
BRANCH  28  39
HETATM   39  C   UNL     1     -11.631  12.852  70.317  1.00  0.00     0.029 C  
HETATM   40  H2  UNL     1     -11.502  14.763  71.083  1.00  0.00     0.000 HD 
HETATM   41  N   UNL     1     -11.948  13.877  71.321  1.00  0.00    -0.430 NA 
HETATM   42  H1  UNL     1     -12.948  14.007  71.475  1.00  0.00     0.000 HD 
ENDBRANCH  28  39
ENDBRANCH  25  26
ENDBRANCH  24  25
ENDBRANCH  10  11
ENDBRANCH   1  10
BRANCH   5  43
HETATM   43  C   UNL     1      -5.391  18.199  67.165  1.00  0.00    -0.128 C  
HETATM   44  O   UNL     1      -5.791  16.966  66.557  1.00  0.00    -0.289 OA 
HETATM   45  H   UNL     1      -5.033  16.406  66.445  1.00  0.00     0.000 HD 
ENDBRANCH   5  43
TORSDOF 6
ENDMDL
MODEL      339
REMARK 921   NORMALIZED FREE ENERGY PREDICTED BY IDOCK:   73.62 KCAL/MOL
REMARK 922        TOTAL FREE ENERGY PREDICTED BY IDOCK:   97.80 KCAL/MOL
REMARK 923 INTER-LIGAND FREE ENERGY PREDICTED BY IDOCK:   81.50 KCAL/MOL
REMARK 924 INTRA-LIGAND FREE ENERGY PREDICTED BY IDOCK:   16.30 KCAL/MOL
REMARK 927      BINDING AFFINITY PREDICTED BY RF-SCORE:    0.00 PKD
ROOT
HETATM    1  C   UNL     1     -11.157  18.587  68.179  1.00  0.00     0.380 C  
HETATM    2  O   UNL     1     -13.162  21.236  68.060  1.00  0.00     6.200 OA 
HETATM    3  O   UNL     1     -12.047  18.597  69.304  1.00  0.00     5.344 OA 
HETATM    4  H   UNL     1     -11.419  21.260  66.234  1.00  0.00     0.000 HD 
HETATM    5  C   UNL     1     -13.373  18.915  68.841  1.00  0.00    15.288 C  
HETATM    6  H   UNL     1     -13.040  21.820  67.322  1.00  0.00     0.000 HD 
HETATM    7  C   UNL     1     -13.176  19.852  67.658  1.00  0.00     6.111 C  
HETATM    8  O   UNL     1     -11.029  20.699  66.894  1.00  0.00     0.686 OA 
HETATM    9  C   UNL     1     -11.793  19.501  67.104  1.00  0.00     1.734 C  
ENDROOT
BRANCH   1  10
HETATM   10  O   UNL     1     -11.027  17.263  67.656  1.00  0.00    -0.286 OA 
BRANCH  10  11
HETATM   11  C   UNL     1     -10.511  17.106  66.306  1.00  0.00    -0.260 C  
HETATM   12  O   UNL     1     -11.331  19.279  65.598  1.00  0.00     0.056 OA 
HETATM   13  H2  UNL     1      -9.425  14.051  62.965  1.00  0.00     0.000 HD 
HETATM   14  H   UNL     1     -11.847  19.758  64.959  1.00  0.00     0.000 HD 
HETATM   15  C   UNL     1     -11.344  17.882  65.273  1.00  0.00     1.280 C  
HETATM   16  H1  UNL     1      -9.093  13.619  64.570  1.00  0.00     0.000 HD 
HETATM   17  C   UNL     1     -10.732  16.295  63.435  1.00  0.00     5.150 C  
HETATM   18  N   UNL     1     -11.664  18.522  62.922  1.00  0.00    13.437 NA 
HETATM   19  N   UNL     1      -9.712  14.131  63.940  1.00  0.00     2.072 NA 
HETATM   20  H1  UNL     1     -11.304  18.440  61.972  1.00  0.00     0.000 HD 
HETATM   21  H2  UNL     1     -11.769  19.494  63.211  1.00  0.00     0.000 HD 
HETATM   22  C   UNL     1      -9.801  15.526  64.382  1.00  0.00     2.222 C  
HETATM   23  C   UNL     1     -10.804  17.759  63.844  1.00  0.00     6.063 C  
HETATM   24  C   UNL     1     -10.256  15.629  65.878  1.00  0.00    -0.351 C  
BRANCH  24  25
HETATM   25  O   UNL     1      -9.400  14.917  66.812  1.00  0.00    -0.223 OA 
BRANCH  25  26
HETATM   26  C   UNL     1      -9.756  13.559  67.100  1.00  0.00    -0.244 C  
HETATM   27  O   UNL     1     -10.617  13.481  68.239  1.00  0.00    -0.236 OA 
HETATM   28  C   UNL     1     -11.890  14.106  68.018  1.00  0.00    -0.365 C  
HETATM   29  C   UNL     1     -12.662  13.342  66.934  1.00  0.00     0.611 C  
HETATM   30  H2  UNL     1      -8.688  12.547  64.781  1.00  0.00     0.000 HD 
HETATM   31  C   UNL     1     -11.843  13.354  65.643  1.00  0.00    -0.370 C  
HETATM   32  O   UNL     1     -13.935  13.926  66.619  1.00  0.00     3.238 OA 
HETATM   33  H1  UNL     1     -10.062  12.429  63.833  1.00  0.00     0.000 HD 
HETATM   34  H   UNL     1     -14.413  13.453  65.947  1.00  0.00     0.000 HD 
HETATM   35  H   UNL     1     -11.991  12.545  63.856  1.00  0.00     0.000 HD 
HETATM   36  N   UNL     1      -9.631  12.901  64.628  1.00  0.00     0.177 NA 
HETATM   37  O   UNL     1     -12.500  12.538  64.658  1.00  0.00    -0.471 OA 
HETATM   38  C   UNL     1     -10.415  12.837  65.883  1.00  0.00    -0.277 C  
BRANCH  28  39
HETATM   39  C   UNL     1     -12.616  14.167  69.373  1.00  0.00     0.100 C  
HETATM   40  H2  UNL     1     -10.918  14.223  70.544  1.00  0.00     0.000 HD 
HETATM   41  N   UNL     1     -11.798  13.708  70.504  1.00  0.00    -0.514 NA 
HETATM   42  H1  UNL     1     -12.279  13.749  71.403  1.00  0.00     0.000 HD 
ENDBRANCH  28  39
ENDBRANCH  25  26
ENDBRANCH  24  25
ENDBRANCH  10  11
ENDBRANCH   1  10
BRANCH   5  43
HETATM   43  C   UNL     1     -14.172  17.662  68.461  1.00  0.00    11.118 C  
HETATM   44  O   UNL     1     -13.345  16.786  67.686  1.00  0.00     3.826 OA 
HETATM   45  H   UNL     1     -13.839  16.010  67.450  1.00  0.00     0.000 HD 
ENDBRANCH   5  43
TORSDOF 6
ENDMDL
