MODEL        1
REMARK 921   NORMALIZED FREE ENERGY PREDICTED BY IDOCK:   -7.70 KCAL/MOL
REMARK 922        TOTAL FREE ENERGY PREDICTED BY IDOCK:  -10.84 KCAL/MOL
REMARK 923 INTER-LIGAND FREE ENERGY PREDICTED BY IDOCK:   -9.95 KCAL/MOL
REMARK 924 INTRA-LIGAND FREE ENERGY PREDICTED BY IDOCK:   -0.89 KCAL/MOL
REMARK 927      BINDING AFFINITY PREDICTED BY RF-SCORE:    0.00 PKD
ROOT
HETATM    1  C   UNL     1     -10.843   6.118  72.132  1.00  0.00    -0.247 C  
HETATM    2  N   UNL     1     -10.977   7.563  72.057  1.00  0.00    -0.234 N  
HETATM    3  C   UNL     1      -9.792   8.344  72.398  1.00  0.00    -0.308 C  
HETATM    4  C   UNL     1     -12.047   8.054  71.277  1.00  0.00    -0.291 C  
HETATM    5  O   UNL     1     -12.786   7.274  70.677  1.00  0.00    -0.139 OA 
ENDROOT
BRANCH   4   6
HETATM    6  C   UNL     1     -12.274   9.496  71.251  1.00  0.00    -0.348 A  
HETATM    7  C   UNL     1     -13.137  10.204  72.078  1.00  0.00    -0.538 A  
HETATM    8  C   UNL     1     -13.049  11.569  71.783  1.00  0.00    -0.503 A  
HETATM    9  C   UNL     1     -13.593  12.732  72.299  1.00  0.00    -0.465 A  
HETATM   10  N   UNL     1     -13.360  13.905  71.683  1.00  0.00    -0.356 NA 
HETATM   11  C   UNL     1     -12.609  13.918  70.563  1.00  0.00    -0.312 A  
HETATM   12  N   UNL     1     -11.786  10.426  70.318  1.00  0.00    -0.291 NA 
HETATM   13  N   UNL     1     -11.987  12.846  70.032  1.00  0.00    -0.340 NA 
HETATM   14  C   UNL     1     -12.243  11.690  70.676  1.00  0.00    -0.366 A  
BRANCH  11  15
HETATM   15  N   UNL     1     -12.560  15.162  69.943  1.00  0.00    -0.589 NA 
HETATM   16  H   UNL     1     -13.352  15.770  70.155  1.00  0.00     0.000 HD 
BRANCH  15  17
HETATM   17  C   UNL     1     -11.622  15.719  69.087  1.00  0.00    -0.392 A  
HETATM   18  C   UNL     1     -11.446  15.304  67.779  1.00  0.00    -0.312 A  
HETATM   19  C   UNL     1     -10.509  15.934  66.957  1.00  0.00    -0.306 A  
HETATM   20  N   UNL     1     -10.865  16.713  69.593  1.00  0.00    -0.334 NA 
HETATM   21  C   UNL     1      -9.719  16.979  67.426  1.00  0.00    -0.252 A  
HETATM   22  C   UNL     1      -9.961  17.309  68.762  1.00  0.00    -0.325 A  
BRANCH  21  23
HETATM   23  N   UNL     1      -8.810  17.642  66.628  1.00  0.00    -0.254 NA 
HETATM   24  C   UNL     1      -8.936  19.082  66.341  1.00  0.00    -0.324 C  
HETATM   25  C   UNL     1      -7.769  19.866  66.991  1.00  0.00    -0.278 C  
HETATM   26  N   UNL     1      -6.433  19.356  66.627  1.00  0.00    -0.186 NA 
HETATM   27  C   UNL     1      -6.358  17.916  66.946  1.00  0.00    -0.168 C  
HETATM   28  H   UNL     1      -5.682  19.889  67.067  1.00  0.00     0.000 HD 
HETATM   29  C   UNL     1      -7.485  17.093  66.284  1.00  0.00    -0.309 C  
ENDBRANCH  21  23
ENDBRANCH  15  17
ENDBRANCH  11  15
BRANCH  12  30
HETATM   30  C   UNL     1     -10.996  10.137  69.125  1.00  0.00    -0.230 C  
HETATM   31  C   UNL     1     -10.310  10.781  66.905  1.00  0.00    -0.290 C  
HETATM   32  C   UNL     1      -9.494  10.480  69.190  1.00  0.00    -0.205 C  
HETATM   33  C   UNL     1      -9.105  11.010  67.805  1.00  0.00    -0.147 C  
HETATM   34  C   UNL     1     -11.503  10.829  67.850  1.00  0.00    -0.306 C  
ENDBRANCH  12  30
ENDBRANCH   4   6
TORSDOF 5
ENDMDL
MODEL        2
REMARK 921   NORMALIZED FREE ENERGY PREDICTED BY IDOCK:   -7.58 KCAL/MOL
REMARK 922        TOTAL FREE ENERGY PREDICTED BY IDOCK:  -10.68 KCAL/MOL
REMARK 923 INTER-LIGAND FREE ENERGY PREDICTED BY IDOCK:   -9.90 KCAL/MOL
REMARK 924 INTRA-LIGAND FREE ENERGY PREDICTED BY IDOCK:   -0.78 KCAL/MOL
REMARK 927      BINDING AFFINITY PREDICTED BY RF-SCORE:    0.00 PKD
ROOT
HETATM    1  C   UNL     1      -8.145  17.685  67.178  1.00  0.00    -0.215 C  
HETATM    2  N   UNL     1      -8.793  16.836  68.163  1.00  0.00    -0.217 N  
HETATM    3  C   UNL     1      -7.915  16.129  69.090  1.00  0.00    -0.233 C  
HETATM    4  C   UNL     1     -10.158  17.096  68.414  1.00  0.00    -0.314 C  
HETATM    5  O   UNL     1     -10.729  18.023  67.839  1.00  0.00    -0.395 OA 
ENDROOT
BRANCH   4   6
HETATM    6  C   UNL     1     -10.871  16.207  69.328  1.00  0.00    -0.310 A  
HETATM    7  C   UNL     1     -11.224  16.496  70.640  1.00  0.00    -0.086 A  
HETATM    8  C   UNL     1     -11.934  15.416  71.178  1.00  0.00    -0.414 A  
HETATM    9  C   UNL     1     -12.582  15.152  72.372  1.00  0.00    -0.351 A  
HETATM   10  N   UNL     1     -13.089  13.927  72.595  1.00  0.00    -0.454 NA 
HETATM   11  C   UNL     1     -12.942  12.975  71.651  1.00  0.00    -0.321 A  
HETATM   12  N   UNL     1     -11.214  14.861  69.124  1.00  0.00    -0.264 NA 
HETATM   13  N   UNL     1     -12.386  13.164  70.437  1.00  0.00    -0.312 NA 
HETATM   14  C   UNL     1     -11.890  14.403  70.249  1.00  0.00    -0.313 A  
BRANCH  11  15
HETATM   15  N   UNL     1     -13.381  11.720  72.056  1.00  0.00    -0.486 NA 
HETATM   16  H   UNL     1     -14.198  11.735  72.667  1.00  0.00     0.000 HD 
BRANCH  15  17
HETATM   17  C   UNL     1     -12.900  10.449  71.775  1.00  0.00    -0.456 A  
HETATM   18  C   UNL     1     -11.740  10.217  71.058  1.00  0.00    -0.461 A  
HETATM   19  C   UNL     1     -11.290   8.913  70.843  1.00  0.00    -0.336 A  
HETATM   20  N   UNL     1     -13.628   9.416  72.243  1.00  0.00    -0.468 NA 
HETATM   21  C   UNL     1     -11.995   7.813  71.323  1.00  0.00    -0.302 A  
HETATM   22  C   UNL     1     -13.160   8.154  72.017  1.00  0.00    -0.293 A  
BRANCH  21  23
HETATM   23  N   UNL     1     -11.558   6.516  71.155  1.00  0.00    -0.322 NA 
HETATM   24  C   UNL     1     -11.081   6.023  69.851  1.00  0.00    -0.399 C  
HETATM   25  C   UNL     1      -9.566   5.705  69.916  1.00  0.00    -0.161 C  
HETATM   26  N   UNL     1      -9.196   4.787  71.011  1.00  0.00    -0.135 NA 
HETATM   27  C   UNL     1      -9.688   5.336  72.292  1.00  0.00    -0.158 C  
HETATM   28  H   UNL     1      -8.195   4.594  71.032  1.00  0.00     0.000 HD 
HETATM   29  C   UNL     1     -11.203   5.630  72.279  1.00  0.00    -0.259 C  
ENDBRANCH  21  23
ENDBRANCH  15  17
ENDBRANCH  11  15
BRANCH  12  30
HETATM   30  C   UNL     1     -10.870  14.035  67.970  1.00  0.00    -0.246 C  
HETATM   31  C   UNL     1      -9.994  11.958  67.115  1.00  0.00    -0.209 C  
HETATM   32  C   UNL     1     -12.032  13.297  67.276  1.00  0.00    -0.393 C  
HETATM   33  C   UNL     1     -11.492  11.927  66.853  1.00  0.00    -0.390 C  
HETATM   34  C   UNL     1      -9.832  12.941  68.265  1.00  0.00    -0.228 C  
ENDBRANCH  12  30
ENDBRANCH   4   6
TORSDOF 5
ENDMDL
MODEL        3
REMARK 921   NORMALIZED FREE ENERGY PREDICTED BY IDOCK:   -7.51 KCAL/MOL
REMARK 922        TOTAL FREE ENERGY PREDICTED BY IDOCK:  -10.60 KCAL/MOL
REMARK 923 INTER-LIGAND FREE ENERGY PREDICTED BY IDOCK:   -9.74 KCAL/MOL
REMARK 924 INTRA-LIGAND FREE ENERGY PREDICTED BY IDOCK:   -0.86 KCAL/MOL
REMARK 927      BINDING AFFINITY PREDICTED BY RF-SCORE:    0.00 PKD
ROOT
HETATM    1  C   UNL     1      -8.995  18.675  67.965  1.00  0.00    -0.302 C  
HETATM    2  N   UNL     1      -9.261  17.277  68.261  1.00  0.00    -0.257 N  
HETATM    3  C   UNL     1      -8.231  16.564  69.011  1.00  0.00    -0.208 C  
HETATM    4  C   UNL     1     -10.610  16.867  68.189  1.00  0.00    -0.360 C  
HETATM    5  O   UNL     1     -11.493  17.682  67.923  1.00  0.00     0.245 OA 
ENDROOT
BRANCH   4   6
HETATM    6  C   UNL     1     -10.910  15.452  68.387  1.00  0.00    -0.268 A  
HETATM    7  C   UNL     1     -10.778  14.447  67.437  1.00  0.00    -0.280 A  
HETATM    8  C   UNL     1     -11.118  13.217  68.012  1.00  0.00    -0.290 A  
HETATM    9  C   UNL     1     -11.115  11.895  67.600  1.00  0.00    -0.257 A  
HETATM   10  N   UNL     1     -11.621  10.947  68.409  1.00  0.00    -0.427 NA 
HETATM   11  C   UNL     1     -12.133  11.309  69.602  1.00  0.00    -0.322 A  
HETATM   12  N   UNL     1     -11.511  14.849  69.504  1.00  0.00    -0.279 NA 
HETATM   13  N   UNL     1     -12.116  12.558  70.109  1.00  0.00    -0.332 NA 
HETATM   14  C   UNL     1     -11.601  13.481  69.272  1.00  0.00    -0.316 A  
BRANCH  11  15
HETATM   15  N   UNL     1     -12.751  10.263  70.280  1.00  0.00    -0.544 NA 
HETATM   16  H   UNL     1     -13.766  10.235  70.178  1.00  0.00     0.000 HD 
BRANCH  15  17
HETATM   17  C   UNL     1     -12.226   9.252  71.072  1.00  0.00    -0.255 A  
HETATM   18  C   UNL     1     -10.993   9.335  71.693  1.00  0.00    -0.433 A  
HETATM   19  C   UNL     1     -10.540   8.297  72.509  1.00  0.00    -0.407 A  
HETATM   20  N   UNL     1     -12.990   8.151  71.221  1.00  0.00    -0.221 NA 
HETATM   21  C   UNL     1     -11.300   7.148  72.711  1.00  0.00    -0.245 A  
HETATM   22  C   UNL     1     -12.519   7.156  72.026  1.00  0.00    -0.242 A  
BRANCH  21  23
HETATM   23  N   UNL     1     -10.894   6.122  73.537  1.00  0.00    -0.237 NA 
HETATM   24  C   UNL     1     -11.247   4.718  73.259  1.00  0.00    -0.340 C  
HETATM   25  C   UNL     1      -9.977   3.902  72.907  1.00  0.00    -0.146 C  
HETATM   26  N   UNL     1      -8.906   4.002  73.919  1.00  0.00    -0.093 NA 
HETATM   27  C   UNL     1      -8.586   5.426  74.149  1.00  0.00    -0.114 C  
HETATM   28  H   UNL     1      -8.083   3.456  73.665  1.00  0.00     0.000 HD 
HETATM   29  C   UNL     1      -9.821   6.266  74.539  1.00  0.00    -0.323 C  
ENDBRANCH  21  23
ENDBRANCH  15  17
ENDBRANCH  11  15
BRANCH  12  30
HETATM   30  C   UNL     1     -12.031  15.525  70.690  1.00  0.00    -0.378 C  
HETATM   31  C   UNL     1     -13.685  15.625  72.441  1.00  0.00    -0.619 C  
HETATM   32  C   UNL     1     -11.307  15.240  72.021  1.00  0.00    -0.431 C  
HETATM   33  C   UNL     1     -12.390  15.180  73.105  1.00  0.00    -0.541 C  
HETATM   34  C   UNL     1     -13.513  15.239  70.980  1.00  0.00    -0.516 C  
ENDBRANCH  12  30
ENDBRANCH   4   6
TORSDOF 5
ENDMDL
MODEL        4
REMARK 921   NORMALIZED FREE ENERGY PREDICTED BY IDOCK:   -7.43 KCAL/MOL
REMARK 922        TOTAL FREE ENERGY PREDICTED BY IDOCK:  -10.50 KCAL/MOL
REMARK 923 INTER-LIGAND FREE ENERGY PREDICTED BY IDOCK:   -9.62 KCAL/MOL
REMARK 924 INTRA-LIGAND FREE ENERGY PREDICTED BY IDOCK:   -0.88 KCAL/MOL
REMARK 927      BINDING AFFINITY PREDICTED BY RF-SCORE:    0.00 PKD
ROOT
HETATM    1  C   UNL     1      -8.611  18.817  66.233  1.00  0.00    -0.234 C  
HETATM    2  N   UNL     1      -9.040  17.669  67.014  1.00  0.00    -0.244 N  
HETATM    3  C   UNL     1      -7.986  16.790  67.511  1.00  0.00    -0.172 C  
HETATM    4  C   UNL     1     -10.336  17.739  67.571  1.00  0.00    -0.369 C  
HETATM    5  O   UNL     1     -11.024  18.747  67.415  1.00  0.00    -0.422 OA 
ENDROOT
BRANCH   4   6
HETATM    6  C   UNL     1     -10.842  16.569  68.284  1.00  0.00    -0.352 A  
HETATM    7  C   UNL     1     -10.906  16.417  69.663  1.00  0.00    -0.346 A  
HETATM    8  C   UNL     1     -11.490  15.181  69.967  1.00  0.00    -0.315 A  
HETATM    9  C   UNL     1     -11.870  14.522  71.123  1.00  0.00    -0.292 A  
HETATM   10  N   UNL     1     -12.324  13.258  71.048  1.00  0.00    -0.347 NA 
HETATM   11  C   UNL     1     -12.385  12.655  69.844  1.00  0.00    -0.057 A  
HETATM   12  N   UNL     1     -11.227  15.332  67.741  1.00  0.00    -0.320 NA 
HETATM   13  N   UNL     1     -12.099  13.243  68.664  1.00  0.00    -0.297 NA 
HETATM   14  C   UNL     1     -11.649  14.508  68.779  1.00  0.00    -0.312 A  
BRANCH  11  15
HETATM   15  N   UNL     1     -12.733  11.310  69.914  1.00  0.00    -0.060 NA 
HETATM   16  H   UNL     1     -13.427  11.018  69.226  1.00  0.00     0.000 HD 
BRANCH  15  17
HETATM   17  C   UNL     1     -12.300  10.298  70.758  1.00  0.00    -0.350 A  
HETATM   18  C   UNL     1     -13.157   9.531  71.527  1.00  0.00    -0.470 A  
HETATM   19  C   UNL     1     -12.660   8.500  72.326  1.00  0.00    -0.438 A  
HETATM   20  N   UNL     1     -10.971  10.081  70.801  1.00  0.00    -0.324 NA 
HETATM   21  C   UNL     1     -11.298   8.223  72.389  1.00  0.00    -0.388 A  
HETATM   22  C   UNL     1     -10.517   9.065  71.591  1.00  0.00    -0.355 A  
BRANCH  21  23
HETATM   23  N   UNL     1     -10.781   7.191  73.144  1.00  0.00    -0.317 NA 
HETATM   24  C   UNL     1     -11.219   5.797  72.953  1.00  0.00    -0.276 C  
HETATM   25  C   UNL     1     -10.058   4.939  72.392  1.00  0.00    -0.187 C  
HETATM   26  N   UNL     1      -8.820   5.013  73.193  1.00  0.00    -0.112 NA 
HETATM   27  C   UNL     1      -8.422   6.428  73.342  1.00  0.00    -0.121 C  
HETATM   28  H   UNL     1      -8.072   4.439  72.804  1.00  0.00     0.000 HD 
HETATM   29  C   UNL     1      -9.542   7.310  73.935  1.00  0.00    -0.276 C  
ENDBRANCH  21  23
ENDBRANCH  15  17
ENDBRANCH  11  15
BRANCH  12  30
HETATM   30  C   UNL     1     -11.139  14.924  66.342  1.00  0.00    -0.342 C  
HETATM   31  C   UNL     1     -10.539  13.242  64.723  1.00  0.00    -0.402 C  
HETATM   32  C   UNL     1     -12.444  14.438  65.680  1.00  0.00    -0.345 C  
HETATM   33  C   UNL     1     -12.060  13.282  64.750  1.00  0.00    -0.456 C  
HETATM   34  C   UNL     1     -10.122  13.804  66.074  1.00  0.00    -0.320 C  
ENDBRANCH  12  30
ENDBRANCH   4   6
TORSDOF 5
ENDMDL
MODEL        5
REMARK 921   NORMALIZED FREE ENERGY PREDICTED BY IDOCK:   -7.43 KCAL/MOL
REMARK 922        TOTAL FREE ENERGY PREDICTED BY IDOCK:  -10.49 KCAL/MOL
REMARK 923 INTER-LIGAND FREE ENERGY PREDICTED BY IDOCK:  -10.12 KCAL/MOL
REMARK 924 INTRA-LIGAND FREE ENERGY PREDICTED BY IDOCK:   -0.37 KCAL/MOL
REMARK 927      BINDING AFFINITY PREDICTED BY RF-SCORE:    0.00 PKD
ROOT
HETATM    1  C   UNL     1      -8.778  19.562  65.970  1.00  0.00    -0.208 C  
HETATM    2  N   UNL     1      -9.552  18.783  66.922  1.00  0.00    -0.298 N  
HETATM    3  C   UNL     1     -10.674  19.465  67.560  1.00  0.00    -0.453 C  
HETATM    4  C   UNL     1      -9.434  17.379  66.827  1.00  0.00    -0.273 C  
HETATM    5  O   UNL     1      -8.735  16.874  65.949  1.00  0.00    -0.516 OA 
ENDROOT
BRANCH   4   6
HETATM    6  C   UNL     1     -10.121  16.562  67.824  1.00  0.00    -0.264 A  
HETATM    7  C   UNL     1     -10.100  16.760  69.199  1.00  0.00    -0.280 A  
HETATM    8  C   UNL     1     -10.911  15.804  69.818  1.00  0.00    -0.316 A  
HETATM    9  C   UNL     1     -11.326  15.544  71.113  1.00  0.00    -0.390 A  
HETATM   10  N   UNL     1     -12.051  14.440  71.369  1.00  0.00    -0.350 NA 
HETATM   11  C   UNL     1     -12.345  13.600  70.357  1.00  0.00    -0.345 A  
HETATM   12  N   UNL     1     -10.813  15.357  67.619  1.00  0.00    -0.297 NA 
HETATM   13  N   UNL     1     -12.040  13.809  69.060  1.00  0.00    -0.350 NA 
HETATM   14  C   UNL     1     -11.315  14.924  68.841  1.00  0.00    -0.283 A  
BRANCH  11  15
HETATM   15  N   UNL     1     -12.972  12.430  70.771  1.00  0.00     0.013 NA 
HETATM   16  H   UNL     1     -13.989  12.494  70.830  1.00  0.00     0.000 HD 
BRANCH  15  17
HETATM   17  C   UNL     1     -12.455  11.191  71.118  1.00  0.00    -0.393 A  
HETATM   18  C   UNL     1     -13.073  10.332  72.009  1.00  0.00    -0.529 A  
HETATM   19  C   UNL     1     -12.520   9.080  72.286  1.00  0.00    -0.427 A  
HETATM   20  N   UNL     1     -11.290  10.843  70.535  1.00  0.00    -0.232 NA 
HETATM   21  C   UNL     1     -11.330   8.666  71.694  1.00  0.00    -0.307 A  
HETATM   22  C   UNL     1     -10.777   9.612  70.826  1.00  0.00    -0.331 A  
BRANCH  21  23
HETATM   23  N   UNL     1     -10.777   7.424  71.922  1.00  0.00    -0.213 NA 
HETATM   24  C   UNL     1      -9.717   7.221  72.927  1.00  0.00    -0.169 C  
HETATM   25  C   UNL     1     -10.241   6.347  74.094  1.00  0.00    -0.343 C  
HETATM   26  N   UNL     1     -10.830   5.065  73.660  1.00  0.00    -0.289 NA 
HETATM   27  C   UNL     1     -11.891   5.328  72.665  1.00  0.00    -0.029 C  
HETATM   28  H   UNL     1     -11.167   4.508  74.446  1.00  0.00     0.000 HD 
HETATM   29  C   UNL     1     -11.397   6.166  71.466  1.00  0.00    -0.280 C  
ENDBRANCH  21  23
ENDBRANCH  15  17
ENDBRANCH  11  15
BRANCH  12  30
HETATM   30  C   UNL     1     -10.936  14.621  66.364  1.00  0.00    -0.325 C  
HETATM   31  C   UNL     1     -10.625  12.564  65.146  1.00  0.00    -0.322 C  
HETATM   32  C   UNL     1     -12.336  14.076  66.017  1.00  0.00    -0.504 C  
HETATM   33  C   UNL     1     -12.124  12.708  65.359  1.00  0.00    -0.516 C  
HETATM   34  C   UNL     1     -10.003  13.406  66.251  1.00  0.00    -0.298 C  
ENDBRANCH  12  30
ENDBRANCH   4   6
TORSDOF 5
ENDMDL
MODEL        6
REMARK 921   NORMALIZED FREE ENERGY PREDICTED BY IDOCK:   -7.40 KCAL/MOL
REMARK 922        TOTAL FREE ENERGY PREDICTED BY IDOCK:  -10.46 KCAL/MOL
REMARK 923 INTER-LIGAND FREE ENERGY PREDICTED BY IDOCK:   -9.63 KCAL/MOL
REMARK 924 INTRA-LIGAND FREE ENERGY PREDICTED BY IDOCK:   -0.83 KCAL/MOL
REMARK 927      BINDING AFFINITY PREDICTED BY RF-SCORE:    0.00 PKD
ROOT
HETATM    1  C   UNL     1      -9.103   3.404  73.003  1.00  0.00    -0.094 C  
HETATM    2  N   UNL     1      -9.684   4.735  72.970  1.00  0.00    -0.138 N  
HETATM    3  C   UNL     1      -9.217   5.673  73.987  1.00  0.00    -0.126 C  
HETATM    4  C   UNL     1     -10.290   5.126  71.756  1.00  0.00    -0.209 C  
HETATM    5  O   UNL     1     -10.276   4.369  70.785  1.00  0.00    -0.172 OA 
ENDROOT
BRANCH   4   6
HETATM    6  C   UNL     1     -10.968   6.418  71.711  1.00  0.00    -0.255 A  
HETATM    7  C   UNL     1     -12.299   6.655  72.029  1.00  0.00    -0.316 A  
HETATM    8  C   UNL     1     -12.570   8.022  71.907  1.00  0.00    -0.359 A  
HETATM    9  C   UNL     1     -13.658   8.843  72.149  1.00  0.00    -0.453 A  
HETATM   10  N   UNL     1     -13.596  10.144  71.812  1.00  0.00    -0.268 NA 
HETATM   11  C   UNL     1     -12.475  10.617  71.231  1.00  0.00    -0.410 A  
HETATM   12  N   UNL     1     -10.469   7.633  71.215  1.00  0.00    -0.206 NA 
HETATM   13  N   UNL     1     -11.349   9.906  71.021  1.00  0.00    -0.369 NA 
HETATM   14  C   UNL     1     -11.447   8.609  71.371  1.00  0.00    -0.289 A  
BRANCH  11  15
HETATM   15  N   UNL     1     -12.587  11.935  70.802  1.00  0.00    -0.280 NA 
HETATM   16  H   UNL     1     -12.974  12.574  71.497  1.00  0.00     0.000 HD 
BRANCH  15  17
HETATM   17  C   UNL     1     -12.264  12.533  69.592  1.00  0.00    -0.103 A  
HETATM   18  C   UNL     1     -12.128  13.900  69.433  1.00  0.00    -0.384 A  
HETATM   19  C   UNL     1     -11.762  14.436  68.196  1.00  0.00    -0.377 A  
HETATM   20  N   UNL     1     -12.080  11.705  68.545  1.00  0.00    -0.499 NA 
HETATM   21  C   UNL     1     -11.540  13.621  67.090  1.00  0.00    -0.361 A  
HETATM   22  C   UNL     1     -11.721  12.260  67.351  1.00  0.00    -0.335 A  
BRANCH  21  23
HETATM   23  N   UNL     1     -11.147  14.118  65.865  1.00  0.00    -0.302 NA 
HETATM   24  C   UNL     1     -12.004  14.006  64.672  1.00  0.00    -0.430 C  
HETATM   25  C   UNL     1     -12.483  15.409  64.219  1.00  0.00     0.066 C  
HETATM   26  N   UNL     1     -11.386  16.374  64.010  1.00  0.00    -1.539 NA 
HETATM   27  C   UNL     1     -10.568  16.454  65.238  1.00  0.00    -0.299 C  
HETATM   28  H   UNL     1     -11.727  17.288  63.712  1.00  0.00     0.000 HD 
HETATM   29  C   UNL     1     -10.040  15.079  65.700  1.00  0.00    -0.362 C  
ENDBRANCH  21  23
ENDBRANCH  15  17
ENDBRANCH  11  15
BRANCH  12  30
HETATM   30  C   UNL     1      -9.176   7.851  70.570  1.00  0.00    -0.158 C  
HETATM   31  C   UNL     1      -7.880   9.007  68.899  1.00  0.00    -0.095 C  
HETATM   32  C   UNL     1      -8.179   8.763  71.313  1.00  0.00    -0.212 C  
HETATM   33  C   UNL     1      -7.453   9.584  70.240  1.00  0.00    -0.148 C  
HETATM   34  C   UNL     1      -9.269   8.441  69.154  1.00  0.00    -0.150 C  
ENDBRANCH  12  30
ENDBRANCH   4   6
TORSDOF 5
ENDMDL
MODEL        7
REMARK 921   NORMALIZED FREE ENERGY PREDICTED BY IDOCK:   -7.40 KCAL/MOL
REMARK 922        TOTAL FREE ENERGY PREDICTED BY IDOCK:  -10.45 KCAL/MOL
REMARK 923 INTER-LIGAND FREE ENERGY PREDICTED BY IDOCK:   -9.51 KCAL/MOL
REMARK 924 INTRA-LIGAND FREE ENERGY PREDICTED BY IDOCK:   -0.94 KCAL/MOL
REMARK 927      BINDING AFFINITY PREDICTED BY RF-SCORE:    0.00 PKD
ROOT
HETATM    1  C   UNL     1      -9.525   5.358  71.183  1.00  0.00    -0.156 C  
HETATM    2  N   UNL     1      -9.891   6.758  71.318  1.00  0.00    -0.177 N  
HETATM    3  C   UNL     1      -8.897   7.633  71.934  1.00  0.00    -0.116 C  
HETATM    4  C   UNL     1     -10.937   7.216  70.488  1.00  0.00    -0.262 C  
HETATM    5  O   UNL     1     -11.465   6.453  69.679  1.00  0.00    -0.416 OA 
ENDROOT
BRANCH   4   6
HETATM    6  C   UNL     1     -11.399   8.591  70.658  1.00  0.00    -0.241 A  
HETATM    7  C   UNL     1     -12.360   9.025  71.562  1.00  0.00    -0.397 A  
HETATM    8  C   UNL     1     -12.500  10.413  71.460  1.00  0.00    -0.508 A  
HETATM    9  C   UNL     1     -13.225  11.388  72.123  1.00  0.00    -0.188 A  
HETATM   10  N   UNL     1     -13.194  12.657  71.679  1.00  0.00    -0.370 NA 
HETATM   11  C   UNL     1     -12.464  12.949  70.583  1.00  0.00    -0.252 A  
HETATM   12  N   UNL     1     -11.079   9.708  69.870  1.00  0.00    -0.241 NA 
HETATM   13  N   UNL     1     -11.678  12.078  69.918  1.00  0.00    -0.316 NA 
HETATM   14  C   UNL     1     -11.735  10.818  70.392  1.00  0.00    -0.351 A  
BRANCH  11  15
HETATM   15  N   UNL     1     -12.626  14.258  70.142  1.00  0.00    -0.437 NA 
HETATM   16  H   UNL     1     -13.396  14.760  70.585  1.00  0.00     0.000 HD 
BRANCH  15  17
HETATM   17  C   UNL     1     -11.922  14.999  69.203  1.00  0.00    -0.275 A  
HETATM   18  C   UNL     1     -11.823  14.641  67.871  1.00  0.00    -0.352 A  
HETATM   19  C   UNL     1     -11.131  15.452  66.970  1.00  0.00    -0.273 A  
HETATM   20  N   UNL     1     -11.322  16.119  69.653  1.00  0.00    -0.329 NA 
HETATM   21  C   UNL     1     -10.511  16.629  67.381  1.00  0.00    -0.314 A  
HETATM   22  C   UNL     1     -10.655  16.891  68.746  1.00  0.00    -0.355 A  
BRANCH  21  23
HETATM   23  N   UNL     1      -9.850  17.467  66.508  1.00  0.00    -0.291 NA 
HETATM   24  C   UNL     1     -10.564  18.495  65.730  1.00  0.00    -0.231 C  
HETATM   25  C   UNL     1     -10.142  19.912  66.194  1.00  0.00    -0.504 C  
HETATM   26  N   UNL     1      -8.683  20.134  66.176  1.00  0.00    -0.560 NA 
HETATM   27  C   UNL     1      -8.020  19.085  66.977  1.00  0.00    -0.256 C  
HETATM   28  H   UNL     1      -8.431  21.074  66.484  1.00  0.00     0.000 HD 
HETATM   29  C   UNL     1      -8.387  17.656  66.521  1.00  0.00    -0.268 C  
ENDBRANCH  21  23
ENDBRANCH  15  17
ENDBRANCH  11  15
BRANCH  12  30
HETATM   30  C   UNL     1     -10.262   9.721  68.660  1.00  0.00    -0.190 C  
HETATM   31  C   UNL     1      -9.926  10.527  66.413  1.00  0.00    -0.271 C  
HETATM   32  C   UNL     1      -9.013  10.625  68.678  1.00  0.00    -0.170 C  
HETATM   33  C   UNL     1      -8.889  11.231  67.275  1.00  0.00    -0.150 C  
HETATM   34  C   UNL     1     -11.023  10.129  67.389  1.00  0.00    -0.295 C  
ENDBRANCH  12  30
ENDBRANCH   4   6
TORSDOF 5
ENDMDL
MODEL        8
REMARK 921   NORMALIZED FREE ENERGY PREDICTED BY IDOCK:   -7.34 KCAL/MOL
REMARK 922        TOTAL FREE ENERGY PREDICTED BY IDOCK:  -10.37 KCAL/MOL
REMARK 923 INTER-LIGAND FREE ENERGY PREDICTED BY IDOCK:   -9.47 KCAL/MOL
REMARK 924 INTRA-LIGAND FREE ENERGY PREDICTED BY IDOCK:   -0.90 KCAL/MOL
REMARK 927      BINDING AFFINITY PREDICTED BY RF-SCORE:    0.00 PKD
ROOT
HETATM    1  C   UNL     1      -5.469  20.742  68.230  1.00  0.00    -0.298 C  
HETATM    2  N   UNL     1      -6.000  19.404  68.427  1.00  0.00    -0.222 N  
HETATM    3  C   UNL     1      -6.180  18.973  69.810  1.00  0.00    -0.239 C  
HETATM    4  C   UNL     1      -6.675  18.829  67.328  1.00  0.00    -0.202 C  
HETATM    5  O   UNL     1      -6.822  19.469  66.287  1.00  0.00    -0.203 OA 
ENDROOT
BRANCH   4   6
HETATM    6  C   UNL     1      -7.142  17.451  67.452  1.00  0.00    -0.164 A  
HETATM    7  C   UNL     1      -6.358  16.309  67.339  1.00  0.00    -0.206 A  
HETATM    8  C   UNL     1      -7.151  15.178  67.563  1.00  0.00    -0.225 A  
HETATM    9  C   UNL     1      -6.931  13.814  67.649  1.00  0.00    -0.174 A  
HETATM   10  N   UNL     1      -7.978  12.980  67.778  1.00  0.00    -0.149 NA 
HETATM   11  C   UNL     1      -9.224  13.492  67.807  1.00  0.00    -0.213 A  
HETATM   12  N   UNL     1      -8.466  16.999  67.568  1.00  0.00    -0.198 NA 
HETATM   13  N   UNL     1      -9.525  14.807  67.796  1.00  0.00    -0.202 NA 
HETATM   14  C   UNL     1      -8.452  15.612  67.666  1.00  0.00    -0.157 A  
BRANCH  11  15
HETATM   15  N   UNL     1     -10.222  12.524  67.799  1.00  0.00    -0.212 NA 
HETATM   16  H   UNL     1     -10.633  12.348  66.882  1.00  0.00     0.000 HD 
BRANCH  15  17
HETATM   17  C   UNL     1     -10.757  11.755  68.823  1.00  0.00    -0.221 A  
HETATM   18  C   UNL     1     -11.838  12.155  69.588  1.00  0.00    -0.391 A  
HETATM   19  C   UNL     1     -12.353  11.316  70.578  1.00  0.00    -0.446 A  
HETATM   20  N   UNL     1     -10.166  10.566  69.050  1.00  0.00    -0.205 NA 
HETATM   21  C   UNL     1     -11.791  10.070  70.838  1.00  0.00    -0.368 A  
HETATM   22  C   UNL     1     -10.695   9.769  70.024  1.00  0.00    -0.283 A  
BRANCH  21  23
HETATM   23  N   UNL     1     -12.298   9.206  71.786  1.00  0.00    -0.347 NA 
HETATM   24  C   UNL     1     -13.723   9.217  72.160  1.00  0.00    -0.471 C  
HETATM   25  C   UNL     1     -14.407   7.899  71.716  1.00  0.00    -0.475 C  
HETATM   26  N   UNL     1     -13.727   6.682  72.203  1.00  0.00    -0.465 NA 
HETATM   27  C   UNL     1     -12.308   6.719  71.791  1.00  0.00    -0.356 C  
HETATM   28  H   UNL     1     -14.196   5.829  71.898  1.00  0.00     0.000 HD 
HETATM   29  C   UNL     1     -11.582   8.003  72.248  1.00  0.00    -0.366 C  
ENDBRANCH  21  23
ENDBRANCH  15  17
ENDBRANCH  11  15
BRANCH  12  30
HETATM   30  C   UNL     1      -9.677  17.814  67.521  1.00  0.00    -0.284 C  
HETATM   31  C   UNL     1     -10.747  19.934  67.939  1.00  0.00    -0.321 C  
HETATM   32  C   UNL     1     -10.052  18.417  66.152  1.00  0.00    -0.376 C  
HETATM   33  C   UNL     1     -10.612  19.817  66.428  1.00  0.00    -0.575 C  
HETATM   34  C   UNL     1      -9.670  19.009  68.488  1.00  0.00    -0.458 C  
ENDBRANCH  12  30
ENDBRANCH   4   6
TORSDOF 5
ENDMDL
MODEL        9
REMARK 921   NORMALIZED FREE ENERGY PREDICTED BY IDOCK:   -7.32 KCAL/MOL
REMARK 922        TOTAL FREE ENERGY PREDICTED BY IDOCK:  -10.35 KCAL/MOL
REMARK 923 INTER-LIGAND FREE ENERGY PREDICTED BY IDOCK:   -9.53 KCAL/MOL
REMARK 924 INTRA-LIGAND FREE ENERGY PREDICTED BY IDOCK:   -0.82 KCAL/MOL
REMARK 927      BINDING AFFINITY PREDICTED BY RF-SCORE:    0.00 PKD
ROOT
HETATM    1  C   UNL     1      -8.200  19.957  66.936  1.00  0.00    -0.318 C  
HETATM    2  N   UNL     1      -9.083  18.803  66.913  1.00  0.00    -0.291 N  
HETATM    3  C   UNL     1     -10.473  19.041  67.289  1.00  0.00    -0.451 C  
HETATM    4  C   UNL     1      -8.652  17.698  66.146  1.00  0.00    -0.119 C  
HETATM    5  O   UNL     1      -7.598  17.756  65.513  1.00  0.00    -0.489 OA 
ENDROOT
BRANCH   4   6
HETATM    6  C   UNL     1      -9.464  16.485  66.172  1.00  0.00    -0.315 A  
HETATM    7  C   UNL     1     -10.649  16.279  65.477  1.00  0.00    -0.369 A  
HETATM    8  C   UNL     1     -11.110  14.980  65.719  1.00  0.00    -0.346 A  
HETATM    9  C   UNL     1     -12.162  14.201  65.268  1.00  0.00    -0.434 A  
HETATM   10  N   UNL     1     -12.368  12.987  65.809  1.00  0.00    -0.493 NA 
HETATM   11  C   UNL     1     -11.550  12.560  66.792  1.00  0.00    -0.382 A  
HETATM   12  N   UNL     1      -9.297  15.356  66.990  1.00  0.00    -0.215 NA 
HETATM   13  N   UNL     1     -10.466  13.223  67.244  1.00  0.00    -0.246 NA 
HETATM   14  C   UNL     1     -10.291  14.434  66.679  1.00  0.00    -0.275 A  
BRANCH  11  15
HETATM   15  N   UNL     1     -11.951  11.358  67.364  1.00  0.00    -0.537 NA 
HETATM   16  H   UNL     1     -12.624  10.830  66.809  1.00  0.00     0.000 HD 
BRANCH  15  17
HETATM   17  C   UNL     1     -11.594  10.751  68.560  1.00  0.00    -0.255 A  
HETATM   18  C   UNL     1     -12.093  11.142  69.789  1.00  0.00    -0.414 A  
HETATM   19  C   UNL     1     -11.723  10.463  70.952  1.00  0.00    -0.455 A  
HETATM   20  N   UNL     1     -10.715   9.733  68.475  1.00  0.00    -0.223 NA 
HETATM   21  C   UNL     1     -10.835   9.392  70.915  1.00  0.00    -0.322 A  
HETATM   22  C   UNL     1     -10.375   9.090  69.630  1.00  0.00    -0.212 A  
BRANCH  21  23
HETATM   23  N   UNL     1     -10.476   8.682  72.042  1.00  0.00    -0.335 NA 
HETATM   24  C   UNL     1     -11.450   7.861  72.782  1.00  0.00    -0.368 C  
HETATM   25  C   UNL     1     -11.089   6.358  72.663  1.00  0.00    -0.261 C  
HETATM   26  N   UNL     1      -9.702   6.046  73.061  1.00  0.00    -0.157 NA 
HETATM   27  C   UNL     1      -8.771   6.888  72.282  1.00  0.00    -0.126 C  
HETATM   28  H   UNL     1      -9.490   5.052  72.975  1.00  0.00     0.000 HD 
HETATM   29  C   UNL     1      -9.076   8.396  72.405  1.00  0.00    -0.256 C  
ENDBRANCH  21  23
ENDBRANCH  15  17
ENDBRANCH  11  15
BRANCH  12  30
HETATM   30  C   UNL     1      -8.305  15.180  68.048  1.00  0.00    -0.147 C  
HETATM   31  C   UNL     1      -6.001  15.294  68.747  1.00  0.00    -0.088 C  
HETATM   32  C   UNL     1      -8.196  16.314  69.088  1.00  0.00    -0.215 C  
HETATM   33  C   UNL     1      -6.708  16.458  69.425  1.00  0.00    -0.215 C  
HETATM   34  C   UNL     1      -6.870  14.974  67.539  1.00  0.00    -0.197 C  
ENDBRANCH  12  30
ENDBRANCH   4   6
TORSDOF 5
ENDMDL
MODEL       10
REMARK 921   NORMALIZED FREE ENERGY PREDICTED BY IDOCK:   -7.24 KCAL/MOL
REMARK 922        TOTAL FREE ENERGY PREDICTED BY IDOCK:  -10.25 KCAL/MOL
REMARK 923 INTER-LIGAND FREE ENERGY PREDICTED BY IDOCK:   -9.33 KCAL/MOL
REMARK 924 INTRA-LIGAND FREE ENERGY PREDICTED BY IDOCK:   -0.92 KCAL/MOL
REMARK 927      BINDING AFFINITY PREDICTED BY RF-SCORE:    0.00 PKD
ROOT
HETATM    1  C   UNL     1      -9.339   5.164  70.706  1.00  0.00    -0.160 C  
HETATM    2  N   UNL     1     -10.061   6.385  70.390  1.00  0.00    -0.183 N  
HETATM    3  C   UNL     1     -11.404   6.222  69.842  1.00  0.00    -0.434 C  
HETATM    4  C   UNL     1      -9.603   7.564  71.017  1.00  0.00    -0.160 C  
HETATM    5  O   UNL     1      -8.664   7.520  71.811  1.00  0.00    -0.114 OA 
ENDROOT
BRANCH   4   6
HETATM    6  C   UNL     1     -10.241   8.827  70.655  1.00  0.00    -0.202 A  
HETATM    7  C   UNL     1     -11.214   9.492  71.390  1.00  0.00    -0.452 A  
HETATM    8  C   UNL     1     -11.548  10.688  70.745  1.00  0.00    -0.388 A  
HETATM    9  C   UNL     1     -12.371  11.766  71.020  1.00  0.00    -0.282 A  
HETATM   10  N   UNL     1     -12.532  12.731  70.096  1.00  0.00    -0.127 NA 
HETATM   11  C   UNL     1     -11.896  12.617  68.913  1.00  0.00    -0.302 A  
HETATM   12  N   UNL     1     -10.111   9.543  69.454  1.00  0.00    -0.187 NA 
HETATM   13  N   UNL     1     -11.026  11.638  68.589  1.00  0.00    -0.205 NA 
HETATM   14  C   UNL     1     -10.890  10.691  69.538  1.00  0.00    -0.259 A  
BRANCH  11  15
HETATM   15  N   UNL     1     -12.254  13.598  67.994  1.00  0.00    -0.386 NA 
HETATM   16  H   UNL     1     -13.190  13.488  67.603  1.00  0.00     0.000 HD 
BRANCH  15  17
HETATM   17  C   UNL     1     -11.559  14.700  67.517  1.00  0.00    -0.375 A  
HETATM   18  C   UNL     1     -11.142  14.825  66.205  1.00  0.00    -0.339 A  
HETATM   19  C   UNL     1     -10.481  15.979  65.779  1.00  0.00    -0.391 A  
HETATM   20  N   UNL     1     -11.299  15.675  68.410  1.00  0.00    -0.349 NA 
HETATM   21  C   UNL     1     -10.206  17.024  66.657  1.00  0.00    -0.310 A  
HETATM   22  C   UNL     1     -10.652  16.791  67.962  1.00  0.00    -0.347 A  
BRANCH  21  23
HETATM   23  N   UNL     1      -9.584  18.188  66.260  1.00  0.00    -0.440 NA 
HETATM   24  C   UNL     1     -10.326  19.455  66.125  1.00  0.00    -0.504 C  
HETATM   25  C   UNL     1      -9.847  20.475  67.188  1.00  0.00    -0.426 C  
HETATM   26  N   UNL     1      -8.388  20.698  67.187  1.00  0.00    -0.523 NA 
HETATM   27  C   UNL     1      -7.698  19.400  67.336  1.00  0.00    -0.252 C  
HETATM   28  H   UNL     1      -8.099  21.373  67.894  1.00  0.00     0.000 HD 
HETATM   29  C   UNL     1      -8.120  18.367  66.269  1.00  0.00    -0.221 C  
ENDBRANCH  21  23
ENDBRANCH  15  17
ENDBRANCH  11  15
BRANCH  12  30
HETATM   30  C   UNL     1      -9.354   9.139  68.272  1.00  0.00    -0.135 C  
HETATM   31  C   UNL     1      -9.282   8.828  65.882  1.00  0.00    -0.282 C  
HETATM   32  C   UNL     1      -8.356  10.168  67.705  1.00  0.00    -0.114 C  
HETATM   33  C   UNL     1      -8.418  10.045  66.178  1.00  0.00    -0.131 C  
HETATM   34  C   UNL     1     -10.226   8.736  67.072  1.00  0.00    -0.351 C  
ENDBRANCH  12  30
ENDBRANCH   4   6
TORSDOF 5
ENDMDL
MODEL       11
REMARK 921   NORMALIZED FREE ENERGY PREDICTED BY IDOCK:   -7.24 KCAL/MOL
REMARK 922        TOTAL FREE ENERGY PREDICTED BY IDOCK:  -10.25 KCAL/MOL
REMARK 923 INTER-LIGAND FREE ENERGY PREDICTED BY IDOCK:   -9.64 KCAL/MOL
REMARK 924 INTRA-LIGAND FREE ENERGY PREDICTED BY IDOCK:   -0.61 KCAL/MOL
REMARK 927      BINDING AFFINITY PREDICTED BY RF-SCORE:    0.00 PKD
ROOT
HETATM    1  C   UNL     1     -10.334   5.412  74.169  1.00  0.00    -0.280 C  
HETATM    2  N   UNL     1     -10.471   6.714  73.540  1.00  0.00    -0.286 N  
HETATM    3  C   UNL     1      -9.395   7.670  73.786  1.00  0.00    -0.267 C  
HETATM    4  C   UNL     1     -11.360   6.793  72.446  1.00  0.00    -0.268 C  
HETATM    5  O   UNL     1     -11.945   5.785  72.049  1.00  0.00    -0.173 OA 
ENDROOT
BRANCH   4   6
HETATM    6  C   UNL     1     -11.597   8.103  71.845  1.00  0.00    -0.306 A  
HETATM    7  C   UNL     1     -12.506   9.055  72.290  1.00  0.00    -0.427 A  
HETATM    8  C   UNL     1     -12.414  10.196  71.486  1.00  0.00    -0.526 A  
HETATM    9  C   UNL     1     -12.993  11.453  71.480  1.00  0.00    -0.399 A  
HETATM   10  N   UNL     1     -12.739  12.296  70.462  1.00  0.00    -0.058 NA 
HETATM   11  C   UNL     1     -11.934  11.889  69.460  1.00  0.00    -0.292 A  
HETATM   12  N   UNL     1     -11.072   8.604  70.643  1.00  0.00    -0.246 NA 
HETATM   13  N   UNL     1     -11.278  10.711  69.420  1.00  0.00    -0.250 NA 
HETATM   14  C   UNL     1     -11.556   9.894  70.455  1.00  0.00    -0.309 A  
BRANCH  11  15
HETATM   15  N   UNL     1     -11.865  12.790  68.404  1.00  0.00    -0.327 NA 
HETATM   16  H   UNL     1     -12.195  12.421  67.511  1.00  0.00     0.000 HD 
BRANCH  15  17
HETATM   17  C   UNL     1     -11.425  14.105  68.352  1.00  0.00    -0.302 A  
HETATM   18  C   UNL     1     -11.241  14.889  69.476  1.00  0.00    -0.300 A  
HETATM   19  C   UNL     1     -10.758  16.194  69.357  1.00  0.00    -0.307 A  
HETATM   20  N   UNL     1     -11.173  14.604  67.125  1.00  0.00    -0.333 NA 
HETATM   21  C   UNL     1     -10.464  16.749  68.115  1.00  0.00    -0.332 A  
HETATM   22  C   UNL     1     -10.700  15.882  67.044  1.00  0.00    -0.292 A  
BRANCH  21  23
HETATM   23  N   UNL     1      -9.954  18.022  67.969  1.00  0.00    -0.324 NA 
HETATM   24  C   UNL     1      -8.506  18.267  67.849  1.00  0.00    -0.254 C  
HETATM   25  C   UNL     1      -8.166  18.804  66.436  1.00  0.00    -0.284 C  
HETATM   26  N   UNL     1      -8.952  19.990  66.043  1.00  0.00    -0.526 NA 
HETATM   27  C   UNL     1     -10.391  19.684  66.172  1.00  0.00    -0.530 C  
HETATM   28  H   UNL     1      -8.709  20.324  65.111  1.00  0.00     0.000 HD 
HETATM   29  C   UNL     1     -10.777  19.182  67.580  1.00  0.00    -0.458 C  
ENDBRANCH  21  23
ENDBRANCH  15  17
ENDBRANCH  11  15
BRANCH  12  30
HETATM   30  C   UNL     1     -10.222   7.891  69.694  1.00  0.00    -0.207 C  
HETATM   31  C   UNL     1      -8.446   6.307  69.309  1.00  0.00    -0.124 C  
HETATM   32  C   UNL     1     -10.844   6.664  68.996  1.00  0.00    -0.324 C  
HETATM   33  C   UNL     1      -9.731   5.617  68.875  1.00  0.00    -0.181 C  
HETATM   34  C   UNL     1      -8.903   7.376  70.291  1.00  0.00    -0.147 C  
ENDBRANCH  12  30
ENDBRANCH   4   6
TORSDOF 5
ENDMDL
MODEL       12
REMARK 921   NORMALIZED FREE ENERGY PREDICTED BY IDOCK:   -7.23 KCAL/MOL
REMARK 922        TOTAL FREE ENERGY PREDICTED BY IDOCK:  -10.24 KCAL/MOL
REMARK 923 INTER-LIGAND FREE ENERGY PREDICTED BY IDOCK:  -10.12 KCAL/MOL
REMARK 924 INTRA-LIGAND FREE ENERGY PREDICTED BY IDOCK:   -0.12 KCAL/MOL
REMARK 927      BINDING AFFINITY PREDICTED BY RF-SCORE:    0.00 PKD
ROOT
HETATM    1  C   UNL     1      -8.711   6.569  72.336  1.00  0.00    -0.126 C  
HETATM    2  N   UNL     1      -8.938   7.588  71.325  1.00  0.00    -0.137 N  
HETATM    3  C   UNL     1      -7.949   8.659  71.248  1.00  0.00    -0.136 C  
HETATM    4  C   UNL     1      -9.808   7.240  70.268  1.00  0.00    -0.179 C  
HETATM    5  O   UNL     1     -10.300   6.113  70.216  1.00  0.00    -0.191 OA 
ENDROOT
BRANCH   4   6
HETATM    6  C   UNL     1     -10.137   8.266  69.283  1.00  0.00    -0.199 A  
HETATM    7  C   UNL     1      -9.627   8.355  67.994  1.00  0.00    -0.168 A  
HETATM    8  C   UNL     1     -10.211   9.445  67.338  1.00  0.00    -0.298 A  
HETATM    9  C   UNL     1     -10.157   9.978  66.062  1.00  0.00    -0.248 A  
HETATM   10  N   UNL     1     -10.793  11.134  65.798  1.00  0.00    -0.201 NA 
HETATM   11  C   UNL     1     -11.459  11.756  66.792  1.00  0.00    -0.281 A  
HETATM   12  N   UNL     1     -10.907   9.425  69.473  1.00  0.00    -0.232 NA 
HETATM   13  N   UNL     1     -11.618  11.275  68.042  1.00  0.00    -0.490 NA 
HETATM   14  C   UNL     1     -10.968  10.116  68.268  1.00  0.00    -0.248 A  
BRANCH  11  15
HETATM   15  N   UNL     1     -11.951  13.006  66.432  1.00  0.00    -0.405 NA 
HETATM   16  H   UNL     1     -12.807  12.979  65.878  1.00  0.00     0.000 HD 
BRANCH  15  17
HETATM   17  C   UNL     1     -11.479  14.284  66.695  1.00  0.00    -0.364 A  
HETATM   18  C   UNL     1     -10.823  15.060  65.757  1.00  0.00    -0.355 A  
HETATM   19  C   UNL     1     -10.407  16.355  66.075  1.00  0.00    -0.365 A  
HETATM   20  N   UNL     1     -11.693  14.757  67.939  1.00  0.00    -0.351 NA 
HETATM   21  C   UNL     1     -10.623  16.896  67.338  1.00  0.00    -0.294 A  
HETATM   22  C   UNL     1     -11.276  16.027  68.217  1.00  0.00    -0.350 A  
BRANCH  21  23
HETATM   23  N   UNL     1     -10.254  18.182  67.671  1.00  0.00    -0.355 NA 
HETATM   24  C   UNL     1      -8.973  18.472  68.339  1.00  0.00    -0.322 C  
HETATM   25  C   UNL     1      -8.042  19.275  67.396  1.00  0.00    -0.277 C  
HETATM   26  N   UNL     1      -8.658  20.500  66.852  1.00  0.00    -0.539 NA 
HETATM   27  C   UNL     1      -9.930  20.151  66.185  1.00  0.00    -0.414 C  
HETATM   28  H   UNL     1      -8.026  21.011  66.236  1.00  0.00     0.000 HD 
HETATM   29  C   UNL     1     -10.901  19.381  67.106  1.00  0.00    -0.450 C  
ENDBRANCH  21  23
ENDBRANCH  15  17
ENDBRANCH  11  15
BRANCH  12  30
HETATM   30  C   UNL     1     -11.494   9.890  70.727  1.00  0.00    -0.354 C  
HETATM   31  C   UNL     1     -13.121  11.269  71.850  1.00  0.00    -0.510 C  
HETATM   32  C   UNL     1     -12.502   8.945  71.411  1.00  0.00    -0.357 C  
HETATM   33  C   UNL     1     -13.599   9.834  72.010  1.00  0.00    -0.436 C  
HETATM   34  C   UNL     1     -12.227  11.236  70.619  1.00  0.00    -0.489 C  
ENDBRANCH  12  30
ENDBRANCH   4   6
TORSDOF 5
ENDMDL
MODEL       13
REMARK 921   NORMALIZED FREE ENERGY PREDICTED BY IDOCK:   -7.23 KCAL/MOL
REMARK 922        TOTAL FREE ENERGY PREDICTED BY IDOCK:  -10.23 KCAL/MOL
REMARK 923 INTER-LIGAND FREE ENERGY PREDICTED BY IDOCK:   -9.40 KCAL/MOL
REMARK 924 INTRA-LIGAND FREE ENERGY PREDICTED BY IDOCK:   -0.83 KCAL/MOL
REMARK 927      BINDING AFFINITY PREDICTED BY RF-SCORE:    0.00 PKD
ROOT
HETATM    1  C   UNL     1      -8.537   4.195  68.456  1.00  0.00    -0.094 C  
HETATM    2  N   UNL     1      -9.201   5.352  67.878  1.00  0.00    -0.109 N  
HETATM    3  C   UNL     1     -10.472   5.101  67.204  1.00  0.00    -0.162 C  
HETATM    4  C   UNL     1      -8.807   6.614  68.373  1.00  0.00    -0.121 C  
HETATM    5  O   UNL     1      -7.969   6.694  69.271  1.00  0.00    -0.108 OA 
ENDROOT
BRANCH   4   6
HETATM    6  C   UNL     1      -9.381   7.805  67.754  1.00  0.00    -0.143 A  
HETATM    7  C   UNL     1      -9.083   8.294  66.488  1.00  0.00    -0.219 A  
HETATM    8  C   UNL     1      -9.865   9.426  66.232  1.00  0.00    -0.351 A  
HETATM    9  C   UNL     1     -10.058  10.274  65.155  1.00  0.00    -0.285 A  
HETATM   10  N   UNL     1     -10.839  11.360  65.297  1.00  0.00    -0.265 NA 
HETATM   11  C   UNL     1     -11.407  11.606  66.495  1.00  0.00    -0.263 A  
HETATM   12  N   UNL     1     -10.227   8.758  68.345  1.00  0.00    -0.192 NA 
HETATM   13  N   UNL     1     -11.327  10.800  67.573  1.00  0.00    -0.456 NA 
HETATM   14  C   UNL     1     -10.538   9.723  67.394  1.00  0.00    -0.267 A  
BRANCH  11  15
HETATM   15  N   UNL     1     -12.071  12.827  66.554  1.00  0.00    -0.509 NA 
HETATM   16  H   UNL     1     -13.066  12.777  66.335  1.00  0.00     0.000 HD 
BRANCH  15  17
HETATM   17  C   UNL     1     -11.614  14.101  66.858  1.00  0.00    -0.391 A  
HETATM   18  C   UNL     1     -11.721  14.666  68.116  1.00  0.00    -0.360 A  
HETATM   19  C   UNL     1     -11.205  15.940  68.366  1.00  0.00    -0.368 A  
HETATM   20  N   UNL     1     -11.041  14.788  65.850  1.00  0.00    -0.335 NA 
HETATM   21  C   UNL     1     -10.587  16.681  67.364  1.00  0.00    -0.295 A  
HETATM   22  C   UNL     1     -10.546  16.029  66.128  1.00  0.00    -0.297 A  
BRANCH  21  23
HETATM   23  N   UNL     1     -10.039  17.927  67.588  1.00  0.00    -0.331 NA 
HETATM   24  C   UNL     1      -8.583  18.123  67.702  1.00  0.00    -0.251 C  
HETATM   25  C   UNL     1      -8.057  18.960  66.508  1.00  0.00    -0.287 C  
HETATM   26  N   UNL     1      -8.764  20.242  66.323  1.00  0.00    -0.563 NA 
HETATM   27  C   UNL     1     -10.214  19.985  66.203  1.00  0.00    -0.475 C  
HETATM   28  H   UNL     1      -8.399  20.774  65.533  1.00  0.00     0.000 HD 
HETATM   29  C   UNL     1     -10.784  19.185  67.395  1.00  0.00    -0.481 C  
ENDBRANCH  21  23
ENDBRANCH  15  17
ENDBRANCH  11  15
BRANCH  12  30
HETATM   30  C   UNL     1     -10.662   8.797  69.739  1.00  0.00    -0.218 C  
HETATM   31  C   UNL     1     -11.169   7.603  71.771  1.00  0.00    -0.285 C  
HETATM   32  C   UNL     1      -9.600   9.196  70.783  1.00  0.00    -0.338 C  
HETATM   33  C   UNL     1      -9.859   8.333  72.024  1.00  0.00    -0.327 C  
HETATM   34  C   UNL     1     -11.243   7.472  70.256  1.00  0.00    -0.253 C  
ENDBRANCH  12  30
ENDBRANCH   4   6
TORSDOF 5
ENDMDL
MODEL       14
REMARK 921   NORMALIZED FREE ENERGY PREDICTED BY IDOCK:   -7.20 KCAL/MOL
REMARK 922        TOTAL FREE ENERGY PREDICTED BY IDOCK:  -10.20 KCAL/MOL
REMARK 923 INTER-LIGAND FREE ENERGY PREDICTED BY IDOCK:   -9.54 KCAL/MOL
REMARK 924 INTRA-LIGAND FREE ENERGY PREDICTED BY IDOCK:   -0.65 KCAL/MOL
REMARK 927      BINDING AFFINITY PREDICTED BY RF-SCORE:    0.00 PKD
ROOT
HETATM    1  C   UNL     1      -8.296   5.337  69.867  1.00  0.00    -0.094 C  
HETATM    2  N   UNL     1      -8.667   6.683  69.467  1.00  0.00    -0.135 N  
HETATM    3  C   UNL     1      -7.569   7.598  69.166  1.00  0.00    -0.100 C  
HETATM    4  C   UNL     1      -9.988   6.857  68.999  1.00  0.00    -0.158 C  
HETATM    5  O   UNL     1     -10.747   5.892  68.913  1.00  0.00    -0.263 OA 
ENDROOT
BRANCH   4   6
HETATM    6  C   UNL     1     -10.430   8.210  68.675  1.00  0.00    -0.165 A  
HETATM    7  C   UNL     1     -10.330   8.828  67.435  1.00  0.00    -0.349 A  
HETATM    8  C   UNL     1     -10.901  10.104  67.504  1.00  0.00    -0.349 A  
HETATM    9  C   UNL     1     -11.153  11.128  66.608  1.00  0.00    -0.189 A  
HETATM   10  N   UNL     1     -11.642  12.298  67.056  1.00  0.00    -0.419 NA 
HETATM   11  C   UNL     1     -11.863  12.452  68.377  1.00  0.00    -0.309 A  
HETATM   12  N   UNL     1     -10.907   9.193  69.558  1.00  0.00    -0.215 NA 
HETATM   13  N   UNL     1     -11.709  11.489  69.308  1.00  0.00    -0.301 NA 
HETATM   14  C   UNL     1     -11.219  10.332  68.823  1.00  0.00    -0.206 A  
BRANCH  11  15
HETATM   15  N   UNL     1     -12.231  13.746  68.730  1.00  0.00    -0.428 NA 
HETATM   16  H   UNL     1     -13.177  13.828  69.104  1.00  0.00     0.000 HD 
BRANCH  15  17
HETATM   17  C   UNL     1     -11.535  14.944  68.662  1.00  0.00    -0.306 A  
HETATM   18  C   UNL     1     -11.181  15.551  67.471  1.00  0.00    -0.272 A  
HETATM   19  C   UNL     1     -10.515  16.778  67.472  1.00  0.00    -0.319 A  
HETATM   20  N   UNL     1     -11.209  15.515  69.839  1.00  0.00    -0.286 NA 
HETATM   21  C   UNL     1     -10.174  17.418  68.660  1.00  0.00    -0.361 A  
HETATM   22  C   UNL     1     -10.560  16.715  69.806  1.00  0.00    -0.227 A  
BRANCH  21  23
HETATM   23  N   UNL     1      -9.546  18.645  68.693  1.00  0.00    -0.358 NA 
HETATM   24  C   UNL     1      -8.077  18.764  68.668  1.00  0.00    -0.333 C  
HETATM   25  C   UNL     1      -7.613  19.427  67.347  1.00  0.00    -0.240 C  
HETATM   26  N   UNL     1      -8.266  20.720  67.068  1.00  0.00    -0.569 NA 
HETATM   27  C   UNL     1      -9.733  20.540  67.094  1.00  0.00    -0.441 C  
HETATM   28  H   UNL     1      -7.943  21.136  66.194  1.00  0.00     0.000 HD 
HETATM   29  C   UNL     1     -10.239  19.916  68.412  1.00  0.00    -0.433 C  
ENDBRANCH  21  23
ENDBRANCH  15  17
ENDBRANCH  11  15
BRANCH  12  30
HETATM   30  C   UNL     1     -11.000   9.093  71.012  1.00  0.00    -0.305 C  
HETATM   31  C   UNL     1     -11.523   7.764  72.953  1.00  0.00    -0.359 C  
HETATM   32  C   UNL     1      -9.681   8.855  71.774  1.00  0.00    -0.365 C  
HETATM   33  C   UNL     1     -10.008   7.904  72.930  1.00  0.00    -0.360 C  
HETATM   34  C   UNL     1     -11.946   7.990  71.509  1.00  0.00    -0.331 C  
ENDBRANCH  12  30
ENDBRANCH   4   6
TORSDOF 5
ENDMDL
MODEL       15
REMARK 921   NORMALIZED FREE ENERGY PREDICTED BY IDOCK:   -7.20 KCAL/MOL
REMARK 922        TOTAL FREE ENERGY PREDICTED BY IDOCK:  -10.20 KCAL/MOL
REMARK 923 INTER-LIGAND FREE ENERGY PREDICTED BY IDOCK:   -9.25 KCAL/MOL
REMARK 924 INTRA-LIGAND FREE ENERGY PREDICTED BY IDOCK:   -0.94 KCAL/MOL
REMARK 927      BINDING AFFINITY PREDICTED BY RF-SCORE:    0.00 PKD
ROOT
HETATM    1  C   UNL     1      -8.699  20.210  67.497  1.00  0.00    -0.336 C  
HETATM    2  N   UNL     1      -8.899  18.772  67.446  1.00  0.00    -0.268 N  
HETATM    3  C   UNL     1      -7.908  17.953  68.138  1.00  0.00    -0.266 C  
HETATM    4  C   UNL     1     -10.201  18.330  67.125  1.00  0.00    -0.373 C  
HETATM    5  O   UNL     1     -11.104  19.146  66.942  1.00  0.00    -0.309 OA 
ENDROOT
BRANCH   4   6
HETATM    6  C   UNL     1     -10.422  16.895  66.971  1.00  0.00    -0.281 A  
HETATM    7  C   UNL     1     -10.381  16.185  65.778  1.00  0.00    -0.398 A  
HETATM    8  C   UNL     1     -10.599  14.827  66.038  1.00  0.00    -0.318 A  
HETATM    9  C   UNL     1     -10.604  13.663  65.290  1.00  0.00    -0.346 A  
HETATM   10  N   UNL     1     -10.965  12.503  65.869  1.00  0.00    -0.271 NA 
HETATM   11  C   UNL     1     -11.329  12.505  67.168  1.00  0.00    -0.324 A  
HETATM   12  N   UNL     1     -10.850  15.982  67.949  1.00  0.00    -0.326 NA 
HETATM   13  N   UNL     1     -11.289  13.577  67.985  1.00  0.00    -0.269 NA 
HETATM   14  C   UNL     1     -10.922  14.719  67.371  1.00  0.00    -0.313 A  
BRANCH  11  15
HETATM   15  N   UNL     1     -11.815  11.279  67.609  1.00  0.00    -0.627 NA 
HETATM   16  H   UNL     1     -12.436  10.809  66.950  1.00  0.00     0.000 HD 
BRANCH  15  17
HETATM   17  C   UNL     1     -11.601  10.583  68.790  1.00  0.00    -0.182 A  
HETATM   18  C   UNL     1     -12.251  10.880  69.975  1.00  0.00    -0.422 A  
HETATM   19  C   UNL     1     -12.019  10.115  71.120  1.00  0.00    -0.480 A  
HETATM   20  N   UNL     1     -10.710   9.574  68.738  1.00  0.00    -0.214 NA 
HETATM   21  C   UNL     1     -11.124   9.049  71.112  1.00  0.00    -0.301 A  
HETATM   22  C   UNL     1     -10.508   8.845  69.873  1.00  0.00    -0.214 A  
BRANCH  21  23
HETATM   23  N   UNL     1     -10.900   8.256  72.217  1.00  0.00    -0.314 NA 
HETATM   24  C   UNL     1     -11.888   7.260  72.669  1.00  0.00    -0.096 C  
HETATM   25  C   UNL     1     -11.329   5.826  72.487  1.00  0.00    -0.307 C  
HETATM   26  N   UNL     1     -10.014   5.614  73.124  1.00  0.00    -0.171 NA 
HETATM   27  C   UNL     1      -9.063   6.629  72.628  1.00  0.00    -0.133 C  
HETATM   28  H   UNL     1      -9.670   4.663  72.991  1.00  0.00     0.000 HD 
HETATM   29  C   UNL     1      -9.568   8.075  72.825  1.00  0.00    -0.277 C  
ENDBRANCH  21  23
ENDBRANCH  15  17
ENDBRANCH  11  15
BRANCH  12  30
HETATM   30  C   UNL     1     -11.233  16.287  69.324  1.00  0.00    -0.312 C  
HETATM   31  C   UNL     1     -12.638  15.807  71.224  1.00  0.00    -0.504 C  
HETATM   32  C   UNL     1     -10.325  15.723  70.436  1.00  0.00    -0.061 C  
HETATM   33  C   UNL     1     -11.249  15.304  71.586  1.00  0.00    -0.369 C  
HETATM   34  C   UNL     1     -12.649  15.826  69.702  1.00  0.00     0.128 C  
ENDBRANCH  12  30
ENDBRANCH   4   6
TORSDOF 5
ENDMDL
MODEL       16
REMARK 921   NORMALIZED FREE ENERGY PREDICTED BY IDOCK:   -7.19 KCAL/MOL
REMARK 922        TOTAL FREE ENERGY PREDICTED BY IDOCK:  -10.18 KCAL/MOL
REMARK 923 INTER-LIGAND FREE ENERGY PREDICTED BY IDOCK:   -9.74 KCAL/MOL
REMARK 924 INTRA-LIGAND FREE ENERGY PREDICTED BY IDOCK:   -0.43 KCAL/MOL
REMARK 927      BINDING AFFINITY PREDICTED BY RF-SCORE:    0.00 PKD
ROOT
HETATM    1  C   UNL     1     -12.848   6.640  71.901  1.00  0.00    -0.160 C  
HETATM    2  N   UNL     1     -13.033   8.038  71.549  1.00  0.00    -0.321 N  
HETATM    3  C   UNL     1     -14.403   8.541  71.586  1.00  0.00    -0.413 C  
HETATM    4  C   UNL     1     -11.888   8.862  71.627  1.00  0.00    -0.345 C  
HETATM    5  O   UNL     1     -10.815   8.397  72.011  1.00  0.00    -0.272 OA 
ENDROOT
BRANCH   4   6
HETATM    6  C   UNL     1     -12.010  10.250  71.192  1.00  0.00    -0.376 A  
HETATM    7  C   UNL     1     -12.838  11.214  71.755  1.00  0.00    -0.479 A  
HETATM    8  C   UNL     1     -12.645  12.433  71.097  1.00  0.00    -0.349 A  
HETATM    9  C   UNL     1     -13.116  13.726  71.247  1.00  0.00    -0.297 A  
HETATM   10  N   UNL     1     -12.786  14.663  70.340  1.00  0.00    -0.340 NA 
HETATM   11  C   UNL     1     -12.012  14.316  69.292  1.00  0.00    -0.335 A  
HETATM   12  N   UNL     1     -11.437  10.850  70.059  1.00  0.00    -0.308 NA 
HETATM   13  N   UNL     1     -11.457  13.101  69.105  1.00  0.00    -0.289 NA 
HETATM   14  C   UNL     1     -11.809  12.189  70.033  1.00  0.00    -0.306 A  
BRANCH  11  15
HETATM   15  N   UNL     1     -11.859  15.331  68.354  1.00  0.00    -0.505 NA 
HETATM   16  H   UNL     1     -12.664  15.462  67.740  1.00  0.00     0.000 HD 
BRANCH  15  17
HETATM   17  C   UNL     1     -10.804  16.197  68.109  1.00  0.00    -0.329 A  
HETATM   18  C   UNL     1     -10.488  17.263  68.932  1.00  0.00    -0.327 A  
HETATM   19  C   UNL     1      -9.388  18.074  68.649  1.00  0.00    -0.293 A  
HETATM   20  N   UNL     1     -10.073  15.952  67.003  1.00  0.00    -0.262 NA 
HETATM   21  C   UNL     1      -8.589  17.850  67.531  1.00  0.00    -0.239 A  
HETATM   22  C   UNL     1      -9.003  16.762  66.756  1.00  0.00    -0.240 A  
BRANCH  21  23
HETATM   23  N   UNL     1      -7.478  18.613  67.244  1.00  0.00    -0.217 NA 
HETATM   24  C   UNL     1      -6.872  18.624  65.900  1.00  0.00    -0.277 C  
HETATM   25  C   UNL     1      -7.043  20.017  65.243  1.00  0.00    -0.219 C  
HETATM   26  N   UNL     1      -6.544  21.132  66.072  1.00  0.00    -0.501 NA 
HETATM   27  C   UNL     1      -7.190  21.079  67.400  1.00  0.00    -0.295 C  
HETATM   28  H   UNL     1      -6.667  22.037  65.618  1.00  0.00     0.000 HD 
HETATM   29  C   UNL     1      -7.010  19.716  68.104  1.00  0.00    -0.284 C  
ENDBRANCH  21  23
ENDBRANCH  15  17
ENDBRANCH  11  15
BRANCH  12  30
HETATM   30  C   UNL     1     -10.644  10.189  69.026  1.00  0.00    -0.223 C  
HETATM   31  C   UNL     1      -9.953  10.078  66.719  1.00  0.00    -0.267 C  
HETATM   32  C   UNL     1      -9.142  10.537  68.979  1.00  0.00    -0.188 C  
HETATM   33  C   UNL     1      -8.750  10.589  67.498  1.00  0.00    -0.125 C  
HETATM   34  C   UNL     1     -11.147  10.429  67.594  1.00  0.00    -0.361 C  
ENDBRANCH  12  30
ENDBRANCH   4   6
TORSDOF 5
ENDMDL
MODEL       17
REMARK 921   NORMALIZED FREE ENERGY PREDICTED BY IDOCK:   -7.19 KCAL/MOL
REMARK 922        TOTAL FREE ENERGY PREDICTED BY IDOCK:  -10.18 KCAL/MOL
REMARK 923 INTER-LIGAND FREE ENERGY PREDICTED BY IDOCK:   -9.30 KCAL/MOL
REMARK 924 INTRA-LIGAND FREE ENERGY PREDICTED BY IDOCK:   -0.88 KCAL/MOL
REMARK 927      BINDING AFFINITY PREDICTED BY RF-SCORE:    0.00 PKD
ROOT
HETATM    1  C   UNL     1      -8.667   4.386  68.474  1.00  0.00    -0.096 C  
HETATM    2  N   UNL     1      -9.323   5.545  67.892  1.00  0.00    -0.108 N  
HETATM    3  C   UNL     1     -10.645   5.320  67.315  1.00  0.00    -0.127 C  
HETATM    4  C   UNL     1      -8.848   6.808  68.305  1.00  0.00    -0.125 C  
HETATM    5  O   UNL     1      -7.949   6.889  69.142  1.00  0.00    -0.115 OA 
ENDROOT
BRANCH   4   6
HETATM    6  C   UNL     1      -9.416   7.996  67.675  1.00  0.00    -0.145 A  
HETATM    7  C   UNL     1      -9.154   8.443  66.386  1.00  0.00    -0.231 A  
HETATM    8  C   UNL     1      -9.918   9.587  66.126  1.00  0.00    -0.342 A  
HETATM    9  C   UNL     1     -10.131  10.410  65.034  1.00  0.00    -0.309 A  
HETATM   10  N   UNL     1     -10.879  11.519  65.174  1.00  0.00    -0.285 NA 
HETATM   11  C   UNL     1     -11.395  11.812  66.385  1.00  0.00    -0.297 A  
HETATM   12  N   UNL     1     -10.216   8.986  68.270  1.00  0.00    -0.197 NA 
HETATM   13  N   UNL     1     -11.294  11.034  67.482  1.00  0.00    -0.452 NA 
HETATM   14  C   UNL     1     -10.539   9.932  67.303  1.00  0.00    -0.252 A  
BRANCH  11  15
HETATM   15  N   UNL     1     -12.026  13.050  66.434  1.00  0.00    -0.405 NA 
HETATM   16  H   UNL     1     -13.030  13.020  66.253  1.00  0.00     0.000 HD 
BRANCH  15  17
HETATM   17  C   UNL     1     -11.528  14.320  66.686  1.00  0.00    -0.364 A  
HETATM   18  C   UNL     1     -10.898  15.093  65.728  1.00  0.00    -0.358 A  
HETATM   19  C   UNL     1     -10.454  16.380  66.037  1.00  0.00    -0.333 A  
HETATM   20  N   UNL     1     -11.687  14.787  67.940  1.00  0.00    -0.351 NA 
HETATM   21  C   UNL     1     -10.613  16.916  67.311  1.00  0.00    -0.270 A  
HETATM   22  C   UNL     1     -11.244  16.050  68.209  1.00  0.00    -0.350 A  
BRANCH  21  23
HETATM   23  N   UNL     1     -10.214  18.196  67.637  1.00  0.00    -0.355 NA 
HETATM   24  C   UNL     1      -8.884  18.470  68.207  1.00  0.00    -0.310 C  
HETATM   25  C   UNL     1      -8.027  19.289  67.209  1.00  0.00    -0.260 C  
HETATM   26  N   UNL     1      -8.681  20.525  66.737  1.00  0.00    -0.552 NA 
HETATM   27  C   UNL     1     -10.002  20.190  66.166  1.00  0.00    -0.414 C  
HETATM   28  H   UNL     1      -8.097  21.045  66.082  1.00  0.00     0.000 HD 
HETATM   29  C   UNL     1     -10.900  19.406  67.147  1.00  0.00    -0.450 C  
ENDBRANCH  21  23
ENDBRANCH  15  17
ENDBRANCH  11  15
BRANCH  12  30
HETATM   30  C   UNL     1     -10.597   9.074  69.677  1.00  0.00    -0.224 C  
HETATM   31  C   UNL     1     -11.066   7.948  71.756  1.00  0.00    -0.299 C  
HETATM   32  C   UNL     1      -9.484   9.463  70.671  1.00  0.00    -0.325 C  
HETATM   33  C   UNL     1      -9.725   8.640  71.942  1.00  0.00    -0.383 C  
HETATM   34  C   UNL     1     -11.201   7.783  70.249  1.00  0.00    -0.215 C  
ENDBRANCH  12  30
ENDBRANCH   4   6
TORSDOF 5
ENDMDL
MODEL       18
REMARK 921   NORMALIZED FREE ENERGY PREDICTED BY IDOCK:   -7.13 KCAL/MOL
REMARK 922        TOTAL FREE ENERGY PREDICTED BY IDOCK:  -10.11 KCAL/MOL
REMARK 923 INTER-LIGAND FREE ENERGY PREDICTED BY IDOCK:   -9.25 KCAL/MOL
REMARK 924 INTRA-LIGAND FREE ENERGY PREDICTED BY IDOCK:   -0.86 KCAL/MOL
REMARK 927      BINDING AFFINITY PREDICTED BY RF-SCORE:    0.00 PKD
ROOT
HETATM    1  C   UNL     1      -7.431   5.678  70.450  1.00  0.00    -0.080 C  
HETATM    2  N   UNL     1      -7.854   6.827  69.668  1.00  0.00    -0.113 N  
HETATM    3  C   UNL     1      -6.832   7.829  69.380  1.00  0.00    -0.044 C  
HETATM    4  C   UNL     1      -9.040   6.673  68.917  1.00  0.00    -0.132 C  
HETATM    5  O   UNL     1      -9.639   5.598  68.918  1.00  0.00    -0.122 OA 
ENDROOT
BRANCH   4   6
HETATM    6  C   UNL     1      -9.551   7.833  68.192  1.00  0.00    -0.151 A  
HETATM    7  C   UNL     1      -9.189   8.219  66.908  1.00  0.00    -0.197 A  
HETATM    8  C   UNL     1      -9.922   9.353  66.539  1.00  0.00    -0.339 A  
HETATM    9  C   UNL     1     -10.046  10.126  65.398  1.00  0.00    -0.272 A  
HETATM   10  N   UNL     1     -10.794  11.243  65.431  1.00  0.00    -0.231 NA 
HETATM   11  C   UNL     1     -11.398  11.593  66.584  1.00  0.00    -0.270 A  
HETATM   12  N   UNL     1     -10.385   8.852  68.680  1.00  0.00    -0.204 NA 
HETATM   13  N   UNL     1     -11.386  10.866  67.720  1.00  0.00    -0.428 NA 
HETATM   14  C   UNL     1     -10.627   9.754  67.649  1.00  0.00    -0.276 A  
BRANCH  11  15
HETATM   15  N   UNL     1     -12.021  12.835  66.529  1.00  0.00    -0.480 NA 
HETATM   16  H   UNL     1     -12.996  12.805  66.228  1.00  0.00     0.000 HD 
BRANCH  15  17
HETATM   17  C   UNL     1     -11.548  14.108  66.811  1.00  0.00    -0.391 A  
HETATM   18  C   UNL     1     -11.618  14.683  68.067  1.00  0.00    -0.366 A  
HETATM   19  C   UNL     1     -11.087  15.955  68.294  1.00  0.00    -0.345 A  
HETATM   20  N   UNL     1     -10.998  14.784  65.783  1.00  0.00    -0.324 NA 
HETATM   21  C   UNL     1     -10.490  16.685  67.271  1.00  0.00    -0.313 A  
HETATM   22  C   UNL     1     -10.486  16.023  66.039  1.00  0.00    -0.345 A  
BRANCH  21  23
HETATM   23  N   UNL     1      -9.928  17.928  67.471  1.00  0.00    -0.309 NA 
HETATM   24  C   UNL     1      -8.471  18.138  67.410  1.00  0.00    -0.240 C  
HETATM   25  C   UNL     1      -8.104  19.024  66.193  1.00  0.00    -0.244 C  
HETATM   26  N   UNL     1      -8.839  20.303  66.144  1.00  0.00    -0.584 NA 
HETATM   27  C   UNL     1     -10.291  20.033  66.197  1.00  0.00    -0.458 C  
HETATM   28  H   UNL     1      -8.579  20.867  65.335  1.00  0.00     0.000 HD 
HETATM   29  C   UNL     1     -10.701  19.183  67.419  1.00  0.00    -0.481 C  
ENDBRANCH  21  23
ENDBRANCH  15  17
ENDBRANCH  11  15
BRANCH  12  30
HETATM   30  C   UNL     1     -10.870   9.007  70.048  1.00  0.00    -0.231 C  
HETATM   31  C   UNL     1     -11.634   7.976  72.089  1.00  0.00    -0.399 C  
HETATM   32  C   UNL     1      -9.808   9.288  71.130  1.00  0.00    -0.342 C  
HETATM   33  C   UNL     1     -10.244   8.520  72.383  1.00  0.00    -0.369 C  
HETATM   34  C   UNL     1     -11.660   7.800  70.578  1.00  0.00    -0.173 C  
ENDBRANCH  12  30
ENDBRANCH   4   6
TORSDOF 5
ENDMDL
MODEL       19
REMARK 921   NORMALIZED FREE ENERGY PREDICTED BY IDOCK:   -7.12 KCAL/MOL
REMARK 922        TOTAL FREE ENERGY PREDICTED BY IDOCK:  -10.10 KCAL/MOL
REMARK 923 INTER-LIGAND FREE ENERGY PREDICTED BY IDOCK:   -9.94 KCAL/MOL
REMARK 924 INTRA-LIGAND FREE ENERGY PREDICTED BY IDOCK:   -0.16 KCAL/MOL
REMARK 927      BINDING AFFINITY PREDICTED BY RF-SCORE:    0.00 PKD
ROOT
HETATM    1  C   UNL     1      -8.361   6.656  72.406  1.00  0.00    -0.106 C  
HETATM    2  N   UNL     1      -8.639   7.613  71.348  1.00  0.00    -0.118 N  
HETATM    3  C   UNL     1      -7.645   8.662  71.143  1.00  0.00    -0.106 C  
HETATM    4  C   UNL     1      -9.575   7.212  70.369  1.00  0.00    -0.169 C  
HETATM    5  O   UNL     1     -10.081   6.091  70.419  1.00  0.00    -0.180 OA 
ENDROOT
BRANCH   4   6
HETATM    6  C   UNL     1      -9.952   8.179  69.342  1.00  0.00    -0.188 A  
HETATM    7  C   UNL     1      -9.449   8.236  68.049  1.00  0.00    -0.153 A  
HETATM    8  C   UNL     1     -10.083   9.268  67.349  1.00  0.00    -0.280 A  
HETATM    9  C   UNL     1     -10.056   9.749  66.051  1.00  0.00    -0.251 A  
HETATM   10  N   UNL     1     -10.745  10.862  65.741  1.00  0.00    -0.162 NA 
HETATM   11  C   UNL     1     -11.438  11.495  66.709  1.00  0.00    -0.157 A  
HETATM   12  N   UNL     1     -10.775   9.308  69.485  1.00  0.00    -0.229 NA 
HETATM   13  N   UNL     1     -11.572  11.060  67.979  1.00  0.00    -0.522 NA 
HETATM   14  C   UNL     1     -10.870   9.943  68.252  1.00  0.00    -0.230 A  
BRANCH  11  15
HETATM   15  N   UNL     1     -11.987  12.704  66.298  1.00  0.00    -0.531 NA 
HETATM   16  H   UNL     1     -12.980  12.659  66.067  1.00  0.00     0.000 HD 
BRANCH  15  17
HETATM   17  C   UNL     1     -11.420  13.961  66.147  1.00  0.00    -0.345 A  
HETATM   18  C   UNL     1     -11.480  14.686  64.971  1.00  0.00    -0.386 A  
HETATM   19  C   UNL     1     -10.922  15.964  64.898  1.00  0.00    -0.427 A  
HETATM   20  N   UNL     1     -10.789  14.466  67.226  1.00  0.00    -0.286 NA 
HETATM   21  C   UNL     1     -10.278  16.538  65.989  1.00  0.00    -0.356 A  
HETATM   22  C   UNL     1     -10.255  15.718  67.121  1.00  0.00    -0.279 A  
BRANCH  21  23
HETATM   23  N   UNL     1      -9.746  17.810  65.957  1.00  0.00    -0.533 NA 
HETATM   24  C   UNL     1     -10.603  19.006  65.872  1.00  0.00    -0.393 C  
HETATM   25  C   UNL     1     -10.505  19.833  67.178  1.00  0.00    -0.463 C  
HETATM   26  N   UNL     1      -9.122  20.183  67.559  1.00  0.00    -0.351 NA 
HETATM   27  C   UNL     1      -8.313  18.949  67.641  1.00  0.00    -0.272 C  
HETATM   28  H   UNL     1      -9.085  20.728  68.421  1.00  0.00     0.000 HD 
HETATM   29  C   UNL     1      -8.355  18.115  66.342  1.00  0.00    -0.245 C  
ENDBRANCH  21  23
ENDBRANCH  15  17
ENDBRANCH  11  15
BRANCH  12  30
HETATM   30  C   UNL     1     -11.380   9.799  70.720  1.00  0.00    -0.342 C  
HETATM   31  C   UNL     1     -13.037  11.185  71.789  1.00  0.00    -0.536 C  
HETATM   32  C   UNL     1     -12.384   8.859  71.419  1.00  0.00    -0.368 C  
HETATM   33  C   UNL     1     -13.498   9.748  71.983  1.00  0.00    -0.498 C  
HETATM   34  C   UNL     1     -12.130  11.131  70.569  1.00  0.00    -0.474 C  
ENDBRANCH  12  30
ENDBRANCH   4   6
TORSDOF 5
ENDMDL
MODEL       20
REMARK 921   NORMALIZED FREE ENERGY PREDICTED BY IDOCK:   -7.09 KCAL/MOL
REMARK 922        TOTAL FREE ENERGY PREDICTED BY IDOCK:  -10.05 KCAL/MOL
REMARK 923 INTER-LIGAND FREE ENERGY PREDICTED BY IDOCK:   -9.23 KCAL/MOL
REMARK 924 INTRA-LIGAND FREE ENERGY PREDICTED BY IDOCK:   -0.82 KCAL/MOL
REMARK 927      BINDING AFFINITY PREDICTED BY RF-SCORE:    0.00 PKD
ROOT
HETATM    1  C   UNL     1     -10.954  15.927  64.941  1.00  0.00    -0.411 C  
HETATM    2  N   UNL     1     -11.498  15.095  66.001  1.00  0.00    -0.229 N  
HETATM    3  C   UNL     1     -12.370  14.001  65.584  1.00  0.00    -0.479 C  
HETATM    4  C   UNL     1     -10.824  15.138  67.241  1.00  0.00    -0.316 C  
HETATM    5  O   UNL     1      -9.812  15.825  67.373  1.00  0.00    -0.230 OA 
ENDROOT
BRANCH   4   6
HETATM    6  C   UNL     1     -11.393  14.389  68.358  1.00  0.00    -0.287 A  
HETATM    7  C   UNL     1     -12.006  14.934  69.480  1.00  0.00    -0.347 A  
HETATM    8  C   UNL     1     -12.463  13.901  70.307  1.00  0.00    -0.380 A  
HETATM    9  C   UNL     1     -13.185  13.820  71.485  1.00  0.00    -0.341 A  
HETATM   10  N   UNL     1     -13.362  12.624  72.074  1.00  0.00    -0.504 NA 
HETATM   11  C   UNL     1     -12.816  11.529  71.509  1.00  0.00    -0.380 A  
HETATM   12  N   UNL     1     -11.316  13.007  68.595  1.00  0.00    -0.270 NA 
HETATM   13  N   UNL     1     -12.158  11.507  70.332  1.00  0.00    -0.372 NA 
HETATM   14  C   UNL     1     -12.001  12.722  69.771  1.00  0.00    -0.292 A  
BRANCH  11  15
HETATM   15  N   UNL     1     -12.947  10.382  72.284  1.00  0.00    -0.461 NA 
HETATM   16  H   UNL     1     -13.521  10.500  73.119  1.00  0.00     0.000 HD 
BRANCH  15  17
HETATM   17  C   UNL     1     -12.433   9.104  72.119  1.00  0.00    -0.366 A  
HETATM   18  C   UNL     1     -13.206   8.014  71.761  1.00  0.00    -0.367 A  
HETATM   19  C   UNL     1     -12.618   6.761  71.573  1.00  0.00    -0.371 A  
HETATM   20  N   UNL     1     -11.108   8.960  72.324  1.00  0.00    -0.283 NA 
HETATM   21  C   UNL     1     -11.252   6.566  71.752  1.00  0.00    -0.269 A  
HETATM   22  C   UNL     1     -10.565   7.724  72.129  1.00  0.00    -0.240 A  
BRANCH  21  23
HETATM   23  N   UNL     1     -10.639   5.349  71.542  1.00  0.00    -0.233 NA 
HETATM   24  C   UNL     1     -10.089   4.976  70.226  1.00  0.00    -0.269 C  
HETATM   25  C   UNL     1      -8.545   4.868  70.298  1.00  0.00    -0.094 C  
HETATM   26  N   UNL     1      -8.060   3.969  71.364  1.00  0.00    -0.072 NA 
HETATM   27  C   UNL     1      -8.632   4.395  72.658  1.00  0.00    -0.109 C  
HETATM   28  H   UNL     1      -7.042   3.915  71.390  1.00  0.00     0.000 HD 
HETATM   29  C   UNL     1     -10.173   4.478  72.637  1.00  0.00    -0.179 C  
ENDBRANCH  21  23
ENDBRANCH  15  17
ENDBRANCH  11  15
BRANCH  12  30
HETATM   30  C   UNL     1     -10.587  12.022  67.801  1.00  0.00    -0.207 C  
HETATM   31  C   UNL     1      -9.036  10.178  67.729  1.00  0.00    -0.129 C  
HETATM   32  C   UNL     1     -11.375  10.776  67.350  1.00  0.00    -0.239 C  
HETATM   33  C   UNL     1     -10.407   9.591  67.434  1.00  0.00    -0.319 C  
HETATM   34  C   UNL     1      -9.330  11.465  68.487  1.00  0.00    -0.180 C  
ENDBRANCH  12  30
ENDBRANCH   4   6
TORSDOF 5
ENDMDL
MODEL       21
REMARK 921   NORMALIZED FREE ENERGY PREDICTED BY IDOCK:   -6.98 KCAL/MOL
REMARK 922        TOTAL FREE ENERGY PREDICTED BY IDOCK:   -9.91 KCAL/MOL
REMARK 923 INTER-LIGAND FREE ENERGY PREDICTED BY IDOCK:   -9.04 KCAL/MOL
REMARK 924 INTRA-LIGAND FREE ENERGY PREDICTED BY IDOCK:   -0.87 KCAL/MOL
REMARK 927      BINDING AFFINITY PREDICTED BY RF-SCORE:    0.00 PKD
ROOT
HETATM    1  C   UNL     1      -9.932   5.177  73.086  1.00  0.00    -0.160 C  
HETATM    2  N   UNL     1      -9.876   6.134  71.994  1.00  0.00    -0.156 N  
HETATM    3  C   UNL     1      -9.992   5.588  70.645  1.00  0.00    -0.207 C  
HETATM    4  C   UNL     1     -10.144   7.481  72.325  1.00  0.00    -0.199 C  
HETATM    5  O   UNL     1     -10.442   7.787  73.479  1.00  0.00    -0.311 OA 
ENDROOT
BRANCH   4   6
HETATM    6  C   UNL     1     -10.006   8.487  71.277  1.00  0.00    -0.221 A  
HETATM    7  C   UNL     1      -8.818   9.067  70.851  1.00  0.00    -0.294 A  
HETATM    8  C   UNL     1      -9.083   9.952  69.800  1.00  0.00    -0.249 A  
HETATM    9  C   UNL     1      -8.325  10.742  68.953  1.00  0.00    -0.147 A  
HETATM   10  N   UNL     1      -8.940  11.574  68.094  1.00  0.00    -0.166 NA 
HETATM   11  C   UNL     1     -10.287  11.631  68.087  1.00  0.00    -0.194 A  
HETATM   12  N   UNL     1     -11.031   9.163  70.594  1.00  0.00    -0.246 NA 
HETATM   13  N   UNL     1     -11.101  10.852  68.827  1.00  0.00    -0.234 NA 
HETATM   14  C   UNL     1     -10.451  10.031  69.675  1.00  0.00    -0.248 A  
BRANCH  11  15
HETATM   15  N   UNL     1     -10.796  12.626  67.260  1.00  0.00    -0.243 NA 
HETATM   16  H   UNL     1     -11.369  12.282  66.489  1.00  0.00     0.000 HD 
BRANCH  15  17
HETATM   17  C   UNL     1     -10.660  14.006  67.302  1.00  0.00    -0.273 A  
HETATM   18  C   UNL     1      -9.992  14.734  66.334  1.00  0.00    -0.291 A  
HETATM   19  C   UNL     1      -9.925  16.126  66.415  1.00  0.00    -0.315 A  
HETATM   20  N   UNL     1     -11.224  14.632  68.355  1.00  0.00    -0.262 NA 
HETATM   21  C   UNL     1     -10.509  16.820  67.470  1.00  0.00    -0.319 A  
HETATM   22  C   UNL     1     -11.142  15.993  68.403  1.00  0.00    -0.351 A  
BRANCH  21  23
HETATM   23  N   UNL     1     -10.487  18.196  67.560  1.00  0.00    -0.397 NA 
HETATM   24  C   UNL     1      -9.898  18.887  68.720  1.00  0.00    -0.404 C  
HETATM   25  C   UNL     1      -8.629  19.668  68.295  1.00  0.00    -0.315 C  
HETATM   26  N   UNL     1      -8.849  20.594  67.166  1.00  0.00    -0.552 NA 
HETATM   27  C   UNL     1      -9.428  19.847  66.031  1.00  0.00    -0.319 C  
HETATM   28  H   UNL     1      -8.000  21.095  66.906  1.00  0.00     0.000 HD 
HETATM   29  C   UNL     1     -10.718  19.085  66.406  1.00  0.00    -0.324 C  
ENDBRANCH  21  23
ENDBRANCH  15  17
ENDBRANCH  11  15
BRANCH  12  30
HETATM   30  C   UNL     1     -12.466   9.052  70.838  1.00  0.00    -0.074 C  
HETATM   31  C   UNL     1     -14.312   7.767  71.706  1.00  0.00    -0.594 C  
HETATM   32  C   UNL     1     -13.021   9.812  72.060  1.00  0.00    -0.515 C  
HETATM   33  C   UNL     1     -14.106   8.922  72.675  1.00  0.00    -0.343 C  
HETATM   34  C   UNL     1     -12.967   7.610  71.013  1.00  0.00    -0.113 C  
ENDBRANCH  12  30
ENDBRANCH   4   6
TORSDOF 5
ENDMDL
MODEL       22
REMARK 921   NORMALIZED FREE ENERGY PREDICTED BY IDOCK:   -6.89 KCAL/MOL
REMARK 922        TOTAL FREE ENERGY PREDICTED BY IDOCK:   -9.79 KCAL/MOL
REMARK 923 INTER-LIGAND FREE ENERGY PREDICTED BY IDOCK:   -8.93 KCAL/MOL
REMARK 924 INTRA-LIGAND FREE ENERGY PREDICTED BY IDOCK:   -0.87 KCAL/MOL
REMARK 927      BINDING AFFINITY PREDICTED BY RF-SCORE:    0.00 PKD
ROOT
HETATM    1  C   UNL     1      -9.196   5.072  67.899  1.00  0.00    -0.119 C  
HETATM    2  N   UNL     1      -9.935   6.284  68.210  1.00  0.00    -0.132 N  
HETATM    3  C   UNL     1     -11.147   6.522  67.431  1.00  0.00    -0.327 C  
HETATM    4  C   UNL     1      -9.677   6.871  69.468  1.00  0.00    -0.158 C  
HETATM    5  O   UNL     1      -8.891   6.339  70.251  1.00  0.00    -0.149 OA 
ENDROOT
BRANCH   4   6
HETATM    6  C   UNL     1     -10.329   8.140  69.780  1.00  0.00    -0.216 A  
HETATM    7  C   UNL     1     -11.364   8.326  70.688  1.00  0.00    -0.257 A  
HETATM    8  C   UNL     1     -11.693   9.685  70.746  1.00  0.00    -0.390 A  
HETATM    9  C   UNL     1     -12.562  10.464  71.489  1.00  0.00    -0.439 A  
HETATM   10  N   UNL     1     -12.695  11.771  71.200  1.00  0.00    -0.358 NA 
HETATM   11  C   UNL     1     -11.985  12.291  70.179  1.00  0.00    -0.298 A  
HETATM   12  N   UNL     1     -10.146   9.379  69.145  1.00  0.00    -0.188 NA 
HETATM   13  N   UNL     1     -11.069  11.623  69.449  1.00  0.00    -0.233 NA 
HETATM   14  C   UNL     1     -10.963  10.318  69.767  1.00  0.00    -0.289 A  
BRANCH  11  15
HETATM   15  N   UNL     1     -12.314  13.611  69.890  1.00  0.00    -0.289 NA 
HETATM   16  H   UNL     1     -13.197  13.924  70.296  1.00  0.00     0.000 HD 
BRANCH  15  17
HETATM   17  C   UNL     1     -11.652  14.576  69.146  1.00  0.00    -0.298 A  
HETATM   18  C   UNL     1     -11.486  14.497  67.775  1.00  0.00    -0.362 A  
HETATM   19  C   UNL     1     -10.842  15.523  67.080  1.00  0.00    -0.314 A  
HETATM   20  N   UNL     1     -11.162  15.629  69.831  1.00  0.00    -0.300 NA 
HETATM   21  C   UNL     1     -10.338  16.640  67.738  1.00  0.00    -0.306 A  
HETATM   22  C   UNL     1     -10.541  16.615  69.121  1.00  0.00    -0.340 A  
BRANCH  21  23
HETATM   23  N   UNL     1      -9.727  17.684  67.074  1.00  0.00    -0.281 NA 
HETATM   24  C   UNL     1     -10.460  18.521  66.108  1.00  0.00    -0.413 C  
HETATM   25  C   UNL     1     -10.604  19.966  66.647  1.00  0.00    -0.421 C  
HETATM   26  N   UNL     1      -9.323  20.586  67.041  1.00  0.00    -0.581 NA 
HETATM   27  C   UNL     1      -8.639  19.712  68.016  1.00  0.00    -0.312 C  
HETATM   28  H   UNL     1      -9.445  21.536  67.391  1.00  0.00     0.000 HD 
HETATM   29  C   UNL     1      -8.443  18.271  67.499  1.00  0.00    -0.249 C  
ENDBRANCH  21  23
ENDBRANCH  15  17
ENDBRANCH  11  15
BRANCH  12  30
HETATM   30  C   UNL     1      -9.308   9.651  67.981  1.00  0.00    -0.132 C  
HETATM   31  C   UNL     1      -9.062  10.691  65.820  1.00  0.00    -0.208 C  
HETATM   32  C   UNL     1      -8.264  10.776  68.129  1.00  0.00    -0.119 C  
HETATM   33  C   UNL     1      -8.214  11.509  66.783  1.00  0.00    -0.164 C  
HETATM   34  C   UNL     1     -10.092  10.008  66.708  1.00  0.00    -0.286 C  
ENDBRANCH  12  30
ENDBRANCH   4   6
TORSDOF 5
ENDMDL
MODEL       23
REMARK 921   NORMALIZED FREE ENERGY PREDICTED BY IDOCK:   -6.84 KCAL/MOL
REMARK 922        TOTAL FREE ENERGY PREDICTED BY IDOCK:   -9.73 KCAL/MOL
REMARK 923 INTER-LIGAND FREE ENERGY PREDICTED BY IDOCK:   -8.82 KCAL/MOL
REMARK 924 INTRA-LIGAND FREE ENERGY PREDICTED BY IDOCK:   -0.92 KCAL/MOL
REMARK 927      BINDING AFFINITY PREDICTED BY RF-SCORE:    0.00 PKD
ROOT
HETATM    1  C   UNL     1      -9.506   4.913  70.552  1.00  0.00    -0.166 C  
HETATM    2  N   UNL     1     -10.216   6.163  70.336  1.00  0.00    -0.194 N  
HETATM    3  C   UNL     1     -11.348   6.116  69.416  1.00  0.00    -0.331 C  
HETATM    4  C   UNL     1     -10.038   7.163  71.317  1.00  0.00    -0.189 C  
HETATM    5  O   UNL     1      -9.342   6.942  72.308  1.00  0.00    -0.139 OA 
ENDROOT
BRANCH   4   6
HETATM    6  C   UNL     1     -10.658   8.466  71.091  1.00  0.00    -0.215 A  
HETATM    7  C   UNL     1     -11.791   8.953  71.729  1.00  0.00    -0.429 A  
HETATM    8  C   UNL     1     -12.054  10.253  71.281  1.00  0.00    -0.479 A  
HETATM    9  C   UNL     1     -12.971  11.242  71.591  1.00  0.00    -0.432 A  
HETATM   10  N   UNL     1     -12.997  12.374  70.864  1.00  0.00    -0.067 NA 
HETATM   11  C   UNL     1     -12.135  12.513  69.837  1.00  0.00    -0.252 A  
HETATM   12  N   UNL     1     -10.331   9.415  70.109  1.00  0.00    -0.215 NA 
HETATM   13  N   UNL     1     -11.168  11.632  69.510  1.00  0.00    -0.238 NA 
HETATM   14  C   UNL     1     -11.171  10.512  70.259  1.00  0.00    -0.313 A  
BRANCH  11  15
HETATM   15  N   UNL     1     -12.355  13.658  69.079  1.00  0.00    -0.311 NA 
HETATM   16  H   UNL     1     -13.245  13.668  68.579  1.00  0.00     0.000 HD 
BRANCH  15  17
HETATM   17  C   UNL     1     -11.576  14.789  68.885  1.00  0.00    -0.313 A  
HETATM   18  C   UNL     1     -11.068  15.159  67.653  1.00  0.00    -0.318 A  
HETATM   19  C   UNL     1     -10.322  16.332  67.518  1.00  0.00    -0.288 A  
HETATM   20  N   UNL     1     -11.327  15.539  69.977  1.00  0.00    -0.291 NA 
HETATM   21  C   UNL     1     -10.055  17.151  68.610  1.00  0.00    -0.329 A  
HETATM   22  C   UNL     1     -10.597  16.680  69.810  1.00  0.00    -0.227 A  
BRANCH  21  23
HETATM   23  N   UNL     1      -9.350  18.332  68.502  1.00  0.00    -0.313 NA 
HETATM   24  C   UNL     1      -8.015  18.382  67.880  1.00  0.00    -0.258 C  
HETATM   25  C   UNL     1      -8.065  19.191  66.560  1.00  0.00    -0.298 C  
HETATM   26  N   UNL     1      -8.645  20.541  66.710  1.00  0.00    -0.545 NA 
HETATM   27  C   UNL     1      -9.984  20.429  67.325  1.00  0.00    -0.424 C  
HETATM   28  H   UNL     1      -8.666  21.053  65.828  1.00  0.00     0.000 HD 
HETATM   29  C   UNL     1      -9.969  19.661  68.665  1.00  0.00    -0.458 C  
ENDBRANCH  21  23
ENDBRANCH  15  17
ENDBRANCH  11  15
BRANCH  12  30
HETATM   30  C   UNL     1      -9.335   9.271  69.050  1.00  0.00    -0.151 C  
HETATM   31  C   UNL     1      -8.771   9.475  66.716  1.00  0.00    -0.138 C  
HETATM   32  C   UNL     1      -8.290  10.398  68.928  1.00  0.00    -0.138 C  
HETATM   33  C   UNL     1      -8.038  10.602  67.429  1.00  0.00    -0.112 C  
HETATM   34  C   UNL     1      -9.929   9.132  67.640  1.00  0.00    -0.245 C  
ENDBRANCH  12  30
ENDBRANCH   4   6
TORSDOF 5
ENDMDL
MODEL       24
REMARK 921   NORMALIZED FREE ENERGY PREDICTED BY IDOCK:   -6.84 KCAL/MOL
REMARK 922        TOTAL FREE ENERGY PREDICTED BY IDOCK:   -9.73 KCAL/MOL
REMARK 923 INTER-LIGAND FREE ENERGY PREDICTED BY IDOCK:   -8.71 KCAL/MOL
REMARK 924 INTRA-LIGAND FREE ENERGY PREDICTED BY IDOCK:   -1.02 KCAL/MOL
REMARK 927      BINDING AFFINITY PREDICTED BY RF-SCORE:    0.00 PKD
ROOT
HETATM    1  C   UNL     1     -10.738  15.738  65.428  1.00  0.00    -0.404 C  
HETATM    2  N   UNL     1     -11.324  14.805  66.377  1.00  0.00    -0.348 N  
HETATM    3  C   UNL     1     -12.352  13.909  65.856  1.00  0.00    -0.483 C  
HETATM    4  C   UNL     1     -10.580  14.555  67.551  1.00  0.00    -0.262 C  
HETATM    5  O   UNL     1      -9.482  15.085  67.714  1.00  0.00    -0.193 OA 
ENDROOT
BRANCH   4   6
HETATM    6  C   UNL     1     -11.176  13.697  68.572  1.00  0.00    -0.280 A  
HETATM    7  C   UNL     1     -11.907  14.124  69.673  1.00  0.00    -0.379 A  
HETATM    8  C   UNL     1     -12.349  13.011  70.397  1.00  0.00    -0.351 A  
HETATM    9  C   UNL     1     -13.149  12.804  71.507  1.00  0.00    -0.286 A  
HETATM   10  N   UNL     1     -13.285  11.562  72.006  1.00  0.00    -0.462 NA 
HETATM   11  C   UNL     1     -12.624  10.545  71.418  1.00  0.00    -0.434 A  
HETATM   12  N   UNL     1     -11.020  12.310  68.727  1.00  0.00    -0.228 NA 
HETATM   13  N   UNL     1     -11.880  10.645  70.297  1.00  0.00    -0.312 NA 
HETATM   14  C   UNL     1     -11.768  11.903  69.826  1.00  0.00    -0.331 A  
BRANCH  11  15
HETATM   15  N   UNL     1     -12.730   9.342  72.107  1.00  0.00    -0.389 NA 
HETATM   16  H   UNL     1     -13.526   9.290  72.745  1.00  0.00     0.000 HD 
BRANCH  15  17
HETATM   17  C   UNL     1     -11.943   8.200  72.080  1.00  0.00    -0.340 A  
HETATM   18  C   UNL     1     -12.042   7.233  71.095  1.00  0.00    -0.376 A  
HETATM   19  C   UNL     1     -11.192   6.125  71.104  1.00  0.00    -0.355 A  
HETATM   20  N   UNL     1     -11.049   8.064  73.079  1.00  0.00    -0.335 NA 
HETATM   21  C   UNL     1     -10.238   5.950  72.102  1.00  0.00    -0.195 A  
HETATM   22  C   UNL     1     -10.233   6.971  73.057  1.00  0.00    -0.233 A  
BRANCH  21  23
HETATM   23  N   UNL     1      -9.364   4.884  72.119  1.00  0.00    -0.134 NA 
HETATM   24  C   UNL     1      -8.187   4.861  73.006  1.00  0.00    -0.101 C  
HETATM   25  C   UNL     1      -8.342   3.754  74.079  1.00  0.00    -0.090 C  
HETATM   26  N   UNL     1      -8.625   2.418  73.519  1.00  0.00    -0.063 NA 
HETATM   27  C   UNL     1      -9.817   2.497  72.650  1.00  0.00    -0.134 C  
HETATM   28  H   UNL     1      -8.722   1.707  74.244  1.00  0.00     0.000 HD 
HETATM   29  C   UNL     1      -9.685   3.565  71.542  1.00  0.00    -0.167 C  
ENDBRANCH  21  23
ENDBRANCH  15  17
ENDBRANCH  11  15
BRANCH  12  30
HETATM   30  C   UNL     1     -10.167  11.431  67.933  1.00  0.00    -0.182 C  
HETATM   31  C   UNL     1      -8.580   9.617  67.863  1.00  0.00    -0.122 C  
HETATM   32  C   UNL     1     -10.858  10.242  67.235  1.00  0.00    -0.312 C  
HETATM   33  C   UNL     1      -9.885   9.061  67.314  1.00  0.00    -0.252 C  
HETATM   34  C   UNL     1      -9.004  10.803  68.717  1.00  0.00    -0.171 C  
ENDBRANCH  12  30
ENDBRANCH   4   6
TORSDOF 5
ENDMDL
MODEL       25
REMARK 921   NORMALIZED FREE ENERGY PREDICTED BY IDOCK:   -6.84 KCAL/MOL
REMARK 922        TOTAL FREE ENERGY PREDICTED BY IDOCK:   -9.72 KCAL/MOL
REMARK 923 INTER-LIGAND FREE ENERGY PREDICTED BY IDOCK:   -8.93 KCAL/MOL
REMARK 924 INTRA-LIGAND FREE ENERGY PREDICTED BY IDOCK:   -0.79 KCAL/MOL
REMARK 927      BINDING AFFINITY PREDICTED BY RF-SCORE:    0.00 PKD
ROOT
HETATM    1  C   UNL     1      -8.457   4.366  67.813  1.00  0.00    -0.098 C  
HETATM    2  N   UNL     1      -8.617   5.809  67.866  1.00  0.00    -0.103 N  
HETATM    3  C   UNL     1      -7.390   6.597  67.925  1.00  0.00    -0.096 C  
HETATM    4  C   UNL     1      -9.861   6.318  67.434  1.00  0.00    -0.131 C  
HETATM    5  O   UNL     1     -10.728   5.556  67.005  1.00  0.00    -0.267 OA 
ENDROOT
BRANCH   4   6
HETATM    6  C   UNL     1     -10.097   7.754  67.558  1.00  0.00    -0.209 A  
HETATM    7  C   UNL     1      -9.997   8.691  66.538  1.00  0.00    -0.353 A  
HETATM    8  C   UNL     1     -10.340   9.954  67.032  1.00  0.00    -0.303 A  
HETATM    9  C   UNL     1     -10.490  11.222  66.496  1.00  0.00    -0.253 A  
HETATM   10  N   UNL     1     -10.740  12.262  67.311  1.00  0.00    -0.226 NA 
HETATM   11  C   UNL     1     -10.825  12.048  68.639  1.00  0.00    -0.237 A  
HETATM   12  N   UNL     1     -10.332   8.487  68.733  1.00  0.00    -0.217 NA 
HETATM   13  N   UNL     1     -10.759  10.841  69.238  1.00  0.00    -0.217 NA 
HETATM   14  C   UNL     1     -10.509   9.823  68.390  1.00  0.00    -0.218 A  
BRANCH  11  15
HETATM   15  N   UNL     1     -10.944  13.217  69.383  1.00  0.00    -0.450 NA 
HETATM   16  H   UNL     1     -11.377  13.092  70.298  1.00  0.00     0.000 HD 
BRANCH  15  17
HETATM   17  C   UNL     1     -10.575  14.523  69.096  1.00  0.00    -0.234 A  
HETATM   18  C   UNL     1      -9.260  14.932  68.974  1.00  0.00    -0.176 A  
HETATM   19  C   UNL     1      -8.957  16.255  68.645  1.00  0.00    -0.232 A  
HETATM   20  N   UNL     1     -11.580  15.407  68.935  1.00  0.00    -0.336 NA 
HETATM   21  C   UNL     1      -9.959  17.201  68.448  1.00  0.00    -0.310 A  
HETATM   22  C   UNL     1     -11.251  16.691  68.612  1.00  0.00    -0.235 A  
BRANCH  21  23
HETATM   23  N   UNL     1      -9.693  18.505  68.090  1.00  0.00    -0.322 NA 
HETATM   24  C   UNL     1      -8.313  18.999  67.935  1.00  0.00    -0.288 C  
HETATM   25  C   UNL     1      -8.029  19.350  66.452  1.00  0.00    -0.307 C  
HETATM   26  N   UNL     1      -9.009  20.283  65.863  1.00  0.00    -0.559 NA 
HETATM   27  C   UNL     1     -10.370  19.734  66.036  1.00  0.00    -0.511 C  
HETATM   28  H   UNL     1      -8.800  20.498  64.888  1.00  0.00     0.000 HD 
HETATM   29  C   UNL     1     -10.704  19.407  67.508  1.00  0.00    -0.453 C  
ENDBRANCH  21  23
ENDBRANCH  15  17
ENDBRANCH  11  15
BRANCH  12  30
HETATM   30  C   UNL     1     -10.322   7.976  70.101  1.00  0.00    -0.215 C  
HETATM   31  C   UNL     1      -9.876   8.362  72.438  1.00  0.00    -0.378 C  
HETATM   32  C   UNL     1     -11.676   7.947  70.837  1.00  0.00    -0.271 C  
HETATM   33  C   UNL     1     -11.390   8.321  72.296  1.00  0.00    -0.446 C  
HETATM   34  C   UNL     1      -9.375   8.729  71.049  1.00  0.00    -0.280 C  
ENDBRANCH  12  30
ENDBRANCH   4   6
TORSDOF 5
ENDMDL
MODEL       26
REMARK 921   NORMALIZED FREE ENERGY PREDICTED BY IDOCK:   -6.79 KCAL/MOL
REMARK 922        TOTAL FREE ENERGY PREDICTED BY IDOCK:   -9.66 KCAL/MOL
REMARK 923 INTER-LIGAND FREE ENERGY PREDICTED BY IDOCK:   -8.91 KCAL/MOL
REMARK 924 INTRA-LIGAND FREE ENERGY PREDICTED BY IDOCK:   -0.75 KCAL/MOL
REMARK 927      BINDING AFFINITY PREDICTED BY RF-SCORE:    0.00 PKD
ROOT
HETATM    1  C   UNL     1      -7.836   5.733  69.397  1.00  0.00    -0.093 C  
HETATM    2  N   UNL     1      -8.247   6.982  68.779  1.00  0.00    -0.121 N  
HETATM    3  C   UNL     1      -7.178   7.857  68.307  1.00  0.00    -0.090 C  
HETATM    4  C   UNL     1      -9.579   7.043  68.314  1.00  0.00    -0.134 C  
HETATM    5  O   UNL     1     -10.314   6.060  68.407  1.00  0.00    -0.166 OA 
ENDROOT
BRANCH   4   6
HETATM    6  C   UNL     1     -10.061   8.310  67.772  1.00  0.00    -0.206 A  
HETATM    7  C   UNL     1      -9.883   8.764  66.471  1.00  0.00    -0.349 A  
HETATM    8  C   UNL     1     -10.523   9.999  66.318  1.00  0.00    -0.172 A  
HETATM    9  C   UNL     1     -10.747  10.877  65.272  1.00  0.00    -0.124 A  
HETATM   10  N   UNL     1     -11.335  12.062  65.514  1.00  0.00    -0.341 NA 
HETATM   11  C   UNL     1     -11.681  12.375  66.779  1.00  0.00    -0.362 A  
HETATM   12  N   UNL     1     -10.665   9.369  68.469  1.00  0.00    -0.195 NA 
HETATM   13  N   UNL     1     -11.561  11.556  67.843  1.00  0.00    -0.478 NA 
HETATM   14  C   UNL     1     -10.970  10.378  67.562  1.00  0.00    -0.295 A  
BRANCH  11  15
HETATM   15  N   UNL     1     -12.147  13.678  66.920  1.00  0.00    -0.399 NA 
HETATM   16  H   UNL     1     -13.162  13.759  66.983  1.00  0.00     0.000 HD 
BRANCH  15  17
HETATM   17  C   UNL     1     -11.470  14.887  66.990  1.00  0.00    -0.326 A  
HETATM   18  C   UNL     1     -10.819  15.457  65.911  1.00  0.00    -0.328 A  
HETATM   19  C   UNL     1     -10.190  16.697  66.038  1.00  0.00    -0.366 A  
HETATM   20  N   UNL     1     -11.473  15.506  68.187  1.00  0.00    -0.341 NA 
HETATM   21  C   UNL     1     -10.182  17.386  67.247  1.00  0.00    -0.324 A  
HETATM   22  C   UNL     1     -10.850  16.717  68.277  1.00  0.00    -0.366 A  
BRANCH  21  23
HETATM   23  N   UNL     1      -9.598  18.626  67.395  1.00  0.00    -0.292 NA 
HETATM   24  C   UNL     1      -8.919  19.019  68.643  1.00  0.00    -0.363 C  
HETATM   25  C   UNL     1      -7.398  19.188  68.400  1.00  0.00    -0.298 C  
HETATM   26  N   UNL     1      -7.071  20.107  67.292  1.00  0.00    -0.246 NA 
HETATM   27  C   UNL     1      -7.766  19.660  66.067  1.00  0.00    -0.326 C  
HETATM   28  H   UNL     1      -6.065  20.201  67.153  1.00  0.00     0.000 HD 
HETATM   29  C   UNL     1      -9.292  19.516  66.260  1.00  0.00    -0.372 C  
ENDBRANCH  21  23
ENDBRANCH  15  17
ENDBRANCH  11  15
BRANCH  12  30
HETATM   30  C   UNL     1     -10.883   9.456  69.911  1.00  0.00    -0.236 C  
HETATM   31  C   UNL     1     -11.465   8.355  71.975  1.00  0.00    -0.418 C  
HETATM   32  C   UNL     1      -9.623   9.454  70.801  1.00  0.00    -0.322 C  
HETATM   33  C   UNL     1      -9.972   8.639  72.052  1.00  0.00    -0.399 C  
HETATM   34  C   UNL     1     -11.771   8.341  70.484  1.00  0.00    -0.067 C  
ENDBRANCH  12  30
ENDBRANCH   4   6
TORSDOF 5
ENDMDL
MODEL       27
REMARK 921   NORMALIZED FREE ENERGY PREDICTED BY IDOCK:   -6.63 KCAL/MOL
REMARK 922        TOTAL FREE ENERGY PREDICTED BY IDOCK:   -9.45 KCAL/MOL
REMARK 923 INTER-LIGAND FREE ENERGY PREDICTED BY IDOCK:   -8.64 KCAL/MOL
REMARK 924 INTRA-LIGAND FREE ENERGY PREDICTED BY IDOCK:   -0.82 KCAL/MOL
REMARK 927      BINDING AFFINITY PREDICTED BY RF-SCORE:    0.00 PKD
ROOT
HETATM    1  C   UNL     1      -8.565   3.543  67.347  1.00  0.00    -0.102 C  
HETATM    2  N   UNL     1      -9.133   4.812  66.924  1.00  0.00    -0.114 N  
HETATM    3  C   UNL     1     -10.417   4.751  66.232  1.00  0.00    -0.269 C  
HETATM    4  C   UNL     1      -8.641   5.967  67.571  1.00  0.00    -0.102 C  
HETATM    5  O   UNL     1      -7.803   5.865  68.468  1.00  0.00    -0.099 OA 
ENDROOT
BRANCH   4   6
HETATM    6  C   UNL     1      -9.117   7.268  67.111  1.00  0.00    -0.130 A  
HETATM    7  C   UNL     1      -8.699   7.934  65.966  1.00  0.00    -0.182 A  
HETATM    8  C   UNL     1      -9.412   9.130  65.837  1.00  0.00    -0.326 A  
HETATM    9  C   UNL     1      -9.485  10.146  64.900  1.00  0.00    -0.289 A  
HETATM   10  N   UNL     1     -10.231  11.235  65.157  1.00  0.00    -0.274 NA 
HETATM   11  C   UNL     1     -10.883  11.319  66.333  1.00  0.00    -0.251 A  
HETATM   12  N   UNL     1      -9.969   8.159  67.784  1.00  0.00    -0.170 NA 
HETATM   13  N   UNL     1     -10.922  10.351  67.272  1.00  0.00    -0.274 NA 
HETATM   14  C   UNL     1     -10.164   9.276  66.980  1.00  0.00    -0.262 A  
BRANCH  11  15
HETATM   15  N   UNL     1     -11.501  12.548  66.539  1.00  0.00    -0.341 NA 
HETATM   16  H   UNL     1     -12.467  12.486  66.862  1.00  0.00     0.000 HD 
BRANCH  15  17
HETATM   17  C   UNL     1     -11.032  13.844  66.380  1.00  0.00    -0.303 A  
HETATM   18  C   UNL     1     -11.250  14.597  65.241  1.00  0.00    -0.358 A  
HETATM   19  C   UNL     1     -10.784  15.911  65.160  1.00  0.00    -0.449 A  
HETATM   20  N   UNL     1     -10.334  14.359  67.412  1.00  0.00    -0.251 NA 
HETATM   21  C   UNL     1     -10.076  16.495  66.206  1.00  0.00    -0.333 A  
HETATM   22  C   UNL     1      -9.894  15.646  67.302  1.00  0.00    -0.225 A  
BRANCH  21  23
HETATM   23  N   UNL     1      -9.632  17.800  66.169  1.00  0.00    -0.502 NA 
HETATM   24  C   UNL     1     -10.536  18.916  65.838  1.00  0.00    -0.391 C  
HETATM   25  C   UNL     1     -10.733  19.833  67.072  1.00  0.00    -0.418 C  
HETATM   26  N   UNL     1      -9.470  20.315  67.664  1.00  0.00    -0.380 NA 
HETATM   27  C   UNL     1      -8.610  19.157  67.985  1.00  0.00    -0.310 C  
HETATM   28  H   UNL     1      -9.626  20.916  68.473  1.00  0.00     0.000 HD 
HETATM   29  C   UNL     1      -8.359  18.238  66.770  1.00  0.00    -0.255 C  
ENDBRANCH  21  23
ENDBRANCH  15  17
ENDBRANCH  11  15
BRANCH  12  30
HETATM   30  C   UNL     1     -10.513   8.002  69.131  1.00  0.00    -0.208 C  
HETATM   31  C   UNL     1     -11.105   6.538  70.953  1.00  0.00    -0.345 C  
HETATM   32  C   UNL     1      -9.561   8.318  70.302  1.00  0.00    -0.169 C  
HETATM   33  C   UNL     1      -9.864   7.295  71.402  1.00  0.00    -0.191 C  
HETATM   34  C   UNL     1     -11.053   6.595  69.433  1.00  0.00    -0.365 C  
ENDBRANCH  12  30
ENDBRANCH   4   6
TORSDOF 5
ENDMDL
MODEL       28
REMARK 921   NORMALIZED FREE ENERGY PREDICTED BY IDOCK:   -6.61 KCAL/MOL
REMARK 922        TOTAL FREE ENERGY PREDICTED BY IDOCK:   -9.44 KCAL/MOL
REMARK 923 INTER-LIGAND FREE ENERGY PREDICTED BY IDOCK:   -8.76 KCAL/MOL
REMARK 924 INTRA-LIGAND FREE ENERGY PREDICTED BY IDOCK:   -0.67 KCAL/MOL
REMARK 927      BINDING AFFINITY PREDICTED BY RF-SCORE:    0.00 PKD
ROOT
HETATM    1  C   UNL     1      -9.295   3.470  70.300  1.00  0.00    -0.172 C  
HETATM    2  N   UNL     1      -9.867   4.691  70.843  1.00  0.00    -0.190 N  
HETATM    3  C   UNL     1      -9.328   5.148  72.120  1.00  0.00    -0.139 C  
HETATM    4  C   UNL     1     -10.545   5.527  69.928  1.00  0.00    -0.317 C  
HETATM    5  O   UNL     1     -10.598   5.227  68.736  1.00  0.00    -0.160 OA 
ENDROOT
BRANCH   4   6
HETATM    6  C   UNL     1     -11.213   6.716  70.449  1.00  0.00    -0.344 A  
HETATM    7  C   UNL     1     -12.420   6.740  71.138  1.00  0.00    -0.351 A  
HETATM    8  C   UNL     1     -12.714   8.056  71.513  1.00  0.00    -0.325 A  
HETATM    9  C   UNL     1     -13.705   8.678  72.252  1.00  0.00    -0.395 A  
HETATM   10  N   UNL     1     -13.733  10.020  72.328  1.00  0.00    -0.234 NA 
HETATM   11  C   UNL     1     -12.798  10.733  71.668  1.00  0.00    -0.457 A  
HETATM   12  N   UNL     1     -10.858   8.060  70.247  1.00  0.00    -0.241 NA 
HETATM   13  N   UNL     1     -11.761  10.209  70.983  1.00  0.00    -0.366 NA 
HETATM   14  C   UNL     1     -11.766   8.863  70.929  1.00  0.00    -0.267 A  
BRANCH  11  15
HETATM   15  N   UNL     1     -13.017  12.106  71.708  1.00  0.00    -0.380 NA 
HETATM   16  H   UNL     1     -13.643  12.412  72.453  1.00  0.00     0.000 HD 
BRANCH  15  17
HETATM   17  C   UNL     1     -12.532  13.132  70.909  1.00  0.00    -0.323 A  
HETATM   18  C   UNL     1     -12.399  14.437  71.347  1.00  0.00    -0.433 A  
HETATM   19  C   UNL     1     -11.867  15.415  70.504  1.00  0.00    -0.373 A  
HETATM   20  N   UNL     1     -12.182  12.797  69.652  1.00  0.00    -0.187 NA 
HETATM   21  C   UNL     1     -11.472  15.116  69.204  1.00  0.00    -0.306 A  
HETATM   22  C   UNL     1     -11.664  13.776  68.855  1.00  0.00    -0.336 A  
BRANCH  21  23
HETATM   23  N   UNL     1     -10.913  16.053  68.361  1.00  0.00    -0.315 NA 
HETATM   24  C   UNL     1     -10.223  17.248  68.879  1.00  0.00    -0.349 C  
HETATM   25  C   UNL     1      -8.711  17.183  68.549  1.00  0.00    -0.261 C  
HETATM   26  N   UNL     1      -8.422  16.967  67.118  1.00  0.00    -0.196 NA 
HETATM   27  C   UNL     1      -9.127  15.754  66.656  1.00  0.00    -0.268 C  
HETATM   28  H   UNL     1      -7.420  16.929  66.927  1.00  0.00     0.000 HD 
HETATM   29  C   UNL     1     -10.645  15.797  66.933  1.00  0.00    -0.317 C  
ENDBRANCH  21  23
ENDBRANCH  15  17
ENDBRANCH  11  15
BRANCH  12  30
HETATM   30  C   UNL     1      -9.773   8.562  69.409  1.00  0.00    -0.177 C  
HETATM   31  C   UNL     1      -7.591   8.218  68.443  1.00  0.00    -0.101 C  
HETATM   32  C   UNL     1      -9.962   8.432  67.884  1.00  0.00    -0.228 C  
HETATM   33  C   UNL     1      -8.587   8.087  67.300  1.00  0.00    -0.124 C  
HETATM   34  C   UNL     1      -8.407   7.918  69.692  1.00  0.00    -0.131 C  
ENDBRANCH  12  30
ENDBRANCH   4   6
TORSDOF 5
ENDMDL
MODEL       29
REMARK 921   NORMALIZED FREE ENERGY PREDICTED BY IDOCK:   -6.59 KCAL/MOL
REMARK 922        TOTAL FREE ENERGY PREDICTED BY IDOCK:   -9.40 KCAL/MOL
REMARK 923 INTER-LIGAND FREE ENERGY PREDICTED BY IDOCK:   -9.46 KCAL/MOL
REMARK 924 INTRA-LIGAND FREE ENERGY PREDICTED BY IDOCK:    0.06 KCAL/MOL
REMARK 927      BINDING AFFINITY PREDICTED BY RF-SCORE:    0.00 PKD
ROOT
HETATM    1  C   UNL     1     -10.218   6.628  72.571  1.00  0.00    -0.182 C  
HETATM    2  N   UNL     1      -9.926   7.452  71.410  1.00  0.00    -0.186 N  
HETATM    3  C   UNL     1      -8.532   7.849  71.230  1.00  0.00    -0.117 C  
HETATM    4  C   UNL     1     -10.881   7.432  70.370  1.00  0.00    -0.243 C  
HETATM    5  O   UNL     1     -11.878   6.716  70.458  1.00  0.00    -0.390 OA 
ENDROOT
BRANCH   4   6
HETATM    6  C   UNL     1     -10.671   8.317  69.228  1.00  0.00    -0.128 A  
HETATM    7  C   UNL     1     -10.110   7.959  68.008  1.00  0.00    -0.235 A  
HETATM    8  C   UNL     1     -10.117   9.065  67.151  1.00  0.00    -0.309 A  
HETATM    9  C   UNL     1      -9.769   9.300  65.833  1.00  0.00    -0.285 A  
HETATM   10  N   UNL     1      -9.813  10.554  65.347  1.00  0.00    -0.254 NA 
HETATM   11  C   UNL     1     -10.184  11.560  66.165  1.00  0.00    -0.232 A  
HETATM   12  N   UNL     1     -10.858   9.708  69.172  1.00  0.00    -0.214 NA 
HETATM   13  N   UNL     1     -10.602  11.412  67.438  1.00  0.00    -0.208 NA 
HETATM   14  C   UNL     1     -10.545  10.144  67.889  1.00  0.00    -0.249 A  
BRANCH  11  15
HETATM   15  N   UNL     1     -10.053  12.819  65.589  1.00  0.00    -0.276 NA 
HETATM   16  H   UNL     1     -10.049  12.818  64.569  1.00  0.00     0.000 HD 
BRANCH  15  17
HETATM   17  C   UNL     1      -9.926  14.076  66.162  1.00  0.00    -0.312 A  
HETATM   18  C   UNL     1      -8.833  14.460  66.918  1.00  0.00    -0.246 A  
HETATM   19  C   UNL     1      -8.749  15.755  67.434  1.00  0.00    -0.199 A  
HETATM   20  N   UNL     1     -10.939  14.938  65.945  1.00  0.00    -0.331 NA 
HETATM   21  C   UNL     1      -9.759  16.688  67.220  1.00  0.00    -0.245 A  
HETATM   22  C   UNL     1     -10.825  16.196  66.461  1.00  0.00    -0.139 A  
BRANCH  21  23
HETATM   23  N   UNL     1      -9.689  17.983  67.689  1.00  0.00    -0.284 NA 
HETATM   24  C   UNL     1      -8.465  18.515  68.314  1.00  0.00    -0.318 C  
HETATM   25  C   UNL     1      -7.845  19.623  67.426  1.00  0.00    -0.267 C  
HETATM   26  N   UNL     1      -8.788  20.703  67.074  1.00  0.00    -0.569 NA 
HETATM   27  C   UNL     1      -9.987  20.115  66.443  1.00  0.00    -0.448 C  
HETATM   28  H   UNL     1      -8.356  21.420  66.491  1.00  0.00     0.000 HD 
HETATM   29  C   UNL     1     -10.657  19.031  67.316  1.00  0.00    -0.470 C  
ENDBRANCH  21  23
ENDBRANCH  15  17
ENDBRANCH  11  15
BRANCH  12  30
HETATM   30  C   UNL     1     -11.240  10.584  70.276  1.00  0.00    -0.313 C  
HETATM   31  C   UNL     1     -12.622  12.384  71.090  1.00  0.00    -0.349 C  
HETATM   32  C   UNL     1     -12.193   9.990  71.333  1.00  0.00    -0.510 C  
HETATM   33  C   UNL     1     -13.148  11.116  71.745  1.00  0.00    -0.536 C  
HETATM   34  C   UNL     1     -11.910  11.896  69.837  1.00  0.00    -0.418 C  
ENDBRANCH  12  30
ENDBRANCH   4   6
TORSDOF 5
ENDMDL
MODEL       30
REMARK 921   NORMALIZED FREE ENERGY PREDICTED BY IDOCK:   -6.58 KCAL/MOL
REMARK 922        TOTAL FREE ENERGY PREDICTED BY IDOCK:   -9.40 KCAL/MOL
REMARK 923 INTER-LIGAND FREE ENERGY PREDICTED BY IDOCK:   -8.51 KCAL/MOL
REMARK 924 INTRA-LIGAND FREE ENERGY PREDICTED BY IDOCK:   -0.89 KCAL/MOL
REMARK 927      BINDING AFFINITY PREDICTED BY RF-SCORE:    0.00 PKD
ROOT
HETATM    1  C   UNL     1      -8.670   4.815  73.511  1.00  0.00    -0.104 C  
HETATM    2  N   UNL     1      -9.456   5.752  72.727  1.00  0.00    -0.145 N  
HETATM    3  C   UNL     1     -10.379   5.173  71.756  1.00  0.00    -0.209 C  
HETATM    4  C   UNL     1      -9.578   7.059  73.249  1.00  0.00    -0.177 C  
HETATM    5  O   UNL     1      -9.066   7.344  74.331  1.00  0.00    -0.211 OA 
ENDROOT
BRANCH   4   6
HETATM    6  C   UNL     1     -10.280   8.056  72.447  1.00  0.00    -0.280 A  
HETATM    7  C   UNL     1     -11.619   8.407  72.566  1.00  0.00    -0.426 A  
HETATM    8  C   UNL     1     -11.914   9.429  71.657  1.00  0.00    -0.465 A  
HETATM    9  C   UNL     1     -13.020  10.209  71.367  1.00  0.00    -0.429 A  
HETATM   10  N   UNL     1     -12.980  11.056  70.323  1.00  0.00    -0.100 NA 
HETATM   11  C   UNL     1     -11.862  11.116  69.571  1.00  0.00    -0.353 A  
HETATM   12  N   UNL     1      -9.799   8.750  71.325  1.00  0.00    -0.239 NA 
HETATM   13  N   UNL     1     -10.720  10.444  69.821  1.00  0.00    -0.267 NA 
HETATM   14  C   UNL     1     -10.798   9.606  70.874  1.00  0.00    -0.339 A  
BRANCH  11  15
HETATM   15  N   UNL     1     -11.995  11.919  68.443  1.00  0.00    -0.453 NA 
HETATM   16  H   UNL     1     -12.537  11.499  67.688  1.00  0.00     0.000 HD 
BRANCH  15  17
HETATM   17  C   UNL     1     -11.518  13.192  68.167  1.00  0.00    -0.314 A  
HETATM   18  C   UNL     1     -11.955  14.327  68.826  1.00  0.00    -0.346 A  
HETATM   19  C   UNL     1     -11.405  15.575  68.527  1.00  0.00    -0.356 A  
HETATM   20  N   UNL     1     -10.580  13.284  67.203  1.00  0.00    -0.258 NA 
HETATM   21  C   UNL     1     -10.420  15.720  67.555  1.00  0.00    -0.288 A  
HETATM   22  C   UNL     1     -10.062  14.518  66.937  1.00  0.00    -0.257 A  
BRANCH  21  23
HETATM   23  N   UNL     1      -9.835  16.934  67.261  1.00  0.00    -0.259 NA 
HETATM   24  C   UNL     1     -10.493  17.919  66.385  1.00  0.00    -0.317 C  
HETATM   25  C   UNL     1     -10.888  19.180  67.194  1.00  0.00    -0.410 C  
HETATM   26  N   UNL     1      -9.768  19.783  67.942  1.00  0.00    -0.370 NA 
HETATM   27  C   UNL     1      -9.154  18.757  68.810  1.00  0.00    -0.293 C  
HETATM   28  H   UNL     1     -10.053  20.612  68.464  1.00  0.00     0.000 HD 
HETATM   29  C   UNL     1      -8.712  17.498  68.033  1.00  0.00    -0.254 C  
ENDBRANCH  21  23
ENDBRANCH  15  17
ENDBRANCH  11  15
BRANCH  12  30
HETATM   30  C   UNL     1      -8.504   8.571  70.673  1.00  0.00    -0.146 C  
HETATM   31  C   UNL     1      -7.261   8.102  68.662  1.00  0.00    -0.084 C  
HETATM   32  C   UNL     1      -7.735   9.854  70.299  1.00  0.00    -0.160 C  
HETATM   33  C   UNL     1      -7.054   9.581  68.953  1.00  0.00    -0.067 C  
HETATM   34  C   UNL     1      -8.560   7.754  69.373  1.00  0.00    -0.135 C  
ENDBRANCH  12  30
ENDBRANCH   4   6
TORSDOF 5
ENDMDL
MODEL       31
REMARK 921   NORMALIZED FREE ENERGY PREDICTED BY IDOCK:   -6.55 KCAL/MOL
REMARK 922        TOTAL FREE ENERGY PREDICTED BY IDOCK:   -9.36 KCAL/MOL
REMARK 923 INTER-LIGAND FREE ENERGY PREDICTED BY IDOCK:   -8.44 KCAL/MOL
REMARK 924 INTRA-LIGAND FREE ENERGY PREDICTED BY IDOCK:   -0.92 KCAL/MOL
REMARK 927      BINDING AFFINITY PREDICTED BY RF-SCORE:    0.00 PKD
ROOT
HETATM    1  C   UNL     1      -5.378   7.472  63.771  1.00  0.00    -0.033 C  
HETATM    2  N   UNL     1      -6.321   8.566  63.926  1.00  0.00    -0.072 N  
HETATM    3  C   UNL     1      -5.837   9.897  63.568  1.00  0.00    -0.116 C  
HETATM    4  C   UNL     1      -7.687   8.214  63.983  1.00  0.00    -0.137 C  
HETATM    5  O   UNL     1      -8.029   7.037  63.868  1.00  0.00    -0.123 OA 
ENDROOT
BRANCH   4   6
HETATM    6  C   UNL     1      -8.661   9.273  64.231  1.00  0.00    -0.193 A  
HETATM    7  C   UNL     1      -9.358   9.986  63.264  1.00  0.00    -0.296 A  
HETATM    8  C   UNL     1     -10.230  10.885  63.888  1.00  0.00    -0.418 A  
HETATM    9  C   UNL     1     -11.198  11.781  63.468  1.00  0.00    -0.408 A  
HETATM   10  N   UNL     1     -11.793  12.585  64.368  1.00  0.00    -0.363 NA 
HETATM   11  C   UNL     1     -11.422  12.508  65.661  1.00  0.00    -0.359 A  
HETATM   12  N   UNL     1      -8.983   9.874  65.459  1.00  0.00    -0.162 NA 
HETATM   13  N   UNL     1     -10.540  11.622  66.166  1.00  0.00    -0.253 NA 
HETATM   14  C   UNL     1      -9.965  10.833  65.236  1.00  0.00    -0.282 A  
BRANCH  11  15
HETATM   15  N   UNL     1     -12.004  13.484  66.464  1.00  0.00    -0.400 NA 
HETATM   16  H   UNL     1     -12.963  13.280  66.747  1.00  0.00     0.000 HD 
BRANCH  15  17
HETATM   17  C   UNL     1     -11.507  14.686  66.947  1.00  0.00    -0.363 A  
HETATM   18  C   UNL     1     -11.566  15.052  68.279  1.00  0.00    -0.355 A  
HETATM   19  C   UNL     1     -11.012  16.260  68.706  1.00  0.00    -0.343 A  
HETATM   20  N   UNL     1     -10.944  15.508  66.040  1.00  0.00    -0.292 NA 
HETATM   21  C   UNL     1     -10.401  17.135  67.812  1.00  0.00    -0.347 A  
HETATM   22  C   UNL     1     -10.410  16.680  66.490  1.00  0.00    -0.299 A  
BRANCH  21  23
HETATM   23  N   UNL     1      -9.816  18.318  68.209  1.00  0.00    -0.330 NA 
HETATM   24  C   UNL     1      -8.356  18.447  68.363  1.00  0.00    -0.308 C  
HETATM   25  C   UNL     1      -7.786  19.420  67.300  1.00  0.00    -0.257 C  
HETATM   26  N   UNL     1      -8.448  20.739  67.283  1.00  0.00    -0.499 NA 
HETATM   27  C   UNL     1      -9.904  20.551  67.115  1.00  0.00    -0.426 C  
HETATM   28  H   UNL     1      -8.055  21.360  66.576  1.00  0.00     0.000 HD 
HETATM   29  C   UNL     1     -10.517  19.616  68.181  1.00  0.00    -0.376 C  
ENDBRANCH  21  23
ENDBRANCH  15  17
ENDBRANCH  11  15
BRANCH  12  30
HETATM   30  C   UNL     1      -8.359   9.611  66.753  1.00  0.00    -0.117 C  
HETATM   31  C   UNL     1      -7.495  10.471  68.833  1.00  0.00    -0.104 C  
HETATM   32  C   UNL     1      -9.286   9.108  67.878  1.00  0.00    -0.144 C  
HETATM   33  C   UNL     1      -8.799   9.767  69.174  1.00  0.00    -0.160 C  
HETATM   34  C   UNL     1      -7.628  10.820  67.357  1.00  0.00    -0.099 C  
ENDBRANCH  12  30
ENDBRANCH   4   6
TORSDOF 5
ENDMDL
MODEL       32
REMARK 921   NORMALIZED FREE ENERGY PREDICTED BY IDOCK:   -6.53 KCAL/MOL
REMARK 922        TOTAL FREE ENERGY PREDICTED BY IDOCK:   -9.33 KCAL/MOL
REMARK 923 INTER-LIGAND FREE ENERGY PREDICTED BY IDOCK:   -8.33 KCAL/MOL
REMARK 924 INTRA-LIGAND FREE ENERGY PREDICTED BY IDOCK:   -1.00 KCAL/MOL
REMARK 927      BINDING AFFINITY PREDICTED BY RF-SCORE:    0.00 PKD
ROOT
HETATM    1  C   UNL     1      -7.198  20.921  66.862  1.00  0.00    -0.243 C  
HETATM    2  N   UNL     1      -7.649  19.611  66.421  1.00  0.00    -0.274 N  
HETATM    3  C   UNL     1      -6.646  18.756  65.794  1.00  0.00    -0.261 C  
HETATM    4  C   UNL     1      -8.843  19.131  67.001  1.00  0.00    -0.295 C  
HETATM    5  O   UNL     1      -9.426  19.794  67.859  1.00  0.00    -0.331 OA 
ENDROOT
BRANCH   4   6
HETATM    6  C   UNL     1      -9.381  17.862  66.517  1.00  0.00    -0.280 A  
HETATM    7  C   UNL     1     -10.436  17.708  65.627  1.00  0.00    -0.150 A  
HETATM    8  C   UNL     1     -10.631  16.346  65.370  1.00  0.00    -0.338 A  
HETATM    9  C   UNL     1     -11.454  15.601  64.544  1.00  0.00    -0.300 A  
HETATM   10  N   UNL     1     -11.443  14.258  64.631  1.00  0.00    -0.382 NA 
HETATM   11  C   UNL     1     -10.636  13.668  65.535  1.00  0.00    -0.296 A  
HETATM   12  N   UNL     1      -9.046  16.568  66.946  1.00  0.00    -0.211 NA 
HETATM   13  N   UNL     1      -9.756  14.311  66.329  1.00  0.00    -0.296 NA 
HETATM   14  C   UNL     1      -9.795  15.653  66.214  1.00  0.00    -0.295 A  
BRANCH  11  15
HETATM   15  N   UNL     1     -10.819  12.292  65.627  1.00  0.00    -0.276 NA 
HETATM   16  H   UNL     1     -10.982  11.828  64.733  1.00  0.00     0.000 HD 
BRANCH  15  17
HETATM   17  C   UNL     1     -10.820  11.442  66.723  1.00  0.00    -0.286 A  
HETATM   18  C   UNL     1      -9.962  10.364  66.848  1.00  0.00    -0.254 A  
HETATM   19  C   UNL     1      -9.988   9.569  67.996  1.00  0.00    -0.198 A  
HETATM   20  N   UNL     1     -11.715  11.715  67.693  1.00  0.00    -0.574 NA 
HETATM   21  C   UNL     1     -10.879   9.823  69.034  1.00  0.00    -0.199 A  
HETATM   22  C   UNL     1     -11.712  10.921  68.802  1.00  0.00    -0.286 A  
BRANCH  21  23
HETATM   23  N   UNL     1     -10.905   9.076  70.193  1.00  0.00    -0.234 NA 
HETATM   24  C   UNL     1     -11.915   9.307  71.241  1.00  0.00    -0.340 C  
HETATM   25  C   UNL     1     -12.866   8.089  71.352  1.00  0.00    -0.269 C  
HETATM   26  N   UNL     1     -12.167   6.803  71.546  1.00  0.00    -0.356 NA 
HETATM   27  C   UNL     1     -11.177   6.619  70.465  1.00  0.00    -0.334 C  
HETATM   28  H   UNL     1     -12.814   6.018  71.617  1.00  0.00     0.000 HD 
HETATM   29  C   UNL     1     -10.186   7.797  70.348  1.00  0.00    -0.197 C  
ENDBRANCH  21  23
ENDBRANCH  15  17
ENDBRANCH  11  15
BRANCH  12  30
HETATM   30  C   UNL     1      -8.129  16.213  68.026  1.00  0.00    -0.146 C  
HETATM   31  C   UNL     1      -7.594  14.767  69.879  1.00  0.00     0.113 C  
HETATM   32  C   UNL     1      -6.876  15.405  67.631  1.00  0.00    -0.208 C  
HETATM   33  C   UNL     1      -6.626  14.402  68.763  1.00  0.00    -0.090 C  
HETATM   34  C   UNL     1      -8.775  15.406  69.163  1.00  0.00    -0.242 C  
ENDBRANCH  12  30
ENDBRANCH   4   6
TORSDOF 5
ENDMDL
MODEL       33
REMARK 921   NORMALIZED FREE ENERGY PREDICTED BY IDOCK:   -6.49 KCAL/MOL
REMARK 922        TOTAL FREE ENERGY PREDICTED BY IDOCK:   -9.27 KCAL/MOL
REMARK 923 INTER-LIGAND FREE ENERGY PREDICTED BY IDOCK:   -8.82 KCAL/MOL
REMARK 924 INTRA-LIGAND FREE ENERGY PREDICTED BY IDOCK:   -0.46 KCAL/MOL
REMARK 927      BINDING AFFINITY PREDICTED BY RF-SCORE:    0.00 PKD
ROOT
HETATM    1  C   UNL     1     -13.251  15.550  73.424  1.00  0.00    -0.481 C  
HETATM    2  N   UNL     1     -12.598  14.927  72.285  1.00  0.00    -0.321 N  
HETATM    3  C   UNL     1     -11.287  15.454  71.920  1.00  0.00    -0.384 C  
HETATM    4  C   UNL     1     -13.060  13.643  71.922  1.00  0.00    -0.387 C  
HETATM    5  O   UNL     1     -13.945  13.094  72.578  1.00  0.00    -0.676 OA 
ENDROOT
BRANCH   4   6
HETATM    6  C   UNL     1     -12.496  13.021  70.727  1.00  0.00    -0.302 A  
HETATM    7  C   UNL     1     -12.322  13.632  69.492  1.00  0.00    -0.232 A  
HETATM    8  C   UNL     1     -11.711  12.732  68.611  1.00  0.00    -0.360 A  
HETATM    9  C   UNL     1     -11.239  12.784  67.311  1.00  0.00    -0.295 A  
HETATM   10  N   UNL     1     -10.787  11.661  66.723  1.00  0.00    -0.264 NA 
HETATM   11  C   UNL     1     -10.818  10.503  67.413  1.00  0.00    -0.291 A  
HETATM   12  N   UNL     1     -12.149  11.673  70.542  1.00  0.00    -0.377 NA 
HETATM   13  N   UNL     1     -11.198  10.376  68.701  1.00  0.00    -0.260 NA 
HETATM   14  C   UNL     1     -11.643  11.520  69.256  1.00  0.00    -0.322 A  
BRANCH  11  15
HETATM   15  N   UNL     1     -10.460   9.395  66.653  1.00  0.00    -0.208 NA 
HETATM   16  H   UNL     1     -10.524   9.537  65.645  1.00  0.00     0.000 HD 
BRANCH  15  17
HETATM   17  C   UNL     1     -10.031   8.130  67.028  1.00  0.00    -0.259 A  
HETATM   18  C   UNL     1     -10.868   7.031  67.087  1.00  0.00    -0.427 A  
HETATM   19  C   UNL     1     -10.365   5.776  67.434  1.00  0.00    -0.279 A  
HETATM   20  N   UNL     1      -8.726   8.009  67.340  1.00  0.00    -0.124 NA 
HETATM   21  C   UNL     1      -9.021   5.594  67.745  1.00  0.00    -0.107 A  
HETATM   22  C   UNL     1      -8.265   6.768  67.674  1.00  0.00    -0.119 A  
BRANCH  21  23
HETATM   23  N   UNL     1      -8.488   4.361  68.060  1.00  0.00    -0.094 NA 
HETATM   24  C   UNL     1      -7.052   4.187  68.342  1.00  0.00    -0.055 C  
HETATM   25  C   UNL     1      -6.838   3.796  69.826  1.00  0.00    -0.041 C  
HETATM   26  N   UNL     1      -7.621   2.619  70.251  1.00  0.00    -0.043 NA 
HETATM   27  C   UNL     1      -9.050   2.853  69.956  1.00  0.00    -0.123 C  
HETATM   28  H   UNL     1      -7.462   2.382  71.230  1.00  0.00     0.000 HD 
HETATM   29  C   UNL     1      -9.309   3.208  68.476  1.00  0.00    -0.177 C  
ENDBRANCH  21  23
ENDBRANCH  15  17
ENDBRANCH  11  15
BRANCH  12  30
HETATM   30  C   UNL     1     -12.345  10.580  71.491  1.00  0.00    -0.341 C  
HETATM   31  C   UNL     1     -13.389   8.471  72.014  1.00  0.00    -0.397 C  
HETATM   32  C   UNL     1     -11.227   9.521  71.566  1.00  0.00    -0.437 C  
HETATM   33  C   UNL     1     -11.918   8.168  71.770  1.00  0.00    -0.348 C  
HETATM   34  C   UNL     1     -13.635   9.776  71.270  1.00  0.00    -0.285 C  
ENDBRANCH  12  30
ENDBRANCH   4   6
TORSDOF 5
ENDMDL
MODEL       34
REMARK 921   NORMALIZED FREE ENERGY PREDICTED BY IDOCK:   -6.47 KCAL/MOL
REMARK 922        TOTAL FREE ENERGY PREDICTED BY IDOCK:   -9.25 KCAL/MOL
REMARK 923 INTER-LIGAND FREE ENERGY PREDICTED BY IDOCK:   -8.39 KCAL/MOL
REMARK 924 INTRA-LIGAND FREE ENERGY PREDICTED BY IDOCK:   -0.86 KCAL/MOL
REMARK 927      BINDING AFFINITY PREDICTED BY RF-SCORE:    0.00 PKD
ROOT
HETATM    1  C   UNL     1      -8.521   5.398  66.813  1.00  0.00    -0.107 C  
HETATM    2  N   UNL     1      -9.355   6.486  67.295  1.00  0.00    -0.119 N  
HETATM    3  C   UNL     1     -10.783   6.386  67.009  1.00  0.00    -0.363 C  
HETATM    4  C   UNL     1      -8.811   7.285  68.324  1.00  0.00    -0.127 C  
HETATM    5  O   UNL     1      -7.704   7.024  68.792  1.00  0.00    -0.105 OA 
ENDROOT
BRANCH   4   6
HETATM    6  C   UNL     1      -9.577   8.445  68.771  1.00  0.00    -0.149 A  
HETATM    7  C   UNL     1     -10.470   8.475  69.835  1.00  0.00    -0.219 A  
HETATM    8  C   UNL     1     -10.974   9.773  69.982  1.00  0.00    -0.319 A  
HETATM    9  C   UNL     1     -11.815  10.415  70.875  1.00  0.00    -0.377 A  
HETATM   10  N   UNL     1     -12.175  11.690  70.647  1.00  0.00    -0.384 NA 
HETATM   11  C   UNL     1     -11.718  12.313  69.542  1.00  0.00    -0.332 A  
HETATM   12  N   UNL     1      -9.676   9.701  68.150  1.00  0.00    -0.144 NA 
HETATM   13  N   UNL     1     -10.845  11.787  68.659  1.00  0.00    -0.210 NA 
HETATM   14  C   UNL     1     -10.506  10.509  68.919  1.00  0.00    -0.206 A  
BRANCH  11  15
HETATM   15  N   UNL     1     -12.273  13.573  69.346  1.00  0.00    -0.278 NA 
HETATM   16  H   UNL     1     -13.293  13.589  69.344  1.00  0.00     0.000 HD 
BRANCH  15  17
HETATM   17  C   UNL     1     -11.680  14.812  69.153  1.00  0.00    -0.313 A  
HETATM   18  C   UNL     1     -11.362  15.673  70.188  1.00  0.00    -0.354 A  
HETATM   19  C   UNL     1     -10.730  16.890  69.928  1.00  0.00    -0.016 A  
HETATM   20  N   UNL     1     -11.414  15.156  67.877  1.00  0.00    -0.334 NA 
HETATM   21  C   UNL     1     -10.416  17.282  68.630  1.00  0.00    -0.356 A  
HETATM   22  C   UNL     1     -10.794  16.352  67.657  1.00  0.00    -0.280 A  
BRANCH  21  23
HETATM   23  N   UNL     1      -9.762  18.462  68.345  1.00  0.00    -0.338 NA 
HETATM   24  C   UNL     1      -8.304  18.510  68.141  1.00  0.00    -0.296 C  
HETATM   25  C   UNL     1      -7.976  18.874  66.671  1.00  0.00    -0.270 C  
HETATM   26  N   UNL     1      -8.630  20.113  66.204  1.00  0.00    -0.556 NA 
HETATM   27  C   UNL     1     -10.088  20.005  66.421  1.00  0.00    -0.487 C  
HETATM   28  H   UNL     1      -8.398  20.331  65.235  1.00  0.00     0.000 HD 
HETATM   29  C   UNL     1     -10.456  19.680  67.885  1.00  0.00    -0.423 C  
ENDBRANCH  21  23
ENDBRANCH  15  17
ENDBRANCH  11  15
BRANCH  12  30
HETATM   30  C   UNL     1      -9.081  10.097  66.877  1.00  0.00    -0.142 C  
HETATM   31  C   UNL     1      -7.297   9.851  65.274  1.00  0.00    -0.131 C  
HETATM   32  C   UNL     1      -9.689   9.472  65.606  1.00  0.00    -0.361 C  
HETATM   33  C   UNL     1      -8.523   9.203  64.648  1.00  0.00    -0.197 C  
HETATM   34  C   UNL     1      -7.574   9.817  66.770  1.00  0.00    -0.095 C  
ENDBRANCH  12  30
ENDBRANCH   4   6
TORSDOF 5
ENDMDL
MODEL       35
REMARK 921   NORMALIZED FREE ENERGY PREDICTED BY IDOCK:   -6.42 KCAL/MOL
REMARK 922        TOTAL FREE ENERGY PREDICTED BY IDOCK:   -9.19 KCAL/MOL
REMARK 923 INTER-LIGAND FREE ENERGY PREDICTED BY IDOCK:   -9.12 KCAL/MOL
REMARK 924 INTRA-LIGAND FREE ENERGY PREDICTED BY IDOCK:   -0.07 KCAL/MOL
REMARK 927      BINDING AFFINITY PREDICTED BY RF-SCORE:    0.00 PKD
ROOT
HETATM    1  C   UNL     1     -10.786  19.581  65.709  1.00  0.00    -0.304 C  
HETATM    2  N   UNL     1     -10.239  18.368  66.291  1.00  0.00    -0.398 N  
HETATM    3  C   UNL     1      -9.967  18.401  67.725  1.00  0.00    -0.346 C  
HETATM    4  C   UNL     1     -10.418  17.180  65.550  1.00  0.00    -0.144 C  
HETATM    5  O   UNL     1     -11.042  17.199  64.489  1.00  0.00    -1.105 OA 
ENDROOT
BRANCH   4   6
HETATM    6  C   UNL     1      -9.802  15.955  66.053  1.00  0.00    -0.337 A  
HETATM    7  C   UNL     1      -8.617  15.873  66.773  1.00  0.00    -0.301 A  
HETATM    8  C   UNL     1      -8.375  14.538  67.117  1.00  0.00    -0.226 A  
HETATM    9  C   UNL     1      -7.425  13.863  67.864  1.00  0.00    -0.152 A  
HETATM   10  N   UNL     1      -7.441  12.519  67.902  1.00  0.00    -0.107 NA 
HETATM   11  C   UNL     1      -8.379  11.856  67.196  1.00  0.00    -0.174 A  
HETATM   12  N   UNL     1     -10.193  14.630  65.802  1.00  0.00    -0.320 NA 
HETATM   13  N   UNL     1      -9.379  12.432  66.498  1.00  0.00    -0.233 NA 
HETATM   14  C   UNL     1      -9.331  13.779  66.484  1.00  0.00    -0.233 A  
BRANCH  11  15
HETATM   15  N   UNL     1      -8.205  10.476  67.200  1.00  0.00    -0.122 NA 
HETATM   16  H   UNL     1      -7.406  10.150  66.655  1.00  0.00     0.000 HD 
BRANCH  15  17
HETATM   17  C   UNL     1      -8.928   9.466  67.818  1.00  0.00    -0.122 A  
HETATM   18  C   UNL     1      -9.676   8.533  67.123  1.00  0.00    -0.251 A  
HETATM   19  C   UNL     1     -10.349   7.517  67.804  1.00  0.00    -0.278 A  
HETATM   20  N   UNL     1      -8.870   9.425  69.164  1.00  0.00    -0.138 NA 
HETATM   21  C   UNL     1     -10.304   7.419  69.191  1.00  0.00    -0.208 A  
HETATM   22  C   UNL     1      -9.538   8.418  69.798  1.00  0.00    -0.170 A  
BRANCH  21  23
HETATM   23  N   UNL     1     -10.931   6.408  69.888  1.00  0.00    -0.312 NA 
HETATM   24  C   UNL     1     -10.283   5.104  70.112  1.00  0.00    -0.278 C  
HETATM   25  C   UNL     1      -9.981   4.904  71.619  1.00  0.00    -0.190 C  
HETATM   26  N   UNL     1     -11.158   5.082  72.491  1.00  0.00    -0.189 NA 
HETATM   27  C   UNL     1     -11.760   6.406  72.234  1.00  0.00    -0.290 C  
HETATM   28  H   UNL     1     -10.933   4.944  73.477  1.00  0.00     0.000 HD 
HETATM   29  C   UNL     1     -12.111   6.629  70.746  1.00  0.00    -0.304 C  
ENDBRANCH  21  23
ENDBRANCH  15  17
ENDBRANCH  11  15
BRANCH  12  30
HETATM   30  C   UNL     1     -11.270  14.187  64.920  1.00  0.00    -0.373 C  
HETATM   31  C   UNL     1     -12.130  12.530  63.396  1.00  0.00    -0.621 C  
HETATM   32  C   UNL     1     -12.491  13.532  65.596  1.00  0.00    -0.528 C  
HETATM   33  C   UNL     1     -12.946  12.396  64.672  1.00  0.00    -0.094 C  
HETATM   34  C   UNL     1     -10.830  13.182  63.844  1.00  0.00    -0.268 C  
ENDBRANCH  12  30
ENDBRANCH   4   6
TORSDOF 5
ENDMDL
MODEL       36
REMARK 921   NORMALIZED FREE ENERGY PREDICTED BY IDOCK:   -6.42 KCAL/MOL
REMARK 922        TOTAL FREE ENERGY PREDICTED BY IDOCK:   -9.19 KCAL/MOL
REMARK 923 INTER-LIGAND FREE ENERGY PREDICTED BY IDOCK:   -8.32 KCAL/MOL
REMARK 924 INTRA-LIGAND FREE ENERGY PREDICTED BY IDOCK:   -0.87 KCAL/MOL
REMARK 927      BINDING AFFINITY PREDICTED BY RF-SCORE:    0.00 PKD
ROOT
HETATM    1  C   UNL     1      -5.700   6.095  65.941  1.00  0.00    -0.024 C  
HETATM    2  N   UNL     1      -6.433   7.331  65.723  1.00  0.00    -0.044 N  
HETATM    3  C   UNL     1      -5.681   8.571  65.896  1.00  0.00    -0.046 C  
HETATM    4  C   UNL     1      -7.625   7.230  64.973  1.00  0.00    -0.107 C  
HETATM    5  O   UNL     1      -7.976   6.144  64.511  1.00  0.00    -0.115 OA 
ENDROOT
BRANCH   4   6
HETATM    6  C   UNL     1      -8.439   8.431  64.810  1.00  0.00    -0.101 A  
HETATM    7  C   UNL     1      -8.551   9.192  63.654  1.00  0.00    -0.180 A  
HETATM    8  C   UNL     1      -9.456  10.238  63.872  1.00  0.00    -0.356 A  
HETATM    9  C   UNL     1     -10.010  11.246  63.102  1.00  0.00    -0.365 A  
HETATM   10  N   UNL     1     -10.796  12.169  63.685  1.00  0.00    -0.425 NA 
HETATM   11  C   UNL     1     -11.015  12.099  65.013  1.00  0.00    -0.309 A  
HETATM   12  N   UNL     1      -9.148   9.129  65.801  1.00  0.00    -0.198 NA 
HETATM   13  N   UNL     1     -10.571  11.117  65.823  1.00  0.00    -0.251 NA 
HETATM   14  C   UNL     1      -9.789  10.210  65.206  1.00  0.00    -0.319 A  
BRANCH  11  15
HETATM   15  N   UNL     1     -11.723  13.185  65.516  1.00  0.00    -0.340 NA 
HETATM   16  H   UNL     1     -12.737  13.097  65.447  1.00  0.00     0.000 HD 
BRANCH  15  17
HETATM   17  C   UNL     1     -11.289  14.369  66.096  1.00  0.00    -0.350 A  
HETATM   18  C   UNL     1     -11.612  14.745  67.387  1.00  0.00    -0.377 A  
HETATM   19  C   UNL     1     -11.110  15.932  67.925  1.00  0.00    -0.317 A  
HETATM   20  N   UNL     1     -10.514  15.162  65.330  1.00  0.00    -0.385 NA 
HETATM   21  C   UNL     1     -10.289  16.775  67.182  1.00  0.00    -0.297 A  
HETATM   22  C   UNL     1     -10.038  16.314  65.886  1.00  0.00    -0.357 A  
BRANCH  21  23
HETATM   23  N   UNL     1      -9.752  17.936  67.696  1.00  0.00    -0.273 NA 
HETATM   24  C   UNL     1      -8.300  18.101  67.885  1.00  0.00    -0.250 C  
HETATM   25  C   UNL     1      -7.751  19.187  66.926  1.00  0.00    -0.238 C  
HETATM   26  N   UNL     1      -8.460  20.478  67.020  1.00  0.00    -0.515 NA 
HETATM   27  C   UNL     1      -9.905  20.256  66.813  1.00  0.00    -0.447 C  
HETATM   28  H   UNL     1      -8.079  21.176  66.381  1.00  0.00     0.000 HD 
HETATM   29  C   UNL     1     -10.498  19.206  67.777  1.00  0.00    -0.419 C  
ENDBRANCH  21  23
ENDBRANCH  15  17
ENDBRANCH  11  15
BRANCH  12  30
HETATM   30  C   UNL     1      -9.169   8.838  67.232  1.00  0.00    -0.139 C  
HETATM   31  C   UNL     1      -8.938   9.632  69.496  1.00  0.00    -0.203 C  
HETATM   32  C   UNL     1     -10.557   8.739  67.897  1.00  0.00    -0.236 C  
HETATM   33  C   UNL     1     -10.421   9.366  69.290  1.00  0.00    -0.230 C  
HETATM   34  C   UNL     1      -8.392   9.847  68.092  1.00  0.00    -0.110 C  
ENDBRANCH  12  30
ENDBRANCH   4   6
TORSDOF 5
ENDMDL
MODEL       37
REMARK 921   NORMALIZED FREE ENERGY PREDICTED BY IDOCK:   -6.40 KCAL/MOL
REMARK 922        TOTAL FREE ENERGY PREDICTED BY IDOCK:   -9.16 KCAL/MOL
REMARK 923 INTER-LIGAND FREE ENERGY PREDICTED BY IDOCK:   -8.52 KCAL/MOL
REMARK 924 INTRA-LIGAND FREE ENERGY PREDICTED BY IDOCK:   -0.64 KCAL/MOL
REMARK 927      BINDING AFFINITY PREDICTED BY RF-SCORE:    0.00 PKD
ROOT
HETATM    1  C   UNL     1     -11.253  15.827  64.393  1.00  0.00    -0.236 C  
HETATM    2  N   UNL     1     -10.944  14.842  65.416  1.00  0.00    -0.338 N  
HETATM    3  C   UNL     1      -9.722  15.064  66.184  1.00  0.00    -0.306 C  
HETATM    4  C   UNL     1     -12.018  14.039  65.859  1.00  0.00    -0.408 C  
HETATM    5  O   UNL     1     -13.150  14.215  65.409  1.00  0.00    -0.743 OA 
ENDROOT
BRANCH   4   6
HETATM    6  C   UNL     1     -11.732  12.975  66.817  1.00  0.00    -0.382 A  
HETATM    7  C   UNL     1     -11.480  11.644  66.510  1.00  0.00    -0.260 A  
HETATM    8  C   UNL     1     -11.206  10.940  67.688  1.00  0.00    -0.379 A  
HETATM    9  C   UNL     1     -10.829   9.646  68.005  1.00  0.00    -0.196 A  
HETATM   10  N   UNL     1     -10.749   9.275  69.295  1.00  0.00    -0.219 NA 
HETATM   11  C   UNL     1     -11.053  10.172  70.255  1.00  0.00    -0.317 A  
HETATM   12  N   UNL     1     -11.788  13.043  68.219  1.00  0.00    -0.349 NA 
HETATM   13  N   UNL     1     -11.364  11.466  70.039  1.00  0.00    -0.228 NA 
HETATM   14  C   UNL     1     -11.434  11.801  68.735  1.00  0.00    -0.291 A  
BRANCH  11  15
HETATM   15  N   UNL     1     -11.071   9.629  71.535  1.00  0.00    -0.345 NA 
HETATM   16  H   UNL     1     -11.347  10.285  72.267  1.00  0.00     0.000 HD 
BRANCH  15  17
HETATM   17  C   UNL     1     -10.778   8.352  71.990  1.00  0.00    -0.317 A  
HETATM   18  C   UNL     1     -11.735   7.370  72.166  1.00  0.00    -0.328 A  
HETATM   19  C   UNL     1     -11.368   6.091  72.591  1.00  0.00    -0.320 A  
HETATM   20  N   UNL     1      -9.482   8.096  72.261  1.00  0.00    -0.218 NA 
HETATM   21  C   UNL     1     -10.042   5.770  72.864  1.00  0.00    -0.184 A  
HETATM   22  C   UNL     1      -9.157   6.836  72.672  1.00  0.00    -0.132 A  
BRANCH  21  23
HETATM   23  N   UNL     1      -9.645   4.508  73.252  1.00  0.00    -0.125 NA 
HETATM   24  C   UNL     1     -10.554   3.351  73.170  1.00  0.00    -0.178 C  
HETATM   25  C   UNL     1     -10.047   2.342  72.109  1.00  0.00    -0.153 C  
HETATM   26  N   UNL     1      -8.647   1.919  72.310  1.00  0.00    -0.057 NA 
HETATM   27  C   UNL     1      -7.782   3.115  72.373  1.00  0.00    -0.058 C  
HETATM   28  H   UNL     1      -8.338   1.255  71.600  1.00  0.00     0.000 HD 
HETATM   29  C   UNL     1      -8.233   4.129  73.447  1.00  0.00    -0.090 C  
ENDBRANCH  21  23
ENDBRANCH  15  17
ENDBRANCH  11  15
BRANCH  12  30
HETATM   30  C   UNL     1     -12.214  14.185  69.024  1.00  0.00    -0.239 C  
HETATM   31  C   UNL     1     -12.942  15.041  71.156  1.00  0.00    -0.457 C  
HETATM   32  C   UNL     1     -11.101  15.114  69.549  1.00  0.00    -0.287 C  
HETATM   33  C   UNL     1     -11.521  15.547  70.959  1.00  0.00    -0.426 C  
HETATM   34  C   UNL     1     -13.032  13.809  70.269  1.00  0.00     0.043 C  
ENDBRANCH  12  30
ENDBRANCH   4   6
TORSDOF 5
ENDMDL
MODEL       38
REMARK 921   NORMALIZED FREE ENERGY PREDICTED BY IDOCK:   -6.40 KCAL/MOL
REMARK 922        TOTAL FREE ENERGY PREDICTED BY IDOCK:   -9.16 KCAL/MOL
REMARK 923 INTER-LIGAND FREE ENERGY PREDICTED BY IDOCK:   -8.25 KCAL/MOL
REMARK 924 INTRA-LIGAND FREE ENERGY PREDICTED BY IDOCK:   -0.90 KCAL/MOL
REMARK 927      BINDING AFFINITY PREDICTED BY RF-SCORE:    0.00 PKD
ROOT
HETATM    1  C   UNL     1      -8.339  20.146  68.093  1.00  0.00    -0.100 C  
HETATM    2  N   UNL     1      -8.989  18.894  67.744  1.00  0.00    -0.287 N  
HETATM    3  C   UNL     1     -10.220  18.579  68.464  1.00  0.00    -0.351 C  
HETATM    4  C   UNL     1      -8.638  18.330  66.498  1.00  0.00    -0.266 C  
HETATM    5  O   UNL     1      -7.849  18.913  65.754  1.00  0.00    -0.471 OA 
ENDROOT
BRANCH   4   6
HETATM    6  C   UNL     1      -9.197  17.027  66.151  1.00  0.00    -0.210 A  
HETATM    7  C   UNL     1     -10.313  16.801  65.356  1.00  0.00    -0.169 A  
HETATM    8  C   UNL     1     -10.513  15.423  65.216  1.00  0.00    -0.440 A  
HETATM    9  C   UNL     1     -11.388  14.614  64.511  1.00  0.00    -0.310 A  
HETATM   10  N   UNL     1     -11.357  13.282  64.697  1.00  0.00    -0.332 NA 
HETATM   11  C   UNL     1     -10.479  12.765  65.580  1.00  0.00    -0.278 A  
HETATM   12  N   UNL     1      -8.819  15.769  66.649  1.00  0.00    -0.260 NA 
HETATM   13  N   UNL     1      -9.550  13.470  66.257  1.00  0.00    -0.261 NA 
HETATM   14  C   UNL     1      -9.610  14.799  66.045  1.00  0.00    -0.301 A  
BRANCH  11  15
HETATM   15  N   UNL     1     -10.642  11.399  65.787  1.00  0.00    -0.261 NA 
HETATM   16  H   UNL     1     -10.771  10.856  64.933  1.00  0.00     0.000 HD 
BRANCH  15  17
HETATM   17  C   UNL     1     -10.658  10.648  66.953  1.00  0.00    -0.254 A  
HETATM   18  C   UNL     1     -11.201  11.101  68.142  1.00  0.00    -0.356 A  
HETATM   19  C   UNL     1     -11.221  10.278  69.270  1.00  0.00    -0.281 A  
HETATM   20  N   UNL     1     -10.109   9.419  66.881  1.00  0.00    -0.228 NA 
HETATM   21  C   UNL     1     -10.685   8.994  69.241  1.00  0.00    -0.174 A  
HETATM   22  C   UNL     1     -10.146   8.640  68.001  1.00  0.00    -0.196 A  
BRANCH  21  23
HETATM   23  N   UNL     1     -10.720   8.147  70.329  1.00  0.00    -0.233 NA 
HETATM   24  C   UNL     1     -10.474   8.635  71.698  1.00  0.00    -0.296 C  
HETATM   25  C   UNL     1     -11.765   8.525  72.548  1.00  0.00    -0.320 C  
HETATM   26  N   UNL     1     -12.363   7.176  72.552  1.00  0.00    -0.492 NA 
HETATM   27  C   UNL     1     -12.597   6.743  71.159  1.00  0.00    -0.250 C  
HETATM   28  H   UNL     1     -13.209   7.130  73.120  1.00  0.00     0.000 HD 
HETATM   29  C   UNL     1     -11.324   6.802  70.288  1.00  0.00    -0.352 C  
ENDBRANCH  21  23
ENDBRANCH  15  17
ENDBRANCH  11  15
BRANCH  12  30
HETATM   30  C   UNL     1      -7.821  15.501  67.681  1.00  0.00    -0.155 C  
HETATM   31  C   UNL     1      -7.284  14.526  69.820  1.00  0.00    -0.005 C  
HETATM   32  C   UNL     1      -6.857  14.326  67.421  1.00  0.00    -0.042 C  
HETATM   33  C   UNL     1      -6.628  13.639  68.772  1.00  0.00    -0.101 C  
HETATM   34  C   UNL     1      -8.411  15.223  69.073  1.00  0.00    -0.221 C  
ENDBRANCH  12  30
ENDBRANCH   4   6
TORSDOF 5
ENDMDL
MODEL       39
REMARK 921   NORMALIZED FREE ENERGY PREDICTED BY IDOCK:   -6.39 KCAL/MOL
REMARK 922        TOTAL FREE ENERGY PREDICTED BY IDOCK:   -9.15 KCAL/MOL
REMARK 923 INTER-LIGAND FREE ENERGY PREDICTED BY IDOCK:   -8.53 KCAL/MOL
REMARK 924 INTRA-LIGAND FREE ENERGY PREDICTED BY IDOCK:   -0.61 KCAL/MOL
REMARK 927      BINDING AFFINITY PREDICTED BY RF-SCORE:    0.00 PKD
ROOT
HETATM    1  C   UNL     1      -8.400   5.256  73.214  1.00  0.00    -0.111 C  
HETATM    2  N   UNL     1      -8.758   6.474  72.506  1.00  0.00    -0.126 N  
HETATM    3  C   UNL     1      -7.652   7.328  72.082  1.00  0.00    -0.088 C  
HETATM    4  C   UNL     1     -10.047   6.509  71.930  1.00  0.00    -0.182 C  
HETATM    5  O   UNL     1     -10.788   5.530  72.010  1.00  0.00    -0.230 OA 
ENDROOT
BRANCH   4   6
HETATM    6  C   UNL     1     -10.480   7.748  71.290  1.00  0.00    -0.206 A  
HETATM    7  C   UNL     1     -11.286   8.724  71.862  1.00  0.00    -0.431 A  
HETATM    8  C   UNL     1     -11.447   9.781  70.959  1.00  0.00    -0.458 A  
HETATM    9  C   UNL     1     -12.060  11.022  70.983  1.00  0.00    -0.301 A  
HETATM   10  N   UNL     1     -12.105  11.763  69.861  1.00  0.00    -0.303 NA 
HETATM   11  C   UNL     1     -11.562  11.271  68.730  1.00  0.00    -0.316 A  
HETATM   12  N   UNL     1     -10.295   8.136  69.953  1.00  0.00    -0.210 NA 
HETATM   13  N   UNL     1     -10.889  10.106  68.633  1.00  0.00    -0.227 NA 
HETATM   14  C   UNL     1     -10.863   9.392  69.776  1.00  0.00    -0.232 A  
BRANCH  11  15
HETATM   15  N   UNL     1     -11.797  12.063  67.612  1.00  0.00    -0.564 NA 
HETATM   16  H   UNL     1     -12.496  11.689  66.969  1.00  0.00     0.000 HD 
BRANCH  15  17
HETATM   17  C   UNL     1     -11.247  13.274  67.218  1.00  0.00    -0.292 A  
HETATM   18  C   UNL     1     -10.844  13.541  65.922  1.00  0.00    -0.279 A  
HETATM   19  C   UNL     1     -10.334  14.795  65.583  1.00  0.00    -0.369 A  
HETATM   20  N   UNL     1     -11.117  14.213  68.177  1.00  0.00    -0.249 NA 
HETATM   21  C   UNL     1     -10.199  15.804  66.532  1.00  0.00    -0.286 A  
HETATM   22  C   UNL     1     -10.616  15.428  67.812  1.00  0.00    -0.274 A  
BRANCH  21  23
HETATM   23  N   UNL     1      -9.729  17.063  66.220  1.00  0.00    -0.318 NA 
HETATM   24  C   UNL     1     -10.627  18.126  65.736  1.00  0.00    -0.175 C  
HETATM   25  C   UNL     1     -10.725  19.266  66.781  1.00  0.00    -0.431 C  
HETATM   26  N   UNL     1      -9.416  19.808  67.196  1.00  0.00    -0.335 NA 
HETATM   27  C   UNL     1      -8.564  18.703  67.682  1.00  0.00    -0.272 C  
HETATM   28  H   UNL     1      -9.508  20.557  67.883  1.00  0.00     0.000 HD 
HETATM   29  C   UNL     1      -8.411  17.563  66.651  1.00  0.00    -0.261 C  
ENDBRANCH  21  23
ENDBRANCH  15  17
ENDBRANCH  11  15
BRANCH  12  30
HETATM   30  C   UNL     1      -9.683   7.345  68.889  1.00  0.00    -0.150 C  
HETATM   31  C   UNL     1      -9.881   6.309  66.722  1.00  0.00    -0.208 C  
HETATM   32  C   UNL     1      -8.729   8.091  67.935  1.00  0.00    -0.128 C  
HETATM   33  C   UNL     1      -8.961   7.507  66.537  1.00  0.00    -0.189 C  
HETATM   34  C   UNL     1     -10.690   6.641  67.967  1.00  0.00    -0.330 C  
ENDBRANCH  12  30
ENDBRANCH   4   6
TORSDOF 5
ENDMDL
MODEL       40
REMARK 921   NORMALIZED FREE ENERGY PREDICTED BY IDOCK:   -6.38 KCAL/MOL
REMARK 922        TOTAL FREE ENERGY PREDICTED BY IDOCK:   -9.13 KCAL/MOL
REMARK 923 INTER-LIGAND FREE ENERGY PREDICTED BY IDOCK:   -8.54 KCAL/MOL
REMARK 924 INTRA-LIGAND FREE ENERGY PREDICTED BY IDOCK:   -0.59 KCAL/MOL
REMARK 927      BINDING AFFINITY PREDICTED BY RF-SCORE:    0.00 PKD
ROOT
HETATM    1  C   UNL     1     -10.415   5.753  71.907  1.00  0.00    -0.221 C  
HETATM    2  N   UNL     1     -10.771   7.158  72.008  1.00  0.00    -0.212 N  
HETATM    3  C   UNL     1     -10.132   7.914  73.081  1.00  0.00    -0.294 C  
HETATM    4  C   UNL     1     -11.334   7.747  70.855  1.00  0.00    -0.275 C  
HETATM    5  O   UNL     1     -11.468   7.088  69.824  1.00  0.00    -0.217 OA 
ENDROOT
BRANCH   4   6
HETATM    6  C   UNL     1     -11.792   9.131  70.944  1.00  0.00    -0.270 A  
HETATM    7  C   UNL     1     -12.866   9.590  71.696  1.00  0.00    -0.483 A  
HETATM    8  C   UNL     1     -12.967  10.979  71.562  1.00  0.00    -0.553 A  
HETATM    9  C   UNL     1     -13.763  11.973  72.105  1.00  0.00     0.019 A  
HETATM   10  N   UNL     1     -13.646  13.236  71.658  1.00  0.00    -0.267 NA 
HETATM   11  C   UNL     1     -12.762  13.504  70.677  1.00  0.00    -0.205 A  
HETATM   12  N   UNL     1     -11.343  10.235  70.201  1.00  0.00    -0.294 NA 
HETATM   13  N   UNL     1     -11.903  12.614  70.140  1.00  0.00    -0.296 NA 
HETATM   14  C   UNL     1     -12.048  11.360  70.612  1.00  0.00    -0.372 A  
BRANCH  11  15
HETATM   15  N   UNL     1     -12.836  14.810  70.205  1.00  0.00    -0.586 NA 
HETATM   16  H   UNL     1     -13.756  15.241  70.299  1.00  0.00     0.000 HD 
BRANCH  15  17
HETATM   17  C   UNL     1     -11.876  15.629  69.628  1.00  0.00    -0.362 A  
HETATM   18  C   UNL     1     -11.580  15.617  68.277  1.00  0.00    -0.326 A  
HETATM   19  C   UNL     1     -10.629  16.496  67.753  1.00  0.00    -0.332 A  
HETATM   20  N   UNL     1     -11.223  16.464  70.460  1.00  0.00    -0.318 NA 
HETATM   21  C   UNL     1      -9.943  17.391  68.567  1.00  0.00    -0.331 A  
HETATM   22  C   UNL     1     -10.301  17.311  69.916  1.00  0.00     0.297 A  
BRANCH  21  23
HETATM   23  N   UNL     1      -9.023  18.293  68.074  1.00  0.00    -0.283 NA 
HETATM   24  C   UNL     1      -7.816  17.851  67.353  1.00  0.00    -0.208 C  
HETATM   25  C   UNL     1      -7.885  18.288  65.868  1.00  0.00    -0.047 C  
HETATM   26  N   UNL     1      -8.130  19.732  65.682  1.00  0.00    -0.407 NA 
HETATM   27  C   UNL     1      -9.354  20.116  66.415  1.00  0.00    -0.335 C  
HETATM   28  H   UNL     1      -8.170  19.994  64.697  1.00  0.00     0.000 HD 
HETATM   29  C   UNL     1      -9.308  19.731  67.909  1.00  0.00    -0.344 C  
ENDBRANCH  21  23
ENDBRANCH  15  17
ENDBRANCH  11  15
BRANCH  12  30
HETATM   30  C   UNL     1     -10.359  10.221  69.121  1.00  0.00    -0.223 C  
HETATM   31  C   UNL     1      -8.234   9.451  68.284  1.00  0.00    -0.118 C  
HETATM   32  C   UNL     1     -10.648   9.278  67.936  1.00  0.00    -0.288 C  
HETATM   33  C   UNL     1      -9.298   8.698  67.498  1.00  0.00    -0.162 C  
HETATM   34  C   UNL     1      -8.934   9.863  69.571  1.00  0.00    -0.224 C  
ENDBRANCH  12  30
ENDBRANCH   4   6
TORSDOF 5
ENDMDL
MODEL       41
REMARK 921   NORMALIZED FREE ENERGY PREDICTED BY IDOCK:   -6.37 KCAL/MOL
REMARK 922        TOTAL FREE ENERGY PREDICTED BY IDOCK:   -9.12 KCAL/MOL
REMARK 923 INTER-LIGAND FREE ENERGY PREDICTED BY IDOCK:   -8.40 KCAL/MOL
REMARK 924 INTRA-LIGAND FREE ENERGY PREDICTED BY IDOCK:   -0.72 KCAL/MOL
REMARK 927      BINDING AFFINITY PREDICTED BY RF-SCORE:    0.00 PKD
ROOT
HETATM    1  C   UNL     1     -10.410  20.052  66.808  1.00  0.00    -0.436 C  
HETATM    2  N   UNL     1      -9.762  18.828  67.249  1.00  0.00    -0.295 N  
HETATM    3  C   UNL     1      -9.599  18.663  68.691  1.00  0.00    -0.368 C  
HETATM    4  C   UNL     1      -9.744  17.760  66.326  1.00  0.00    -0.267 C  
HETATM    5  O   UNL     1     -10.289  17.879  65.229  1.00  0.00    -0.470 OA 
ENDROOT
BRANCH   4   6
HETATM    6  C   UNL     1      -9.021  16.545  66.695  1.00  0.00    -0.255 A  
HETATM    7  C   UNL     1      -7.661  16.451  66.958  1.00  0.00    -0.240 A  
HETATM    8  C   UNL     1      -7.347  15.136  67.319  1.00  0.00    -0.216 A  
HETATM    9  C   UNL     1      -6.212  14.468  67.745  1.00  0.00    -0.136 A  
HETATM   10  N   UNL     1      -6.250  13.134  67.912  1.00  0.00    -0.124 NA 
HETATM   11  C   UNL     1      -7.394  12.473  67.645  1.00  0.00    -0.134 A  
HETATM   12  N   UNL     1      -9.511  15.229  66.722  1.00  0.00    -0.232 NA 
HETATM   13  N   UNL     1      -8.561  13.049  67.291  1.00  0.00    -0.199 NA 
HETATM   14  C   UNL     1      -8.485  14.386  67.135  1.00  0.00    -0.208 A  
BRANCH  11  15
HETATM   15  N   UNL     1      -7.265  11.090  67.717  1.00  0.00    -0.089 NA 
HETATM   16  H   UNL     1      -6.491  10.709  67.172  1.00  0.00     0.000 HD 
BRANCH  15  17
HETATM   17  C   UNL     1      -8.007  10.138  68.402  1.00  0.00    -0.102 A  
HETATM   18  C   UNL     1      -8.607   9.055  67.786  1.00  0.00    -0.121 A  
HETATM   19  C   UNL     1      -9.307   8.111  68.539  1.00  0.00    -0.138 A  
HETATM   20  N   UNL     1      -8.122  10.313  69.733  1.00  0.00    -0.150 NA 
HETATM   21  C   UNL     1      -9.437   8.235  69.919  1.00  0.00    -0.167 A  
HETATM   22  C   UNL     1      -8.812   9.372  70.441  1.00  0.00    -0.249 A  
BRANCH  21  23
HETATM   23  N   UNL     1     -10.094   7.302  70.693  1.00  0.00    -0.194 NA 
HETATM   24  C   UNL     1      -9.830   7.170  72.137  1.00  0.00    -0.153 C  
HETATM   25  C   UNL     1     -11.079   7.588  72.954  1.00  0.00    -0.375 C  
HETATM   26  N   UNL     1     -12.313   6.879  72.561  1.00  0.00    -0.493 NA 
HETATM   27  C   UNL     1     -12.534   7.055  71.111  1.00  0.00    -0.362 C  
HETATM   28  H   UNL     1     -13.119   7.171  73.113  1.00  0.00     0.000 HD 
HETATM   29  C   UNL     1     -11.324   6.613  70.259  1.00  0.00    -0.374 C  
ENDBRANCH  21  23
ENDBRANCH  15  17
ENDBRANCH  11  15
BRANCH  12  30
HETATM   30  C   UNL     1     -10.841  14.781  66.318  1.00  0.00    -0.322 C  
HETATM   31  C   UNL     1     -12.198  13.369  64.913  1.00  0.00    -0.450 C  
HETATM   32  C   UNL     1     -11.529  13.749  67.233  1.00  0.00    -0.367 C  
HETATM   33  C   UNL     1     -12.283  12.781  66.314  1.00  0.00    -0.289 C  
HETATM   34  C   UNL     1     -10.899  14.161  64.913  1.00  0.00    -0.423 C  
ENDBRANCH  12  30
ENDBRANCH   4   6
TORSDOF 5
ENDMDL
MODEL       42
REMARK 921   NORMALIZED FREE ENERGY PREDICTED BY IDOCK:   -6.28 KCAL/MOL
REMARK 922        TOTAL FREE ENERGY PREDICTED BY IDOCK:   -9.00 KCAL/MOL
REMARK 923 INTER-LIGAND FREE ENERGY PREDICTED BY IDOCK:   -8.43 KCAL/MOL
REMARK 924 INTRA-LIGAND FREE ENERGY PREDICTED BY IDOCK:   -0.57 KCAL/MOL
REMARK 927      BINDING AFFINITY PREDICTED BY RF-SCORE:    0.00 PKD
ROOT
HETATM    1  C   UNL     1      -8.540   3.821  67.117  1.00  0.00    -0.107 C  
HETATM    2  N   UNL     1      -9.115   5.083  66.684  1.00  0.00    -0.117 N  
HETATM    3  C   UNL     1     -10.506   5.046  66.243  1.00  0.00    -0.303 C  
HETATM    4  C   UNL     1      -8.456   6.254  67.120  1.00  0.00    -0.108 C  
HETATM    5  O   UNL     1      -7.473   6.176  67.856  1.00  0.00    -0.082 OA 
ENDROOT
BRANCH   4   6
HETATM    6  C   UNL     1      -8.946   7.540  66.631  1.00  0.00    -0.153 A  
HETATM    7  C   UNL     1      -8.656   8.110  65.398  1.00  0.00    -0.154 A  
HETATM    8  C   UNL     1      -9.343   9.324  65.274  1.00  0.00    -0.269 A  
HETATM    9  C   UNL     1      -9.502  10.276  64.283  1.00  0.00    -0.307 A  
HETATM   10  N   UNL     1     -10.175  11.409  64.552  1.00  0.00    -0.276 NA 
HETATM   11  C   UNL     1     -10.670  11.598  65.792  1.00  0.00    -0.280 A  
HETATM   12  N   UNL     1      -9.678   8.507  67.340  1.00  0.00    -0.159 NA 
HETATM   13  N   UNL     1     -10.619  10.697  66.795  1.00  0.00    -0.250 NA 
HETATM   14  C   UNL     1      -9.938   9.575  66.488  1.00  0.00    -0.261 A  
BRANCH  11  15
HETATM   15  N   UNL     1     -11.217  12.861  65.985  1.00  0.00    -0.285 NA 
HETATM   16  H   UNL     1     -11.432  13.364  65.123  1.00  0.00     0.000 HD 
BRANCH  15  17
HETATM   17  C   UNL     1     -11.522  13.558  67.145  1.00  0.00    -0.338 A  
HETATM   18  C   UNL     1     -11.361  14.925  67.275  1.00  0.00    -0.355 A  
HETATM   19  C   UNL     1     -11.725  15.571  68.458  1.00  0.00    -0.351 A  
HETATM   20  N   UNL     1     -11.998  12.828  68.174  1.00  0.00    -0.308 NA 
HETATM   21  C   UNL     1     -12.240  14.866  69.542  1.00  0.00    -0.233 A  
HETATM   22  C   UNL     1     -12.346  13.490  69.315  1.00  0.00    -0.081 A  
BRANCH  21  23
HETATM   23  N   UNL     1     -12.638  15.480  70.710  1.00  0.00    -0.438 NA 
HETATM   24  C   UNL     1     -13.943  15.192  71.331  1.00  0.00    -0.506 C  
HETATM   25  C   UNL     1     -13.747  14.469  72.687  1.00  0.00    -0.440 C  
HETATM   26  N   UNL     1     -12.849  15.181  73.618  1.00  0.00    -0.515 NA 
HETATM   27  C   UNL     1     -11.556  15.433  72.949  1.00  0.00    -0.312 C  
HETATM   28  H   UNL     1     -12.737  14.686  74.502  1.00  0.00     0.000 HD 
HETATM   29  C   UNL     1     -11.707  16.187  71.610  1.00  0.00    -0.484 C  
ENDBRANCH  21  23
ENDBRANCH  15  17
ENDBRANCH  11  15
BRANCH  12  30
HETATM   30  C   UNL     1     -10.050   8.462  68.751  1.00  0.00    -0.196 C  
HETATM   31  C   UNL     1     -10.595   7.143  70.694  1.00  0.00    -0.243 C  
HETATM   32  C   UNL     1      -8.913   8.659  69.773  1.00  0.00    -0.145 C  
HETATM   33  C   UNL     1      -9.208   7.717  70.946  1.00  0.00    -0.150 C  
HETATM   34  C   UNL     1     -10.742   7.159  69.180  1.00  0.00    -0.216 C  
ENDBRANCH  12  30
ENDBRANCH   4   6
TORSDOF 5
ENDMDL
MODEL       43
REMARK 921   NORMALIZED FREE ENERGY PREDICTED BY IDOCK:   -6.27 KCAL/MOL
REMARK 922        TOTAL FREE ENERGY PREDICTED BY IDOCK:   -8.99 KCAL/MOL
REMARK 923 INTER-LIGAND FREE ENERGY PREDICTED BY IDOCK:   -8.21 KCAL/MOL
REMARK 924 INTRA-LIGAND FREE ENERGY PREDICTED BY IDOCK:   -0.78 KCAL/MOL
REMARK 927      BINDING AFFINITY PREDICTED BY RF-SCORE:    0.00 PKD
ROOT
HETATM    1  C   UNL     1      -6.333  20.785  66.926  1.00  0.00    -0.262 C  
HETATM    2  N   UNL     1      -6.652  19.368  66.906  1.00  0.00    -0.194 N  
HETATM    3  C   UNL     1      -6.308  18.642  65.687  1.00  0.00    -0.264 C  
HETATM    4  C   UNL     1      -6.852  18.752  68.160  1.00  0.00    -0.237 C  
HETATM    5  O   UNL     1      -6.718  19.400  69.198  1.00  0.00    -0.305 OA 
ENDROOT
BRANCH   4   6
HETATM    6  C   UNL     1      -7.266  17.352  68.181  1.00  0.00    -0.199 A  
HETATM    7  C   UNL     1      -6.427  16.252  68.315  1.00  0.00    -0.130 A  
HETATM    8  C   UNL     1      -7.194  15.082  68.334  1.00  0.00    -0.111 A  
HETATM    9  C   UNL     1      -6.940  13.733  68.509  1.00  0.00    -0.103 A  
HETATM   10  N   UNL     1      -7.939  12.845  68.361  1.00  0.00    -0.149 NA 
HETATM   11  C   UNL     1      -9.168  13.290  68.031  1.00  0.00    -0.217 A  
HETATM   12  N   UNL     1      -8.547  16.831  67.935  1.00  0.00    -0.199 NA 
HETATM   13  N   UNL     1      -9.518  14.587  67.908  1.00  0.00    -0.208 NA 
HETATM   14  C   UNL     1      -8.492  15.447  68.064  1.00  0.00    -0.146 A  
BRANCH  11  15
HETATM   15  N   UNL     1     -10.076  12.270  67.768  1.00  0.00    -0.197 NA 
HETATM   16  H   UNL     1     -10.512  12.321  66.847  1.00  0.00     0.000 HD 
BRANCH  15  17
HETATM   17  C   UNL     1     -10.491  11.195  68.541  1.00  0.00    -0.191 A  
HETATM   18  C   UNL     1     -10.127   9.887  68.281  1.00  0.00    -0.185 A  
HETATM   19  C   UNL     1     -10.548   8.855  69.122  1.00  0.00    -0.211 A  
HETATM   20  N   UNL     1     -11.287  11.485  69.590  1.00  0.00    -0.269 NA 
HETATM   21  C   UNL     1     -11.353   9.104  70.229  1.00  0.00    -0.188 A  
HETATM   22  C   UNL     1     -11.679  10.453  70.393  1.00  0.00    -0.331 A  
BRANCH  21  23
HETATM   23  N   UNL     1     -11.757   8.110  71.096  1.00  0.00    -0.283 NA 
HETATM   24  C   UNL     1     -11.793   6.694  70.688  1.00  0.00    -0.383 C  
HETATM   25  C   UNL     1     -10.735   5.880  71.474  1.00  0.00    -0.256 C  
HETATM   26  N   UNL     1     -10.839   6.025  72.939  1.00  0.00    -0.245 NA 
HETATM   27  C   UNL     1     -10.786   7.459  73.291  1.00  0.00    -0.391 C  
HETATM   28  H   UNL     1     -10.133   5.479  73.432  1.00  0.00     0.000 HD 
HETATM   29  C   UNL     1     -11.852   8.299  72.555  1.00  0.00    -0.373 C  
ENDBRANCH  21  23
ENDBRANCH  15  17
ENDBRANCH  11  15
BRANCH  12  30
HETATM   30  C   UNL     1      -9.735  17.580  67.536  1.00  0.00    -0.278 C  
HETATM   31  C   UNL     1     -10.891  19.692  67.415  1.00  0.00    -0.497 C  
HETATM   32  C   UNL     1      -9.845  17.958  66.045  1.00  0.00    -0.180 C  
HETATM   33  C   UNL     1     -10.465  19.359  65.993  1.00  0.00    -0.596 C  
HETATM   34  C   UNL     1      -9.929  18.903  68.292  1.00  0.00    -0.431 C  
ENDBRANCH  12  30
ENDBRANCH   4   6
TORSDOF 5
ENDMDL
MODEL       44
REMARK 921   NORMALIZED FREE ENERGY PREDICTED BY IDOCK:   -6.23 KCAL/MOL
REMARK 922        TOTAL FREE ENERGY PREDICTED BY IDOCK:   -8.94 KCAL/MOL
REMARK 923 INTER-LIGAND FREE ENERGY PREDICTED BY IDOCK:   -8.01 KCAL/MOL
REMARK 924 INTRA-LIGAND FREE ENERGY PREDICTED BY IDOCK:   -0.93 KCAL/MOL
REMARK 927      BINDING AFFINITY PREDICTED BY RF-SCORE:    0.00 PKD
ROOT
HETATM    1  C   UNL     1     -10.298   4.674  65.924  1.00  0.00    -0.283 C  
HETATM    2  N   UNL     1      -9.437   5.827  66.125  1.00  0.00    -0.151 N  
HETATM    3  C   UNL     1      -8.240   5.898  65.292  1.00  0.00    -0.141 C  
HETATM    4  C   UNL     1     -10.023   6.944  66.759  1.00  0.00    -0.182 C  
HETATM    5  O   UNL     1     -11.212   6.923  67.078  1.00  0.00    -0.369 OA 
ENDROOT
BRANCH   4   6
HETATM    6  C   UNL     1      -9.169   8.088  67.065  1.00  0.00    -0.147 A  
HETATM    7  C   UNL     1      -8.373   8.237  68.194  1.00  0.00    -0.129 A  
HETATM    8  C   UNL     1      -7.668   9.443  68.110  1.00  0.00    -0.083 A  
HETATM    9  C   UNL     1      -6.704  10.082  68.870  1.00  0.00    -0.053 A  
HETATM   10  N   UNL     1      -6.309  11.324  68.534  1.00  0.00    -0.046 NA 
HETATM   11  C   UNL     1      -6.875  11.924  67.467  1.00  0.00    -0.124 A  
HETATM   12  N   UNL     1      -9.082   9.306  66.370  1.00  0.00    -0.151 NA 
HETATM   13  N   UNL     1      -7.768  11.351  66.635  1.00  0.00    -0.150 NA 
HETATM   14  C   UNL     1      -8.139  10.108  67.003  1.00  0.00    -0.117 A  
BRANCH  11  15
HETATM   15  N   UNL     1      -6.489  13.250  67.308  1.00  0.00    -0.455 NA 
HETATM   16  H   UNL     1      -5.522  13.375  67.006  1.00  0.00     0.000 HD 
BRANCH  15  17
HETATM   17  C   UNL     1      -7.190  14.434  67.490  1.00  0.00    -0.180 A  
HETATM   18  C   UNL     1      -8.461  14.489  68.031  1.00  0.00    -0.161 A  
HETATM   19  C   UNL     1      -9.097  15.717  68.222  1.00  0.00    -0.187 A  
HETATM   20  N   UNL     1      -6.564  15.565  67.108  1.00  0.00    -0.288 NA 
HETATM   21  C   UNL     1      -8.484  16.914  67.864  1.00  0.00    -0.203 A  
HETATM   22  C   UNL     1      -7.211  16.749  67.311  1.00  0.00    -0.172 A  
BRANCH  21  23
HETATM   23  N   UNL     1      -9.073  18.144  68.072  1.00  0.00    -0.276 NA 
HETATM   24  C   UNL     1      -8.282  19.325  68.461  1.00  0.00    -0.366 C  
HETATM   25  C   UNL     1      -8.290  20.378  67.324  1.00  0.00    -0.335 C  
HETATM   26  N   UNL     1      -9.643  20.756  66.871  1.00  0.00    -0.678 NA 
HETATM   27  C   UNL     1     -10.384  19.538  66.483  1.00  0.00    -0.482 C  
HETATM   28  H   UNL     1      -9.621  21.450  66.123  1.00  0.00     0.000 HD 
HETATM   29  C   UNL     1     -10.432  18.479  67.606  1.00  0.00    -0.417 C  
ENDBRANCH  21  23
ENDBRANCH  15  17
ENDBRANCH  11  15
BRANCH  12  30
HETATM   30  C   UNL     1      -9.885   9.718  65.222  1.00  0.00    -0.265 C  
HETATM   31  C   UNL     1     -10.999  11.485  64.019  1.00  0.00    -0.454 C  
HETATM   32  C   UNL     1      -9.137   9.907  63.887  1.00  0.00    -0.298 C  
HETATM   33  C   UNL     1      -9.776  11.116  63.194  1.00  0.00    -0.401 C  
HETATM   34  C   UNL     1     -10.655  11.032  65.430  1.00  0.00    -0.270 C  
ENDBRANCH  12  30
ENDBRANCH   4   6
TORSDOF 5
ENDMDL
MODEL       45
REMARK 921   NORMALIZED FREE ENERGY PREDICTED BY IDOCK:   -6.16 KCAL/MOL
REMARK 922        TOTAL FREE ENERGY PREDICTED BY IDOCK:   -8.85 KCAL/MOL
REMARK 923 INTER-LIGAND FREE ENERGY PREDICTED BY IDOCK:   -8.05 KCAL/MOL
REMARK 924 INTRA-LIGAND FREE ENERGY PREDICTED BY IDOCK:   -0.80 KCAL/MOL
REMARK 927      BINDING AFFINITY PREDICTED BY RF-SCORE:    0.00 PKD
ROOT
HETATM    1  C   UNL     1     -11.509   6.249  70.049  1.00  0.00    -0.390 C  
HETATM    2  N   UNL     1     -10.489   7.185  69.607  1.00  0.00    -0.222 N  
HETATM    3  C   UNL     1      -9.952   6.976  68.266  1.00  0.00    -0.153 C  
HETATM    4  C   UNL     1     -10.422   8.413  70.301  1.00  0.00    -0.218 C  
HETATM    5  O   UNL     1     -11.224   8.662  71.201  1.00  0.00    -0.250 OA 
ENDROOT
BRANCH   4   6
HETATM    6  C   UNL     1      -9.351   9.342  69.951  1.00  0.00    -0.214 A  
HETATM    7  C   UNL     1      -8.115   9.440  70.578  1.00  0.00    -0.212 A  
HETATM    8  C   UNL     1      -7.343  10.413  69.935  1.00  0.00    -0.149 A  
HETATM    9  C   UNL     1      -6.050  10.892  70.054  1.00  0.00    -0.121 A  
HETATM   10  N   UNL     1      -5.659  11.942  69.310  1.00  0.00    -0.057 NA 
HETATM   11  C   UNL     1      -6.545  12.515  68.470  1.00  0.00    -0.077 A  
HETATM   12  N   UNL     1      -9.397  10.397  69.025  1.00  0.00    -0.185 NA 
HETATM   13  N   UNL     1      -7.798  12.073  68.242  1.00  0.00    -0.138 NA 
HETATM   14  C   UNL     1      -8.154  11.021  69.005  1.00  0.00    -0.104 A  
BRANCH  11  15
HETATM   15  N   UNL     1      -6.066  13.673  67.866  1.00  0.00    -0.141 NA 
HETATM   16  H   UNL     1      -5.055  13.692  67.732  1.00  0.00     0.000 HD 
BRANCH  15  17
HETATM   17  C   UNL     1      -6.726  14.806  67.412  1.00  0.00    -0.029 A  
HETATM   18  C   UNL     1      -8.096  14.867  67.232  1.00  0.00    -0.234 A  
HETATM   19  C   UNL     1      -8.702  16.052  66.810  1.00  0.00    -0.287 A  
HETATM   20  N   UNL     1      -5.957  15.881  67.147  1.00  0.00    -0.335 NA 
HETATM   21  C   UNL     1      -7.954  17.194  66.543  1.00  0.00    -0.289 A  
HETATM   22  C   UNL     1      -6.581  17.023  66.738  1.00  0.00    -0.227 A  
BRANCH  21  23
HETATM   23  N   UNL     1      -8.528  18.387  66.157  1.00  0.00    -0.482 NA 
HETATM   24  C   UNL     1      -9.990  18.564  66.109  1.00  0.00    -0.322 C  
HETATM   25  C   UNL     1     -10.445  19.584  67.183  1.00  0.00    -0.474 C  
HETATM   26  N   UNL     1      -9.740  20.879  67.112  1.00  0.00    -0.654 NA 
HETATM   27  C   UNL     1      -8.283  20.643  67.176  1.00  0.00    -0.226 C  
HETATM   28  H   UNL     1     -10.057  21.532  67.828  1.00  0.00     0.000 HD 
HETATM   29  C   UNL     1      -7.784  19.660  66.095  1.00  0.00    -0.321 C  
ENDBRANCH  21  23
ENDBRANCH  15  17
ENDBRANCH  11  15
BRANCH  12  30
HETATM   30  C   UNL     1     -10.558  10.837  68.256  1.00  0.00    -0.200 C  
HETATM   31  C   UNL     1     -11.884  12.655  67.390  1.00  0.00    -0.393 C  
HETATM   32  C   UNL     1     -10.418  10.817  66.720  1.00  0.00    -0.305 C  
HETATM   33  C   UNL     1     -11.159  12.052  66.196  1.00  0.00    -0.367 C  
HETATM   34  C   UNL     1     -11.033  12.260  68.588  1.00  0.00    -0.276 C  
ENDBRANCH  12  30
ENDBRANCH   4   6
TORSDOF 5
ENDMDL
MODEL       46
REMARK 921   NORMALIZED FREE ENERGY PREDICTED BY IDOCK:   -6.11 KCAL/MOL
REMARK 922        TOTAL FREE ENERGY PREDICTED BY IDOCK:   -8.79 KCAL/MOL
REMARK 923 INTER-LIGAND FREE ENERGY PREDICTED BY IDOCK:   -8.18 KCAL/MOL
REMARK 924 INTRA-LIGAND FREE ENERGY PREDICTED BY IDOCK:   -0.61 KCAL/MOL
REMARK 927      BINDING AFFINITY PREDICTED BY RF-SCORE:    0.00 PKD
ROOT
HETATM    1  C   UNL     1      -5.729   7.551  63.252  1.00  0.00    -0.049 C  
HETATM    2  N   UNL     1      -6.711   7.448  64.319  1.00  0.00    -0.050 N  
HETATM    3  C   UNL     1      -7.810   6.512  64.102  1.00  0.00    -0.111 C  
HETATM    4  C   UNL     1      -6.304   7.905  65.592  1.00  0.00    -0.042 C  
HETATM    5  O   UNL     1      -5.161   8.327  65.763  1.00  0.00    -0.027 OA 
ENDROOT
BRANCH   4   6
HETATM    6  C   UNL     1      -7.290   7.905  66.670  1.00  0.00    -0.088 A  
HETATM    7  C   UNL     1      -7.502   6.882  67.584  1.00  0.00    -0.098 A  
HETATM    8  C   UNL     1      -8.497   7.266  68.489  1.00  0.00    -0.125 A  
HETATM    9  C   UNL     1      -9.071   6.720  69.624  1.00  0.00    -0.143 A  
HETATM   10  N   UNL     1     -10.111   7.341  70.208  1.00  0.00    -0.191 NA 
HETATM   11  C   UNL     1     -10.582   8.481  69.663  1.00  0.00    -0.220 A  
HETATM   12  N   UNL     1      -8.296   8.854  66.913  1.00  0.00    -0.111 NA 
HETATM   13  N   UNL     1     -10.044   9.116  68.603  1.00  0.00    -0.188 NA 
HETATM   14  C   UNL     1      -9.004   8.465  68.045  1.00  0.00    -0.138 A  
BRANCH  11  15
HETATM   15  N   UNL     1     -11.742   8.948  70.272  1.00  0.00    -0.465 NA 
HETATM   16  H   UNL     1     -12.421   8.221  70.499  1.00  0.00     0.000 HD 
BRANCH  15  17
HETATM   17  C   UNL     1     -12.137  10.231  70.623  1.00  0.00    -0.338 A  
HETATM   18  C   UNL     1     -12.893  10.512  71.746  1.00  0.00    -0.559 A  
HETATM   19  C   UNL     1     -13.224  11.831  72.065  1.00  0.00    -0.460 A  
HETATM   20  N   UNL     1     -11.740  11.225  69.804  1.00  0.00    -0.317 NA 
HETATM   21  C   UNL     1     -12.821  12.894  71.263  1.00  0.00    -0.270 A  
HETATM   22  C   UNL     1     -12.078  12.502  70.145  1.00  0.00    -0.292 A  
BRANCH  21  23
HETATM   23  N   UNL     1     -13.104  14.208  71.569  1.00  0.00    -0.336 NA 
HETATM   24  C   UNL     1     -13.501  14.618  72.928  1.00  0.00    -0.428 C  
HETATM   25  C   UNL     1     -12.408  15.515  73.562  1.00  0.00    -0.547 C  
HETATM   26  N   UNL     1     -12.034  16.677  72.732  1.00  0.00    -0.472 NA 
HETATM   27  C   UNL     1     -11.635  16.208  71.389  1.00  0.00    -0.431 C  
HETATM   28  H   UNL     1     -11.314  17.250  73.171  1.00  0.00     0.000 HD 
HETATM   29  C   UNL     1     -12.716  15.341  70.707  1.00  0.00    -0.433 C  
ENDBRANCH  21  23
ENDBRANCH  15  17
ENDBRANCH  11  15
BRANCH  12  30
HETATM   30  C   UNL     1      -8.619  10.018  66.093  1.00  0.00    -0.133 C  
HETATM   31  C   UNL     1     -10.289  11.344  64.968  1.00  0.00    -0.342 C  
HETATM   32  C   UNL     1      -8.693  11.376  66.820  1.00  0.00    -0.174 C  
HETATM   33  C   UNL     1      -9.845  12.156  66.176  1.00  0.00    -0.254 C  
HETATM   34  C   UNL     1      -9.950   9.906  65.333  1.00  0.00    -0.349 C  
ENDBRANCH  12  30
ENDBRANCH   4   6
TORSDOF 5
ENDMDL
MODEL       47
REMARK 921   NORMALIZED FREE ENERGY PREDICTED BY IDOCK:   -6.11 KCAL/MOL
REMARK 922        TOTAL FREE ENERGY PREDICTED BY IDOCK:   -8.78 KCAL/MOL
REMARK 923 INTER-LIGAND FREE ENERGY PREDICTED BY IDOCK:   -8.59 KCAL/MOL
REMARK 924 INTRA-LIGAND FREE ENERGY PREDICTED BY IDOCK:   -0.19 KCAL/MOL
REMARK 927      BINDING AFFINITY PREDICTED BY RF-SCORE:    0.00 PKD
ROOT
HETATM    1  C   UNL     1     -11.240  16.746  64.718  1.00  0.00     0.040 C  
HETATM    2  N   UNL     1     -10.641  15.435  64.910  1.00  0.00    -0.402 N  
HETATM    3  C   UNL     1      -9.575  15.347  65.903  1.00  0.00    -0.351 C  
HETATM    4  C   UNL     1     -11.397  14.329  64.465  1.00  0.00    -0.334 C  
HETATM    5  O   UNL     1     -12.516  14.497  63.979  1.00  0.00    -0.778 OA 
ENDROOT
BRANCH   4   6
HETATM    6  C   UNL     1     -10.793  13.003  64.553  1.00  0.00    -0.372 A  
HETATM    7  C   UNL     1     -10.223  12.292  63.504  1.00  0.00    -0.410 A  
HETATM    8  C   UNL     1      -9.711  11.083  63.986  1.00  0.00    -0.333 A  
HETATM    9  C   UNL     1      -8.995  10.026  63.452  1.00  0.00    -0.257 A  
HETATM   10  N   UNL     1      -8.749   8.940  64.208  1.00  0.00    -0.123 NA 
HETATM   11  C   UNL     1      -9.221   8.901  65.470  1.00  0.00    -0.178 A  
HETATM   12  N   UNL     1     -10.786  12.133  65.656  1.00  0.00    -0.265 NA 
HETATM   13  N   UNL     1      -9.868   9.909  66.090  1.00  0.00    -0.241 NA 
HETATM   14  C   UNL     1     -10.095  10.979  65.303  1.00  0.00    -0.275 A  
BRANCH  11  15
HETATM   15  N   UNL     1      -9.026   7.675  66.097  1.00  0.00    -0.196 NA 
HETATM   16  H   UNL     1      -8.448   7.019  65.570  1.00  0.00     0.000 HD 
BRANCH  15  17
HETATM   17  C   UNL     1      -9.481   7.189  67.314  1.00  0.00    -0.140 A  
HETATM   18  C   UNL     1     -10.740   6.646  67.492  1.00  0.00    -0.387 A  
HETATM   19  C   UNL     1     -11.123   6.138  68.736  1.00  0.00    -0.398 A  
HETATM   20  N   UNL     1      -8.621   7.266  68.349  1.00  0.00    -0.124 NA 
HETATM   21  C   UNL     1     -10.264   6.175  69.830  1.00  0.00    -0.195 A  
HETATM   22  C   UNL     1      -9.025   6.759  69.550  1.00  0.00    -0.139 A  
BRANCH  21  23
HETATM   23  N   UNL     1     -10.600   5.652  71.060  1.00  0.00    -0.248 NA 
HETATM   24  C   UNL     1      -9.794   4.598  71.701  1.00  0.00    -0.187 C  
HETATM   25  C   UNL     1      -9.114   5.143  72.982  1.00  0.00    -0.124 C  
HETATM   26  N   UNL     1     -10.053   5.763  73.937  1.00  0.00    -0.208 NA 
HETATM   27  C   UNL     1     -10.825   6.817  73.247  1.00  0.00    -0.272 C  
HETATM   28  H   UNL     1      -9.582   6.113  74.772  1.00  0.00     0.000 HD 
HETATM   29  C   UNL     1     -11.549   6.303  71.983  1.00  0.00    -0.322 C  
ENDBRANCH  21  23
ENDBRANCH  15  17
ENDBRANCH  11  15
BRANCH  12  30
HETATM   30  C   UNL     1     -11.447  12.343  66.941  1.00  0.00    -0.360 C  
HETATM   31  C   UNL     1     -11.323  13.141  69.212  1.00  0.00    -0.312 C  
HETATM   32  C   UNL     1     -12.375  13.570  67.048  1.00  0.00    -0.260 C  
HETATM   33  C   UNL     1     -12.186  14.141  68.458  1.00  0.00    -0.204 C  
HETATM   34  C   UNL     1     -10.485  12.473  68.131  1.00  0.00    -0.238 C  
ENDBRANCH  12  30
ENDBRANCH   4   6
TORSDOF 5
ENDMDL
MODEL       48
REMARK 921   NORMALIZED FREE ENERGY PREDICTED BY IDOCK:   -6.06 KCAL/MOL
REMARK 922        TOTAL FREE ENERGY PREDICTED BY IDOCK:   -8.73 KCAL/MOL
REMARK 923 INTER-LIGAND FREE ENERGY PREDICTED BY IDOCK:   -7.75 KCAL/MOL
REMARK 924 INTRA-LIGAND FREE ENERGY PREDICTED BY IDOCK:   -0.97 KCAL/MOL
REMARK 927      BINDING AFFINITY PREDICTED BY RF-SCORE:    0.00 PKD
ROOT
HETATM    1  C   UNL     1      -7.217   3.557  72.439  1.00  0.00    -0.048 C  
HETATM    2  N   UNL     1      -8.298   4.423  71.999  1.00  0.00    -0.109 N  
HETATM    3  C   UNL     1      -9.259   3.839  71.068  1.00  0.00    -0.130 C  
HETATM    4  C   UNL     1      -8.567   5.551  72.805  1.00  0.00    -0.120 C  
HETATM    5  O   UNL     1      -7.926   5.741  73.838  1.00  0.00    -0.106 OA 
ENDROOT
BRANCH   4   6
HETATM    6  C   UNL     1      -9.582   6.496  72.349  1.00  0.00    -0.145 A  
HETATM    7  C   UNL     1     -10.898   6.558  72.789  1.00  0.00    -0.280 A  
HETATM    8  C   UNL     1     -11.551   7.621  72.154  1.00  0.00    -0.354 A  
HETATM    9  C   UNL     1     -12.804   8.203  72.231  1.00  0.00    -0.231 A  
HETATM   10  N   UNL     1     -13.136   9.181  71.369  1.00  0.00    -0.325 NA 
HETATM   11  C   UNL     1     -12.241   9.563  70.437  1.00  0.00     0.060 A  
HETATM   12  N   UNL     1      -9.484   7.422  71.297  1.00  0.00    -0.154 NA 
HETATM   13  N   UNL     1     -10.979   9.099  70.333  1.00  0.00    -0.239 NA 
HETATM   14  C   UNL     1     -10.682   8.122  71.213  1.00  0.00    -0.227 A  
BRANCH  11  15
HETATM   15  N   UNL     1     -12.751  10.476  69.520  1.00  0.00    -0.640 NA 
HETATM   16  H   UNL     1     -13.734  10.335  69.286  1.00  0.00     0.000 HD 
BRANCH  15  17
HETATM   17  C   UNL     1     -12.155  11.547  68.869  1.00  0.00    -0.206 A  
HETATM   18  C   UNL     1     -11.858  12.745  69.491  1.00  0.00    -0.379 A  
HETATM   19  C   UNL     1     -11.222  13.770  68.788  1.00  0.00    -0.303 A  
HETATM   20  N   UNL     1     -11.865  11.368  67.565  1.00  0.00    -0.627 NA 
HETATM   21  C   UNL     1     -10.883  13.627  67.445  1.00  0.00    -0.273 A  
HETATM   22  C   UNL     1     -11.242  12.388  66.906  1.00  0.00    -0.305 A  
BRANCH  21  23
HETATM   23  N   UNL     1     -10.226  14.608  66.734  1.00  0.00    -0.264 NA 
HETATM   24  C   UNL     1     -10.432  14.784  65.285  1.00  0.00    -0.404 C  
HETATM   25  C   UNL     1     -11.137  16.134  65.001  1.00  0.00    -0.294 C  
HETATM   26  N   UNL     1     -10.455  17.299  65.597  1.00  0.00    -0.590 NA 
HETATM   27  C   UNL     1     -10.285  17.074  67.048  1.00  0.00    -0.303 C  
HETATM   28  H   UNL     1     -10.938  18.175  65.396  1.00  0.00     0.000 HD 
HETATM   29  C   UNL     1      -9.552  15.755  67.371  1.00  0.00    -0.217 C  
ENDBRANCH  21  23
ENDBRANCH  15  17
ENDBRANCH  11  15
BRANCH  12  30
HETATM   30  C   UNL     1      -8.358   7.592  70.384  1.00  0.00    -0.124 C  
HETATM   31  C   UNL     1      -7.556   7.769  68.117  1.00  0.00    -0.116 C  
HETATM   32  C   UNL     1      -7.834   9.030  70.192  1.00  0.00    -0.100 C  
HETATM   33  C   UNL     1      -7.449   9.164  68.715  1.00  0.00    -0.076 C  
HETATM   34  C   UNL     1      -8.617   7.076  68.960  1.00  0.00    -0.129 C  
ENDBRANCH  12  30
ENDBRANCH   4   6
TORSDOF 5
ENDMDL
MODEL       49
REMARK 921   NORMALIZED FREE ENERGY PREDICTED BY IDOCK:   -5.98 KCAL/MOL
REMARK 922        TOTAL FREE ENERGY PREDICTED BY IDOCK:   -8.62 KCAL/MOL
REMARK 923 INTER-LIGAND FREE ENERGY PREDICTED BY IDOCK:   -7.78 KCAL/MOL
REMARK 924 INTRA-LIGAND FREE ENERGY PREDICTED BY IDOCK:   -0.84 KCAL/MOL
REMARK 927      BINDING AFFINITY PREDICTED BY RF-SCORE:    0.00 PKD
ROOT
HETATM    1  C   UNL     1     -10.128  19.910  67.149  1.00  0.00    -0.438 C  
HETATM    2  N   UNL     1      -9.494  18.609  67.020  1.00  0.00    -0.291 N  
HETATM    3  C   UNL     1      -8.379  18.520  66.081  1.00  0.00    -0.141 C  
HETATM    4  C   UNL     1      -9.707  17.699  68.079  1.00  0.00    -0.301 C  
HETATM    5  O   UNL     1     -10.370  18.034  69.060  1.00  0.00    -0.350 OA 
ENDROOT
BRANCH   4   6
HETATM    6  C   UNL     1      -9.165  16.350  67.945  1.00  0.00    -0.202 A  
HETATM    7  C   UNL     1      -7.903  15.932  68.347  1.00  0.00    -0.145 A  
HETATM    8  C   UNL     1      -7.765  14.563  68.095  1.00  0.00    -0.128 A  
HETATM    9  C   UNL     1      -6.796  13.603  68.333  1.00  0.00    -0.102 A  
HETATM   10  N   UNL     1      -6.959  12.360  67.848  1.00  0.00    -0.093 NA 
HETATM   11  C   UNL     1      -8.061  12.079  67.124  1.00  0.00    -0.177 A  
HETATM   12  N   UNL     1      -9.737  15.256  67.275  1.00  0.00    -0.212 NA 
HETATM   13  N   UNL     1      -9.082  12.930  66.900  1.00  0.00    -0.224 NA 
HETATM   14  C   UNL     1      -8.884  14.165  67.402  1.00  0.00    -0.206 A  
BRANCH  11  15
HETATM   15  N   UNL     1      -8.045  10.808  66.560  1.00  0.00    -0.140 NA 
HETATM   16  H   UNL     1      -7.474  10.727  65.718  1.00  0.00     0.000 HD 
BRANCH  15  17
HETATM   17  C   UNL     1      -8.671   9.630  66.943  1.00  0.00    -0.131 A  
HETATM   18  C   UNL     1      -9.831   9.161  66.355  1.00  0.00    -0.350 A  
HETATM   19  C   UNL     1     -10.390   7.947  66.761  1.00  0.00    -0.357 A  
HETATM   20  N   UNL     1      -8.085   8.938  67.940  1.00  0.00    -0.106 NA 
HETATM   21  C   UNL     1      -9.812   7.185  67.772  1.00  0.00    -0.145 A  
HETATM   22  C   UNL     1      -8.655   7.755  68.312  1.00  0.00    -0.124 A  
BRANCH  21  23
HETATM   23  N   UNL     1     -10.322   5.968  68.172  1.00  0.00    -0.182 NA 
HETATM   24  C   UNL     1     -10.017   4.724  67.443  1.00  0.00    -0.159 C  
HETATM   25  C   UNL     1      -9.158   3.780  68.321  1.00  0.00    -0.143 C  
HETATM   26  N   UNL     1      -9.745   3.502  69.647  1.00  0.00    -0.112 NA 
HETATM   27  C   UNL     1     -10.019   4.780  70.336  1.00  0.00    -0.245 C  
HETATM   28  H   UNL     1      -9.162   2.878  70.205  1.00  0.00     0.000 HD 
HETATM   29  C   UNL     1     -10.905   5.734  69.506  1.00  0.00    -0.340 C  
ENDBRANCH  21  23
ENDBRANCH  15  17
ENDBRANCH  11  15
BRANCH  12  30
HETATM   30  C   UNL     1     -10.977  15.254  66.502  1.00  0.00    -0.295 C  
HETATM   31  C   UNL     1     -12.144  14.630  64.487  1.00  0.00    -0.490 C  
HETATM   32  C   UNL     1     -12.031  14.197  66.890  1.00  0.00    -0.479 C  
HETATM   33  C   UNL     1     -12.674  13.718  65.584  1.00  0.00    -0.523 C  
HETATM   34  C   UNL     1     -10.777  15.072  64.990  1.00  0.00    -0.448 C  
ENDBRANCH  12  30
ENDBRANCH   4   6
TORSDOF 5
ENDMDL
MODEL       50
REMARK 921   NORMALIZED FREE ENERGY PREDICTED BY IDOCK:   -5.98 KCAL/MOL
REMARK 922        TOTAL FREE ENERGY PREDICTED BY IDOCK:   -8.62 KCAL/MOL
REMARK 923 INTER-LIGAND FREE ENERGY PREDICTED BY IDOCK:   -8.53 KCAL/MOL
REMARK 924 INTRA-LIGAND FREE ENERGY PREDICTED BY IDOCK:   -0.09 KCAL/MOL
REMARK 927      BINDING AFFINITY PREDICTED BY RF-SCORE:    0.00 PKD
ROOT
HETATM    1  C   UNL     1     -10.907  19.839  65.520  1.00  0.00    -0.151 C  
HETATM    2  N   UNL     1     -10.445  18.700  66.295  1.00  0.00    -0.434 N  
HETATM    3  C   UNL     1     -10.339  18.896  67.738  1.00  0.00    -0.421 C  
HETATM    4  C   UNL     1     -10.556  17.434  65.678  1.00  0.00    -0.153 C  
HETATM    5  O   UNL     1     -11.055  17.332  64.558  1.00  0.00    -1.082 OA 
ENDROOT
BRANCH   4   6
HETATM    6  C   UNL     1     -10.018  16.275  66.385  1.00  0.00    -0.300 A  
HETATM    7  C   UNL     1      -8.899  16.267  67.209  1.00  0.00    -0.204 A  
HETATM    8  C   UNL     1      -8.723  14.984  67.740  1.00  0.00    -0.167 A  
HETATM    9  C   UNL     1      -7.858  14.396  68.646  1.00  0.00    -0.140 A  
HETATM   10  N   UNL     1      -7.915  13.068  68.853  1.00  0.00     0.080 NA 
HETATM   11  C   UNL     1      -8.809  12.335  68.160  1.00  0.00    -0.187 A  
HETATM   12  N   UNL     1     -10.424  14.936  66.273  1.00  0.00    -0.292 NA 
HETATM   13  N   UNL     1      -9.732  12.833  67.312  1.00  0.00    -0.202 NA 
HETATM   14  C   UNL     1      -9.645  14.166  67.130  1.00  0.00    -0.244 A  
BRANCH  11  15
HETATM   15  N   UNL     1      -8.674  10.965  68.356  1.00  0.00    -0.140 NA 
HETATM   16  H   UNL     1      -8.388  10.446  67.526  1.00  0.00     0.000 HD 
BRANCH  15  17
HETATM   17  C   UNL     1      -8.861  10.181  69.486  1.00  0.00    -0.182 A  
HETATM   18  C   UNL     1      -7.818   9.660  70.229  1.00  0.00    -0.193 A  
HETATM   19  C   UNL     1      -8.075   8.910  71.379  1.00  0.00    -0.160 A  
HETATM   20  N   UNL     1     -10.138   9.941  69.843  1.00  0.00    -0.245 NA 
HETATM   21  C   UNL     1      -9.375   8.652  71.802  1.00  0.00    -0.273 A  
HETATM   22  C   UNL     1     -10.355   9.207  70.973  1.00  0.00    -0.293 A  
BRANCH  21  23
HETATM   23  N   UNL     1      -9.659   7.943  72.950  1.00  0.00    -0.236 NA 
HETATM   24  C   UNL     1     -10.952   7.262  73.140  1.00  0.00    -0.340 C  
HETATM   25  C   UNL     1     -10.754   5.726  73.167  1.00  0.00    -0.262 C  
HETATM   26  N   UNL     1      -9.752   5.271  74.150  1.00  0.00    -0.150 NA 
HETATM   27  C   UNL     1      -8.476   5.975  73.906  1.00  0.00    -0.116 C  
HETATM   28  H   UNL     1      -9.641   4.257  74.148  1.00  0.00     0.000 HD 
HETATM   29  C   UNL     1      -8.626   7.512  73.910  1.00  0.00    -0.218 C  
ENDBRANCH  21  23
ENDBRANCH  15  17
ENDBRANCH  11  15
BRANCH  12  30
HETATM   30  C   UNL     1     -11.435  14.401  65.366  1.00  0.00    -0.344 C  
HETATM   31  C   UNL     1     -12.029  12.811  63.654  1.00  0.00    -0.616 C  
HETATM   32  C   UNL     1     -12.468  13.432  65.977  1.00  0.00    -0.431 C  
HETATM   33  C   UNL     1     -12.737  12.354  64.920  1.00  0.00    -0.256 C  
HETATM   34  C   UNL     1     -10.862  13.650  64.154  1.00  0.00    -0.178 C  
ENDBRANCH  12  30
ENDBRANCH   4   6
TORSDOF 5
ENDMDL
MODEL       51
REMARK 921   NORMALIZED FREE ENERGY PREDICTED BY IDOCK:   -5.97 KCAL/MOL
REMARK 922        TOTAL FREE ENERGY PREDICTED BY IDOCK:   -8.61 KCAL/MOL
REMARK 923 INTER-LIGAND FREE ENERGY PREDICTED BY IDOCK:   -7.71 KCAL/MOL
REMARK 924 INTRA-LIGAND FREE ENERGY PREDICTED BY IDOCK:   -0.90 KCAL/MOL
REMARK 927      BINDING AFFINITY PREDICTED BY RF-SCORE:    0.00 PKD
ROOT
HETATM    1  C   UNL     1     -10.621  19.939  67.078  1.00  0.00    -0.405 C  
HETATM    2  N   UNL     1     -10.674  18.490  66.989  1.00  0.00    -0.372 N  
HETATM    3  C   UNL     1     -10.690  17.921  65.644  1.00  0.00    -0.052 C  
HETATM    4  C   UNL     1     -10.281  17.776  68.142  1.00  0.00    -0.382 C  
HETATM    5  O   UNL     1      -9.885  18.379  69.139  1.00  0.00    -0.290 OA 
ENDROOT
BRANCH   4   6
HETATM    6  C   UNL     1     -10.409  16.321  68.127  1.00  0.00    -0.277 A  
HETATM    7  C   UNL     1     -11.545  15.596  68.463  1.00  0.00    -0.378 A  
HETATM    8  C   UNL     1     -11.295  14.231  68.283  1.00  0.00    -0.314 A  
HETATM    9  C   UNL     1     -12.036  13.066  68.383  1.00  0.00    -0.271 A  
HETATM   10  N   UNL     1     -11.426  11.877  68.232  1.00  0.00    -0.286 NA 
HETATM   11  C   UNL     1     -10.098  11.847  67.999  1.00  0.00    -0.195 A  
HETATM   12  N   UNL     1      -9.397  15.372  67.911  1.00  0.00    -0.192 NA 
HETATM   13  N   UNL     1      -9.316  12.930  67.821  1.00  0.00    -0.195 NA 
HETATM   14  C   UNL     1      -9.961  14.103  67.979  1.00  0.00    -0.226 A  
BRANCH  11  15
HETATM   15  N   UNL     1      -9.564  10.563  68.004  1.00  0.00    -0.146 NA 
HETATM   16  H   UNL     1      -9.044  10.319  67.160  1.00  0.00     0.000 HD 
BRANCH  15  17
HETATM   17  C   UNL     1      -9.614   9.556  68.957  1.00  0.00    -0.166 A  
HETATM   18  C   UNL     1     -10.314   8.376  68.779  1.00  0.00    -0.225 A  
HETATM   19  C   UNL     1     -10.292   7.385  69.762  1.00  0.00    -0.226 A  
HETATM   20  N   UNL     1      -8.932   9.777  70.098  1.00  0.00    -0.228 NA 
HETATM   21  C   UNL     1      -9.586   7.556  70.949  1.00  0.00    -0.165 A  
HETATM   22  C   UNL     1      -8.929   8.787  71.038  1.00  0.00    -0.217 A  
BRANCH  21  23
HETATM   23  N   UNL     1      -9.519   6.583  71.923  1.00  0.00    -0.152 NA 
HETATM   24  C   UNL     1      -9.042   6.882  73.285  1.00  0.00    -0.135 C  
HETATM   25  C   UNL     1     -10.199   6.732  74.306  1.00  0.00    -0.278 C  
HETATM   26  N   UNL     1     -10.881   5.425  74.245  1.00  0.00    -0.418 NA 
HETATM   27  C   UNL     1     -11.347   5.183  72.864  1.00  0.00    -0.282 C  
HETATM   28  H   UNL     1     -11.637   5.351  74.927  1.00  0.00     0.000 HD 
HETATM   29  C   UNL     1     -10.214   5.286  71.820  1.00  0.00    -0.210 C  
ENDBRANCH  21  23
ENDBRANCH  15  17
ENDBRANCH  11  15
BRANCH  12  30
HETATM   30  C   UNL     1      -7.973  15.638  67.721  1.00  0.00    -0.144 C  
HETATM   31  C   UNL     1      -6.249  17.024  66.762  1.00  0.00    -0.245 C  
HETATM   32  C   UNL     1      -7.237  16.328  68.887  1.00  0.00    -0.190 C  
HETATM   33  C   UNL     1      -6.233  17.300  68.258  1.00  0.00    -0.149 C  
HETATM   34  C   UNL     1      -7.651  16.498  66.490  1.00  0.00    -0.304 C  
ENDBRANCH  12  30
ENDBRANCH   4   6
TORSDOF 5
ENDMDL
MODEL       52
REMARK 921   NORMALIZED FREE ENERGY PREDICTED BY IDOCK:   -5.96 KCAL/MOL
REMARK 922        TOTAL FREE ENERGY PREDICTED BY IDOCK:   -8.60 KCAL/MOL
REMARK 923 INTER-LIGAND FREE ENERGY PREDICTED BY IDOCK:   -8.21 KCAL/MOL
REMARK 924 INTRA-LIGAND FREE ENERGY PREDICTED BY IDOCK:   -0.39 KCAL/MOL
REMARK 927      BINDING AFFINITY PREDICTED BY RF-SCORE:    0.00 PKD
ROOT
HETATM    1  C   UNL     1     -10.460  17.222  67.832  1.00  0.00    -0.382 C  
HETATM    2  N   UNL     1     -10.819  16.145  68.738  1.00  0.00    -0.290 N  
HETATM    3  C   UNL     1     -10.804  16.463  70.163  1.00  0.00    -0.261 C  
HETATM    4  C   UNL     1     -11.542  15.068  68.179  1.00  0.00    -0.340 C  
HETATM    5  O   UNL     1     -11.866  15.090  66.992  1.00  0.00    -0.272 OA 
ENDROOT
BRANCH   4   6
HETATM    6  C   UNL     1     -11.841  13.923  69.034  1.00  0.00    -0.358 A  
HETATM    7  C   UNL     1     -12.507  13.964  70.252  1.00  0.00    -0.380 A  
HETATM    8  C   UNL     1     -12.643  12.664  70.751  1.00  0.00    -0.302 A  
HETATM    9  C   UNL     1     -13.255  12.082  71.848  1.00  0.00    -0.364 A  
HETATM   10  N   UNL     1     -13.093  10.766  72.078  1.00  0.00    -0.464 NA 
HETATM   11  C   UNL     1     -12.324  10.045  71.238  1.00  0.00    -0.398 A  
HETATM   12  N   UNL     1     -11.408  12.597  68.876  1.00  0.00    -0.278 NA 
HETATM   13  N   UNL     1     -11.749  10.515  70.113  1.00  0.00    -0.299 NA 
HETATM   14  C   UNL     1     -11.933  11.835  69.915  1.00  0.00    -0.332 A  
BRANCH  11  15
HETATM   15  N   UNL     1     -12.120   8.736  71.660  1.00  0.00    -0.316 NA 
HETATM   16  H   UNL     1     -12.714   8.445  72.438  1.00  0.00     0.000 HD 
BRANCH  15  17
HETATM   17  C   UNL     1     -11.249   7.755  71.208  1.00  0.00    -0.255 A  
HETATM   18  C   UNL     1      -9.908   7.717  71.542  1.00  0.00    -0.200 A  
HETATM   19  C   UNL     1      -9.093   6.680  71.084  1.00  0.00    -0.152 A  
HETATM   20  N   UNL     1     -11.777   6.809  70.406  1.00  0.00    -0.372 NA 
HETATM   21  C   UNL     1      -9.595   5.668  70.271  1.00  0.00    -0.168 A  
HETATM   22  C   UNL     1     -10.954   5.808  69.977  1.00  0.00    -0.311 A  
BRANCH  21  23
HETATM   23  N   UNL     1      -8.823   4.614  69.831  1.00  0.00    -0.087 NA 
HETATM   24  C   UNL     1      -8.415   3.523  70.733  1.00  0.00    -0.069 C  
HETATM   25  C   UNL     1      -9.093   2.194  70.314  1.00  0.00    -0.097 C  
HETATM   26  N   UNL     1      -8.877   1.836  68.899  1.00  0.00    -0.076 NA 
HETATM   27  C   UNL     1      -9.313   2.957  68.041  1.00  0.00    -0.205 C  
HETATM   28  H   UNL     1      -9.332   0.958  68.648  1.00  0.00     0.000 HD 
HETATM   29  C   UNL     1      -8.629   4.294  68.404  1.00  0.00    -0.094 C  
ENDBRANCH  21  23
ENDBRANCH  15  17
ENDBRANCH  11  15
BRANCH  12  30
HETATM   30  C   UNL     1     -10.502  12.088  67.851  1.00  0.00    -0.202 C  
HETATM   31  C   UNL     1      -8.786  10.517  67.218  1.00  0.00    -0.126 C  
HETATM   32  C   UNL     1     -11.111  11.141  66.797  1.00  0.00    -0.280 C  
HETATM   33  C   UNL     1     -10.052  10.073  66.501  1.00  0.00    -0.296 C  
HETATM   34  C   UNL     1      -9.286  11.328  68.405  1.00  0.00    -0.181 C  
ENDBRANCH  12  30
ENDBRANCH   4   6
TORSDOF 5
ENDMDL
MODEL       53
REMARK 921   NORMALIZED FREE ENERGY PREDICTED BY IDOCK:   -5.96 KCAL/MOL
REMARK 922        TOTAL FREE ENERGY PREDICTED BY IDOCK:   -8.59 KCAL/MOL
REMARK 923 INTER-LIGAND FREE ENERGY PREDICTED BY IDOCK:   -8.27 KCAL/MOL
REMARK 924 INTRA-LIGAND FREE ENERGY PREDICTED BY IDOCK:   -0.32 KCAL/MOL
REMARK 927      BINDING AFFINITY PREDICTED BY RF-SCORE:    0.00 PKD
ROOT
HETATM    1  C   UNL     1      -8.037   4.358  64.052  1.00  0.00    -0.095 C  
HETATM    2  N   UNL     1      -8.829   4.697  65.222  1.00  0.00    -0.139 N  
HETATM    3  C   UNL     1     -10.236   4.308  65.189  1.00  0.00    -0.211 C  
HETATM    4  C   UNL     1      -8.113   4.964  66.409  1.00  0.00    -0.107 C  
HETATM    5  O   UNL     1      -6.885   4.869  66.428  1.00  0.00    -0.059 OA 
ENDROOT
BRANCH   4   6
HETATM    6  C   UNL     1      -8.864   5.399  67.583  1.00  0.00    -0.105 A  
HETATM    7  C   UNL     1      -9.367   4.577  68.584  1.00  0.00    -0.199 A  
HETATM    8  C   UNL     1      -9.989   5.362  69.561  1.00  0.00    -0.289 A  
HETATM    9  C   UNL     1     -10.591   5.128  70.785  1.00  0.00    -0.135 A  
HETATM   10  N   UNL     1     -11.195   6.140  71.432  1.00  0.00    -0.289 NA 
HETATM   11  C   UNL     1     -11.213   7.363  70.864  1.00  0.00    -0.270 A  
HETATM   12  N   UNL     1      -9.345   6.688  67.867  1.00  0.00    -0.111 NA 
HETATM   13  N   UNL     1     -10.597   7.693  69.711  1.00  0.00    -0.242 NA 
HETATM   14  C   UNL     1     -10.002   6.654  69.092  1.00  0.00    -0.157 A  
BRANCH  11  15
HETATM   15  N   UNL     1     -11.986   8.286  71.559  1.00  0.00    -0.286 NA 
HETATM   16  H   UNL     1     -12.468   7.905  72.374  1.00  0.00     0.000 HD 
BRANCH  15  17
HETATM   17  C   UNL     1     -12.217   9.636  71.336  1.00  0.00    -0.385 A  
HETATM   18  C   UNL     1     -13.113  10.386  72.077  1.00  0.00    -0.521 A  
HETATM   19  C   UNL     1     -13.270  11.751  71.828  1.00  0.00    -0.434 A  
HETATM   20  N   UNL     1     -11.512  10.208  70.340  1.00  0.00    -0.299 NA 
HETATM   21  C   UNL     1     -12.550  12.392  70.824  1.00  0.00    -0.211 A  
HETATM   22  C   UNL     1     -11.687  11.544  70.123  1.00  0.00    -0.309 A  
BRANCH  21  23
HETATM   23  N   UNL     1     -12.659  13.744  70.576  1.00  0.00    -0.317 NA 
HETATM   24  C   UNL     1     -13.591  14.598  71.334  1.00  0.00    -0.404 C  
HETATM   25  C   UNL     1     -12.808  15.608  72.209  1.00  0.00    -0.441 C  
HETATM   26  N   UNL     1     -11.826  16.412  71.456  1.00  0.00    -0.663 NA 
HETATM   27  C   UNL     1     -10.912  15.508  70.727  1.00  0.00    -0.325 C  
HETATM   28  H   UNL     1     -11.324  17.069  72.054  1.00  0.00     0.000 HD 
HETATM   29  C   UNL     1     -11.655  14.510  69.813  1.00  0.00    -0.295 C  
ENDBRANCH  21  23
ENDBRANCH  15  17
ENDBRANCH  11  15
BRANCH  12  30
HETATM   30  C   UNL     1      -9.253   7.865  67.007  1.00  0.00    -0.148 C  
HETATM   31  C   UNL     1     -10.124  10.021  66.371  1.00  0.00    -0.307 C  
HETATM   32  C   UNL     1      -8.195   8.920  67.391  1.00  0.00    -0.108 C  
HETATM   33  C   UNL     1      -8.816  10.290  67.099  1.00  0.00    -0.141 C  
HETATM   34  C   UNL     1     -10.564   8.655  66.876  1.00  0.00    -0.270 C  
ENDBRANCH  12  30
ENDBRANCH   4   6
TORSDOF 5
ENDMDL
MODEL       54
REMARK 921   NORMALIZED FREE ENERGY PREDICTED BY IDOCK:   -5.94 KCAL/MOL
REMARK 922        TOTAL FREE ENERGY PREDICTED BY IDOCK:   -8.56 KCAL/MOL
REMARK 923 INTER-LIGAND FREE ENERGY PREDICTED BY IDOCK:   -7.67 KCAL/MOL
REMARK 924 INTRA-LIGAND FREE ENERGY PREDICTED BY IDOCK:   -0.89 KCAL/MOL
REMARK 927      BINDING AFFINITY PREDICTED BY RF-SCORE:    0.00 PKD
ROOT
HETATM    1  C   UNL     1     -12.737   7.113  71.165  1.00  0.00    -0.315 C  
HETATM    2  N   UNL     1     -11.683   8.107  71.050  1.00  0.00    -0.285 N  
HETATM    3  C   UNL     1     -11.722   9.208  72.007  1.00  0.00    -0.314 C  
HETATM    4  C   UNL     1     -10.523   7.713  70.348  1.00  0.00    -0.220 C  
HETATM    5  O   UNL     1     -10.426   6.569  69.903  1.00  0.00    -0.191 OA 
ENDROOT
BRANCH   4   6
HETATM    6  C   UNL     1      -9.480   8.711  70.129  1.00  0.00    -0.164 A  
HETATM    7  C   UNL     1      -8.258   8.774  70.787  1.00  0.00    -0.178 A  
HETATM    8  C   UNL     1      -7.510   9.841  70.275  1.00  0.00    -0.173 A  
HETATM    9  C   UNL     1      -6.237  10.344  70.474  1.00  0.00    -0.113 A  
HETATM   10  N   UNL     1      -5.871  11.486  69.864  1.00  0.00    -0.105 NA 
HETATM   11  C   UNL     1      -6.763  12.124  69.080  1.00  0.00    -0.103 A  
HETATM   12  N   UNL     1      -9.549   9.865  69.331  1.00  0.00    -0.202 NA 
HETATM   13  N   UNL     1      -7.997  11.671  68.779  1.00  0.00    -0.122 NA 
HETATM   14  C   UNL     1      -8.328  10.526  69.407  1.00  0.00    -0.106 A  
BRANCH  11  15
HETATM   15  N   UNL     1      -6.316  13.359  68.623  1.00  0.00    -0.084 NA 
HETATM   16  H   UNL     1      -5.326  13.385  68.378  1.00  0.00     0.000 HD 
BRANCH  15  17
HETATM   17  C   UNL     1      -6.983  14.563  68.443  1.00  0.00    -0.107 A  
HETATM   18  C   UNL     1      -7.951  14.757  67.475  1.00  0.00    -0.207 A  
HETATM   19  C   UNL     1      -8.613  15.982  67.372  1.00  0.00    -0.194 A  
HETATM   20  N   UNL     1      -6.641  15.566  69.275  1.00  0.00    -0.136 NA 
HETATM   21  C   UNL     1      -8.311  17.043  68.221  1.00  0.00    -0.228 A  
HETATM   22  C   UNL     1      -7.308  16.750  69.149  1.00  0.00    -0.213 A  
BRANCH  21  23
HETATM   23  N   UNL     1      -8.970  18.253  68.165  1.00  0.00    -0.294 NA 
HETATM   24  C   UNL     1      -8.255  19.532  68.322  1.00  0.00    -0.338 C  
HETATM   25  C   UNL     1      -8.284  20.333  66.995  1.00  0.00    -0.318 C  
HETATM   26  N   UNL     1      -9.642  20.533  66.450  1.00  0.00    -0.654 NA 
HETATM   27  C   UNL     1     -10.306  19.222  66.303  1.00  0.00    -0.480 C  
HETATM   28  H   UNL     1      -9.634  21.063  65.579  1.00  0.00     0.000 HD 
HETATM   29  C   UNL     1     -10.330  18.409  67.616  1.00  0.00    -0.405 C  
ENDBRANCH  21  23
ENDBRANCH  15  17
ENDBRANCH  11  15
BRANCH  12  30
HETATM   30  C   UNL     1     -10.712  10.353  68.597  1.00  0.00    -0.218 C  
HETATM   31  C   UNL     1     -12.029  12.224  67.838  1.00  0.00    -0.240 C  
HETATM   32  C   UNL     1     -10.586  10.411  67.061  1.00  0.00    -0.305 C  
HETATM   33  C   UNL     1     -11.321  11.677  66.608  1.00  0.00    -0.338 C  
HETATM   34  C   UNL     1     -11.171  11.762  69.006  1.00  0.00    -0.324 C  
ENDBRANCH  12  30
ENDBRANCH   4   6
TORSDOF 5
ENDMDL
MODEL       55
REMARK 921   NORMALIZED FREE ENERGY PREDICTED BY IDOCK:   -5.91 KCAL/MOL
REMARK 922        TOTAL FREE ENERGY PREDICTED BY IDOCK:   -8.53 KCAL/MOL
REMARK 923 INTER-LIGAND FREE ENERGY PREDICTED BY IDOCK:   -7.65 KCAL/MOL
REMARK 924 INTRA-LIGAND FREE ENERGY PREDICTED BY IDOCK:   -0.88 KCAL/MOL
REMARK 927      BINDING AFFINITY PREDICTED BY RF-SCORE:    0.00 PKD
ROOT
HETATM    1  C   UNL     1      -5.202  20.572  68.172  1.00  0.00    -0.227 C  
HETATM    2  N   UNL     1      -5.806  19.267  68.383  1.00  0.00    -0.208 N  
HETATM    3  C   UNL     1      -6.017  18.865  69.770  1.00  0.00    -0.257 C  
HETATM    4  C   UNL     1      -6.505  18.716  67.287  1.00  0.00    -0.195 C  
HETATM    5  O   UNL     1      -6.610  19.349  66.237  1.00  0.00    -0.186 OA 
ENDROOT
BRANCH   4   6
HETATM    6  C   UNL     1      -7.047  17.367  67.426  1.00  0.00    -0.164 A  
HETATM    7  C   UNL     1      -6.331  16.182  67.312  1.00  0.00    -0.204 A  
HETATM    8  C   UNL     1      -7.183  15.099  67.552  1.00  0.00    -0.227 A  
HETATM    9  C   UNL     1      -7.039  13.725  67.646  1.00  0.00    -0.176 A  
HETATM   10  N   UNL     1      -8.130  12.952  67.792  1.00  0.00    -0.152 NA 
HETATM   11  C   UNL     1      -9.345  13.534  67.831  1.00  0.00    -0.215 A  
HETATM   12  N   UNL     1      -8.393  16.991  67.561  1.00  0.00    -0.187 NA 
HETATM   13  N   UNL     1      -9.571  14.864  67.815  1.00  0.00    -0.206 NA 
HETATM   14  C   UNL     1      -8.456  15.606  67.668  1.00  0.00    -0.157 A  
BRANCH  11  15
HETATM   15  N   UNL     1     -10.396  12.624  67.842  1.00  0.00    -0.213 NA 
HETATM   16  H   UNL     1     -11.300  13.020  67.583  1.00  0.00     0.000 HD 
BRANCH  15  17
HETATM   17  C   UNL     1     -10.429  11.270  68.143  1.00  0.00    -0.189 A  
HETATM   18  C   UNL     1     -10.539  10.781  69.432  1.00  0.00    -0.254 A  
HETATM   19  C   UNL     1     -10.606   9.405  69.664  1.00  0.00    -0.239 A  
HETATM   20  N   UNL     1     -10.349  10.422  67.098  1.00  0.00    -0.225 NA 
HETATM   21  C   UNL     1     -10.549   8.489  68.618  1.00  0.00    -0.118 A  
HETATM   22  C   UNL     1     -10.420   9.084  67.359  1.00  0.00    -0.269 A  
BRANCH  21  23
HETATM   23  N   UNL     1     -10.645   7.128  68.813  1.00  0.00    -0.208 NA 
HETATM   24  C   UNL     1      -9.696   6.187  68.191  1.00  0.00    -0.120 C  
HETATM   25  C   UNL     1      -8.829   5.500  69.277  1.00  0.00    -0.106 C  
HETATM   26  N   UNL     1      -9.615   4.852  70.345  1.00  0.00    -0.173 NA 
HETATM   27  C   UNL     1     -10.539   5.841  70.938  1.00  0.00    -0.262 C  
HETATM   28  H   UNL     1      -9.023   4.407  71.045  1.00  0.00     0.000 HD 
HETATM   29  C   UNL     1     -11.448   6.520  69.891  1.00  0.00    -0.403 C  
ENDBRANCH  21  23
ENDBRANCH  15  17
ENDBRANCH  11  15
BRANCH  12  30
HETATM   30  C   UNL     1      -9.557  17.873  67.522  1.00  0.00    -0.269 C  
HETATM   31  C   UNL     1     -10.497  20.057  67.921  1.00  0.00    -0.459 C  
HETATM   32  C   UNL     1      -9.924  18.473  66.150  1.00  0.00    -0.341 C  
HETATM   33  C   UNL     1     -10.399  19.907  66.410  1.00  0.00    -0.611 C  
HETATM   34  C   UNL     1      -9.463  19.082  68.466  1.00  0.00    -0.436 C  
ENDBRANCH  12  30
ENDBRANCH   4   6
TORSDOF 5
ENDMDL
MODEL       56
REMARK 921   NORMALIZED FREE ENERGY PREDICTED BY IDOCK:   -5.91 KCAL/MOL
REMARK 922        TOTAL FREE ENERGY PREDICTED BY IDOCK:   -8.52 KCAL/MOL
REMARK 923 INTER-LIGAND FREE ENERGY PREDICTED BY IDOCK:   -7.82 KCAL/MOL
REMARK 924 INTRA-LIGAND FREE ENERGY PREDICTED BY IDOCK:   -0.70 KCAL/MOL
REMARK 927      BINDING AFFINITY PREDICTED BY RF-SCORE:    0.00 PKD
ROOT
HETATM    1  C   UNL     1      -8.570  19.922  66.886  1.00  0.00    -0.332 C  
HETATM    2  N   UNL     1      -9.389  18.723  66.922  1.00  0.00    -0.291 N  
HETATM    3  C   UNL     1     -10.774  18.895  67.351  1.00  0.00    -0.444 C  
HETATM    4  C   UNL     1      -8.930  17.626  66.161  1.00  0.00    -0.107 C  
HETATM    5  O   UNL     1      -7.907  17.726  65.484  1.00  0.00    -0.451 OA 
ENDROOT
BRANCH   4   6
HETATM    6  C   UNL     1      -9.673  16.372  66.244  1.00  0.00    -0.308 A  
HETATM    7  C   UNL     1     -10.865  16.082  65.592  1.00  0.00    -0.273 A  
HETATM    8  C   UNL     1     -11.247  14.768  65.883  1.00  0.00    -0.340 A  
HETATM    9  C   UNL     1     -12.267  13.921  65.486  1.00  0.00    -0.444 A  
HETATM   10  N   UNL     1     -12.390  12.713  66.066  1.00  0.00    -0.569 NA 
HETATM   11  C   UNL     1     -11.522  12.360  67.035  1.00  0.00    -0.358 A  
HETATM   12  N   UNL     1      -9.421  15.277  67.087  1.00  0.00    -0.210 NA 
HETATM   13  N   UNL     1     -10.463  13.093  67.435  1.00  0.00    -0.241 NA 
HETATM   14  C   UNL     1     -10.371  14.295  66.832  1.00  0.00    -0.268 A  
BRANCH  11  15
HETATM   15  N   UNL     1     -11.839  11.155  67.651  1.00  0.00    -0.603 NA 
HETATM   16  H   UNL     1     -12.828  11.045  67.881  1.00  0.00     0.000 HD 
BRANCH  15  17
HETATM   17  C   UNL     1     -11.045  10.075  68.009  1.00  0.00    -0.201 A  
HETATM   18  C   UNL     1     -10.875   9.656  69.316  1.00  0.00    -0.227 A  
HETATM   19  C   UNL     1     -10.093   8.536  69.605  1.00  0.00    -0.202 A  
HETATM   20  N   UNL     1     -10.427   9.426  67.001  1.00  0.00    -0.248 NA 
HETATM   21  C   UNL     1      -9.451   7.821  68.598  1.00  0.00    -0.152 A  
HETATM   22  C   UNL     1      -9.672   8.335  67.317  1.00  0.00    -0.177 A  
BRANCH  21  23
HETATM   23  N   UNL     1      -8.699   6.692  68.849  1.00  0.00    -0.129 NA 
HETATM   24  C   UNL     1      -7.802   6.117  67.832  1.00  0.00    -0.106 C  
HETATM   25  C   UNL     1      -6.324   6.259  68.274  1.00  0.00    -0.047 C  
HETATM   26  N   UNL     1      -6.048   5.706  69.615  1.00  0.00    -0.024 NA 
HETATM   27  C   UNL     1      -6.965   6.324  70.594  1.00  0.00    -0.064 C  
HETATM   28  H   UNL     1      -5.069   5.811  69.882  1.00  0.00     0.000 HD 
HETATM   29  C   UNL     1      -8.452   6.171  70.207  1.00  0.00    -0.126 C  
ENDBRANCH  21  23
ENDBRANCH  15  17
ENDBRANCH  11  15
BRANCH  12  30
HETATM   30  C   UNL     1      -8.391  15.186  68.119  1.00  0.00    -0.147 C  
HETATM   31  C   UNL     1      -6.053  15.261  68.704  1.00  0.00    -0.089 C  
HETATM   32  C   UNL     1      -8.176  16.438  68.994  1.00  0.00    -0.222 C  
HETATM   33  C   UNL     1      -6.669  16.541  69.250  1.00  0.00    -0.218 C  
HETATM   34  C   UNL     1      -6.993  14.836  67.585  1.00  0.00    -0.204 C  
ENDBRANCH  12  30
ENDBRANCH   4   6
TORSDOF 5
ENDMDL
MODEL       57
REMARK 921   NORMALIZED FREE ENERGY PREDICTED BY IDOCK:   -5.87 KCAL/MOL
REMARK 922        TOTAL FREE ENERGY PREDICTED BY IDOCK:   -8.48 KCAL/MOL
REMARK 923 INTER-LIGAND FREE ENERGY PREDICTED BY IDOCK:   -7.62 KCAL/MOL
REMARK 924 INTRA-LIGAND FREE ENERGY PREDICTED BY IDOCK:   -0.86 KCAL/MOL
REMARK 927      BINDING AFFINITY PREDICTED BY RF-SCORE:    0.00 PKD
ROOT
HETATM    1  C   UNL     1      -8.844   4.438  65.773  1.00  0.00    -0.122 C  
HETATM    2  N   UNL     1      -9.426   5.716  66.147  1.00  0.00    -0.157 N  
HETATM    3  C   UNL     1     -10.756   5.672  66.748  1.00  0.00    -0.284 C  
HETATM    4  C   UNL     1      -8.528   6.795  66.297  1.00  0.00    -0.131 C  
HETATM    5  O   UNL     1      -7.319   6.620  66.149  1.00  0.00    -0.073 OA 
ENDROOT
BRANCH   4   6
HETATM    6  C   UNL     1      -9.082   8.116  66.580  1.00  0.00    -0.165 A  
HETATM    7  C   UNL     1      -9.503   9.045  65.637  1.00  0.00    -0.273 A  
HETATM    8  C   UNL     1     -10.013  10.172  66.291  1.00  0.00    -0.304 A  
HETATM    9  C   UNL     1     -10.621  11.353  65.903  1.00  0.00    -0.263 A  
HETATM   10  N   UNL     1     -10.901  12.290  66.827  1.00  0.00    -0.244 NA 
HETATM   11  C   UNL     1     -10.569  12.062  68.113  1.00  0.00    -0.210 A  
HETATM   12  N   UNL     1      -9.172   8.761  67.824  1.00  0.00    -0.134 NA 
HETATM   13  N   UNL     1     -10.037  10.917  68.587  1.00  0.00    -0.183 NA 
HETATM   14  C   UNL     1      -9.771  10.002  67.634  1.00  0.00    -0.158 A  
BRANCH  11  15
HETATM   15  N   UNL     1     -10.778  13.158  68.943  1.00  0.00    -0.367 NA 
HETATM   16  H   UNL     1     -11.241  12.937  69.825  1.00  0.00     0.000 HD 
BRANCH  15  17
HETATM   17  C   UNL     1     -10.468  14.501  68.780  1.00  0.00    -0.246 A  
HETATM   18  C   UNL     1     -11.405  15.463  68.450  1.00  0.00    -0.345 A  
HETATM   19  C   UNL     1     -11.034  16.804  68.340  1.00  0.00    -0.325 A  
HETATM   20  N   UNL     1      -9.177  14.843  68.962  1.00  0.00    -0.195 NA 
HETATM   21  C   UNL     1      -9.718  17.211  68.538  1.00  0.00    -0.291 A  
HETATM   22  C   UNL     1      -8.848  16.162  68.848  1.00  0.00    -0.248 A  
BRANCH  21  23
HETATM   23  N   UNL     1      -9.328  18.532  68.468  1.00  0.00    -0.329 NA 
HETATM   24  C   UNL     1      -7.911  18.926  68.553  1.00  0.00    -0.337 C  
HETATM   25  C   UNL     1      -7.433  19.518  67.203  1.00  0.00    -0.231 C  
HETATM   26  N   UNL     1      -8.275  20.624  66.706  1.00  0.00    -0.553 NA 
HETATM   27  C   UNL     1      -9.679  20.171  66.630  1.00  0.00    -0.437 C  
HETATM   28  H   UNL     1      -7.940  20.996  65.818  1.00  0.00     0.000 HD 
HETATM   29  C   UNL     1     -10.204  19.609  67.969  1.00  0.00    -0.457 C  
ENDBRANCH  21  23
ENDBRANCH  15  17
ENDBRANCH  11  15
BRANCH  12  30
HETATM   30  C   UNL     1      -8.665   8.272  69.103  1.00  0.00    -0.143 C  
HETATM   31  C   UNL     1      -8.329   6.422  70.612  1.00  0.00    -0.133 C  
HETATM   32  C   UNL     1      -7.145   8.024  69.194  1.00  0.00    -0.068 C  
HETATM   33  C   UNL     1      -6.957   6.768  70.052  1.00  0.00    -0.062 C  
HETATM   34  C   UNL     1      -9.306   6.959  69.576  1.00  0.00    -0.147 C  
ENDBRANCH  12  30
ENDBRANCH   4   6
TORSDOF 5
ENDMDL
MODEL       58
REMARK 921   NORMALIZED FREE ENERGY PREDICTED BY IDOCK:   -5.81 KCAL/MOL
REMARK 922        TOTAL FREE ENERGY PREDICTED BY IDOCK:   -8.40 KCAL/MOL
REMARK 923 INTER-LIGAND FREE ENERGY PREDICTED BY IDOCK:   -7.52 KCAL/MOL
REMARK 924 INTRA-LIGAND FREE ENERGY PREDICTED BY IDOCK:   -0.88 KCAL/MOL
REMARK 927      BINDING AFFINITY PREDICTED BY RF-SCORE:    0.00 PKD
ROOT
HETATM    1  C   UNL     1      -8.162   2.296  73.703  1.00  0.00    -0.062 C  
HETATM    2  N   UNL     1      -8.923   3.391  73.127  1.00  0.00    -0.090 N  
HETATM    3  C   UNL     1     -10.344   3.145  72.900  1.00  0.00    -0.164 C  
HETATM    4  C   UNL     1      -8.354   4.678  73.238  1.00  0.00    -0.103 C  
HETATM    5  O   UNL     1      -7.286   4.835  73.831  1.00  0.00    -0.076 OA 
ENDROOT
BRANCH   4   6
HETATM    6  C   UNL     1      -9.041   5.792  72.591  1.00  0.00    -0.131 A  
HETATM    7  C   UNL     1      -9.838   6.739  73.222  1.00  0.00    -0.214 A  
HETATM    8  C   UNL     1     -10.285   7.672  72.280  1.00  0.00    -0.268 A  
HETATM    9  C   UNL     1     -11.026   8.840  72.316  1.00  0.00    -0.266 A  
HETATM   10  N   UNL     1     -11.363   9.449  71.164  1.00  0.00    -0.320 NA 
HETATM   11  C   UNL     1     -10.981   8.896  69.995  1.00  0.00    -0.206 A  
HETATM   12  N   UNL     1      -9.151   6.052  71.215  1.00  0.00    -0.143 NA 
HETATM   13  N   UNL     1     -10.205   7.800  69.870  1.00  0.00    -0.208 NA 
HETATM   14  C   UNL     1      -9.886   7.219  71.044  1.00  0.00    -0.183 A  
BRANCH  11  15
HETATM   15  N   UNL     1     -11.509   9.537  68.880  1.00  0.00    -0.384 NA 
HETATM   16  H   UNL     1     -12.369   9.120  68.522  1.00  0.00     0.000 HD 
BRANCH  15  17
HETATM   17  C   UNL     1     -11.070  10.645  68.170  1.00  0.00    -0.285 A  
HETATM   18  C   UNL     1      -9.748  10.845  67.817  1.00  0.00    -0.183 A  
HETATM   19  C   UNL     1      -9.378  11.963  67.066  1.00  0.00    -0.188 A  
HETATM   20  N   UNL     1     -12.011  11.546  67.824  1.00  0.00    -0.637 NA 
HETATM   21  C   UNL     1     -10.315  12.912  66.667  1.00  0.00    -0.251 A  
HETATM   22  C   UNL     1     -11.616  12.626  67.090  1.00  0.00    -0.368 A  
BRANCH  21  23
HETATM   23  N   UNL     1      -9.985  14.008  65.899  1.00  0.00    -0.310 NA 
HETATM   24  C   UNL     1     -10.594  14.239  64.577  1.00  0.00    -0.207 C  
HETATM   25  C   UNL     1     -11.491  15.502  64.610  1.00  0.00    -0.324 C  
HETATM   26  N   UNL     1     -10.803  16.709  65.109  1.00  0.00    -0.584 NA 
HETATM   27  C   UNL     1     -10.223  16.425  66.437  1.00  0.00    -0.316 C  
HETATM   28  H   UNL     1     -11.414  17.526  65.120  1.00  0.00     0.000 HD 
HETATM   29  C   UNL     1      -9.291  15.194  66.437  1.00  0.00    -0.301 C  
ENDBRANCH  21  23
ENDBRANCH  15  17
ENDBRANCH  11  15
BRANCH  12  30
HETATM   30  C   UNL     1      -8.654   5.217  70.125  1.00  0.00    -0.108 C  
HETATM   31  C   UNL     1      -9.089   4.068  68.051  1.00  0.00    -0.179 C  
HETATM   32  C   UNL     1      -7.839   5.929  69.026  1.00  0.00    -0.095 C  
HETATM   33  C   UNL     1      -8.225   5.269  67.697  1.00  0.00    -0.099 C  
HETATM   34  C   UNL     1      -9.749   4.450  69.367  1.00  0.00    -0.267 C  
ENDBRANCH  12  30
ENDBRANCH   4   6
TORSDOF 5
ENDMDL
MODEL       59
REMARK 921   NORMALIZED FREE ENERGY PREDICTED BY IDOCK:   -5.78 KCAL/MOL
REMARK 922        TOTAL FREE ENERGY PREDICTED BY IDOCK:   -8.36 KCAL/MOL
REMARK 923 INTER-LIGAND FREE ENERGY PREDICTED BY IDOCK:   -7.54 KCAL/MOL
REMARK 924 INTRA-LIGAND FREE ENERGY PREDICTED BY IDOCK:   -0.81 KCAL/MOL
REMARK 927      BINDING AFFINITY PREDICTED BY RF-SCORE:    0.00 PKD
ROOT
HETATM    1  C   UNL     1      -5.531  21.037  67.651  1.00  0.00    -0.275 C  
HETATM    2  N   UNL     1      -5.904  19.665  67.349  1.00  0.00    -0.184 N  
HETATM    3  C   UNL     1      -5.432  19.128  66.077  1.00  0.00    -0.155 C  
HETATM    4  C   UNL     1      -6.295  18.866  68.446  1.00  0.00    -0.227 C  
HETATM    5  O   UNL     1      -6.273  19.326  69.587  1.00  0.00    -0.256 OA 
ENDROOT
BRANCH   4   6
HETATM    6  C   UNL     1      -6.767  17.511  68.175  1.00  0.00    -0.191 A  
HETATM    7  C   UNL     1      -5.972  16.380  68.036  1.00  0.00    -0.126 A  
HETATM    8  C   UNL     1      -6.786  15.262  67.827  1.00  0.00    -0.189 A  
HETATM    9  C   UNL     1      -6.585  13.899  67.694  1.00  0.00    -0.164 A  
HETATM   10  N   UNL     1      -7.624  13.100  67.392  1.00  0.00    -0.152 NA 
HETATM   11  C   UNL     1      -8.842  13.650  67.211  1.00  0.00    -0.224 A  
HETATM   12  N   UNL     1      -8.075  17.101  67.868  1.00  0.00    -0.197 NA 
HETATM   13  N   UNL     1      -9.140  14.954  67.387  1.00  0.00    -0.183 NA 
HETATM   14  C   UNL     1      -8.075  15.722  67.689  1.00  0.00    -0.147 A  
BRANCH  11  15
HETATM   15  N   UNL     1      -9.798  12.745  66.765  1.00  0.00    -0.236 NA 
HETATM   16  H   UNL     1     -10.500  13.146  66.141  1.00  0.00     0.000 HD 
BRANCH  15  17
HETATM   17  C   UNL     1      -9.965  11.392  67.021  1.00  0.00    -0.201 A  
HETATM   18  C   UNL     1      -9.690  10.404  66.094  1.00  0.00    -0.262 A  
HETATM   19  C   UNL     1      -9.842   9.057  66.428  1.00  0.00    -0.356 A  
HETATM   20  N   UNL     1     -10.418  11.066  68.248  1.00  0.00    -0.177 NA 
HETATM   21  C   UNL     1     -10.287   8.668  67.688  1.00  0.00    -0.254 A  
HETATM   22  C   UNL     1     -10.554   9.741  68.544  1.00  0.00    -0.221 A  
BRANCH  21  23
HETATM   23  N   UNL     1     -10.415   7.346  68.059  1.00  0.00    -0.204 NA 
HETATM   24  C   UNL     1     -10.930   6.327  67.126  1.00  0.00    -0.370 C  
HETATM   25  C   UNL     1      -9.815   5.314  66.765  1.00  0.00    -0.176 C  
HETATM   26  N   UNL     1      -9.168   4.697  67.940  1.00  0.00    -0.120 NA 
HETATM   27  C   UNL     1      -8.662   5.760  68.832  1.00  0.00    -0.111 C  
HETATM   28  H   UNL     1      -8.439   4.034  67.676  1.00  0.00     0.000 HD 
HETATM   29  C   UNL     1      -9.755   6.770  69.245  1.00  0.00    -0.151 C  
ENDBRANCH  21  23
ENDBRANCH  15  17
ENDBRANCH  11  15
BRANCH  12  30
HETATM   30  C   UNL     1      -9.241  17.961  67.685  1.00  0.00    -0.258 C  
HETATM   31  C   UNL     1     -10.460  19.939  68.328  1.00  0.00    -0.436 C  
HETATM   32  C   UNL     1      -9.201  18.934  66.489  1.00  0.00    -0.342 C  
HETATM   33  C   UNL     1      -9.867  20.233  66.958  1.00  0.00    -0.607 C  
HETATM   34  C   UNL     1      -9.570  18.844  68.899  1.00  0.00    -0.393 C  
ENDBRANCH  12  30
ENDBRANCH   4   6
TORSDOF 5
ENDMDL
MODEL       60
REMARK 921   NORMALIZED FREE ENERGY PREDICTED BY IDOCK:   -5.76 KCAL/MOL
REMARK 922        TOTAL FREE ENERGY PREDICTED BY IDOCK:   -8.33 KCAL/MOL
REMARK 923 INTER-LIGAND FREE ENERGY PREDICTED BY IDOCK:   -7.39 KCAL/MOL
REMARK 924 INTRA-LIGAND FREE ENERGY PREDICTED BY IDOCK:   -0.94 KCAL/MOL
REMARK 927      BINDING AFFINITY PREDICTED BY RF-SCORE:    0.00 PKD
ROOT
HETATM    1  C   UNL     1      -8.824  20.650  66.817  1.00  0.00    -0.039 C  
HETATM    2  N   UNL     1      -9.012  19.216  66.679  1.00  0.00    -0.315 N  
HETATM    3  C   UNL     1      -7.882  18.373  67.059  1.00  0.00    -0.227 C  
HETATM    4  C   UNL     1     -10.347  18.761  66.613  1.00  0.00    -0.420 C  
HETATM    5  O   UNL     1     -11.279  19.560  66.709  1.00  0.00    -0.266 OA 
ENDROOT
BRANCH   4   6
HETATM    6  C   UNL     1     -10.578  17.338  66.381  1.00  0.00    -0.179 A  
HETATM    7  C   UNL     1     -10.777  16.733  65.146  1.00  0.00    -0.159 A  
HETATM    8  C   UNL     1     -10.920  15.353  65.323  1.00  0.00    -0.397 A  
HETATM    9  C   UNL     1     -11.066  14.256  64.491  1.00  0.00    -0.312 A  
HETATM   10  N   UNL     1     -11.286  13.042  65.026  1.00  0.00    -0.290 NA 
HETATM   11  C   UNL     1     -11.373  12.922  66.366  1.00  0.00    -0.319 A  
HETATM   12  N   UNL     1     -10.783  16.333  67.339  1.00  0.00    -0.312 NA 
HETATM   13  N   UNL     1     -11.177  13.922  67.250  1.00  0.00    -0.302 NA 
HETATM   14  C   UNL     1     -10.959  15.122  66.678  1.00  0.00    -0.318 A  
BRANCH  11  15
HETATM   15  N   UNL     1     -11.742  11.649  66.786  1.00  0.00    -0.532 NA 
HETATM   16  H   UNL     1     -12.650  11.337  66.440  1.00  0.00     0.000 HD 
BRANCH  15  17
HETATM   17  C   UNL     1     -11.091  10.729  67.595  1.00  0.00    -0.319 A  
HETATM   18  C   UNL     1     -10.344   9.676  67.099  1.00  0.00    -0.319 A  
HETATM   19  C   UNL     1      -9.681   8.808  67.968  1.00  0.00    -0.183 A  
HETATM   20  N   UNL     1     -11.215  10.908  68.925  1.00  0.00    -0.244 NA 
HETATM   21  C   UNL     1      -9.761   8.962  69.349  1.00  0.00    -0.169 A  
HETATM   22  C   UNL     1     -10.553  10.043  69.747  1.00  0.00    -0.267 A  
BRANCH  21  23
HETATM   23  N   UNL     1      -9.090   8.141  70.231  1.00  0.00    -0.149 NA 
HETATM   24  C   UNL     1      -9.177   6.672  70.140  1.00  0.00    -0.155 C  
HETATM   25  C   UNL     1      -7.803   6.075  69.744  1.00  0.00    -0.101 C  
HETATM   26  N   UNL     1      -6.694   6.500  70.621  1.00  0.00    -0.056 NA 
HETATM   27  C   UNL     1      -6.647   7.976  70.666  1.00  0.00    -0.037 C  
HETATM   28  H   UNL     1      -5.801   6.093  70.341  1.00  0.00     0.000 HD 
HETATM   29  C   UNL     1      -7.989   8.608  71.094  1.00  0.00    -0.138 C  
ENDBRANCH  21  23
ENDBRANCH  15  17
ENDBRANCH  11  15
BRANCH  12  30
HETATM   30  C   UNL     1     -10.877  16.509  68.786  1.00  0.00    -0.342 C  
HETATM   31  C   UNL     1     -11.890  15.862  70.876  1.00  0.00    -0.453 C  
HETATM   32  C   UNL     1      -9.783  15.832  69.637  1.00  0.00    -0.248 C  
HETATM   33  C   UNL     1     -10.471  15.314  70.904  1.00  0.00     0.151 C  
HETATM   34  C   UNL     1     -12.202  16.027  69.396  1.00  0.00     0.021 C  
ENDBRANCH  12  30
ENDBRANCH   4   6
TORSDOF 5
ENDMDL
MODEL       61
REMARK 921   NORMALIZED FREE ENERGY PREDICTED BY IDOCK:   -5.75 KCAL/MOL
REMARK 922        TOTAL FREE ENERGY PREDICTED BY IDOCK:   -8.32 KCAL/MOL
REMARK 923 INTER-LIGAND FREE ENERGY PREDICTED BY IDOCK:   -8.55 KCAL/MOL
REMARK 924 INTRA-LIGAND FREE ENERGY PREDICTED BY IDOCK:    0.23 KCAL/MOL
REMARK 927      BINDING AFFINITY PREDICTED BY RF-SCORE:    0.00 PKD
ROOT
HETATM    1  C   UNL     1     -11.253  15.836  64.849  1.00  0.00    -0.350 C  
HETATM    2  N   UNL     1     -11.236  14.393  65.020  1.00  0.00    -0.355 N  
HETATM    3  C   UNL     1     -12.039  13.618  64.079  1.00  0.00    -0.425 C  
HETATM    4  C   UNL     1     -10.158  13.861  65.761  1.00  0.00    -0.320 C  
HETATM    5  O   UNL     1      -9.276  14.604  66.192  1.00  0.00    -0.264 OA 
ENDROOT
BRANCH   4   6
HETATM    6  C   UNL     1     -10.153  12.427  66.036  1.00  0.00    -0.251 A  
HETATM    7  C   UNL     1      -9.573  11.445  65.244  1.00  0.00    -0.256 A  
HETATM    8  C   UNL     1      -9.737  10.197  65.857  1.00  0.00    -0.292 A  
HETATM    9  C   UNL     1      -9.328   8.902  65.593  1.00  0.00    -0.191 A  
HETATM   10  N   UNL     1      -9.768   7.895  66.369  1.00  0.00    -0.198 NA 
HETATM   11  C   UNL     1     -10.613   8.172  67.383  1.00  0.00    -0.255 A  
HETATM   12  N   UNL     1     -10.836  11.746  67.056  1.00  0.00    -0.249 NA 
HETATM   13  N   UNL     1     -11.007   9.408  67.751  1.00  0.00    -0.155 NA 
HETATM   14  C   UNL     1     -10.546  10.390  66.951  1.00  0.00    -0.230 A  
BRANCH  11  15
HETATM   15  N   UNL     1     -11.106   7.038  68.019  1.00  0.00    -0.514 NA 
HETATM   16  H   UNL     1     -11.704   6.453  67.434  1.00  0.00     0.000 HD 
BRANCH  15  17
HETATM   17  C   UNL     1     -10.926   6.563  69.310  1.00  0.00    -0.331 A  
HETATM   18  C   UNL     1     -11.741   6.918  70.370  1.00  0.00    -0.377 A  
HETATM   19  C   UNL     1     -11.530   6.373  71.638  1.00  0.00    -0.354 A  
HETATM   20  N   UNL     1      -9.896   5.715  69.498  1.00  0.00    -0.166 NA 
HETATM   21  C   UNL     1     -10.492   5.477  71.880  1.00  0.00    -0.225 A  
HETATM   22  C   UNL     1      -9.718   5.200  70.749  1.00  0.00    -0.190 A  
BRANCH  21  23
HETATM   23  N   UNL     1     -10.279   4.899  73.113  1.00  0.00    -0.160 NA 
HETATM   24  C   UNL     1     -11.282   4.019  73.739  1.00  0.00    -0.167 C  
HETATM   25  C   UNL     1     -10.746   2.568  73.827  1.00  0.00    -0.176 C  
HETATM   26  N   UNL     1      -9.434   2.456  74.494  1.00  0.00    -0.081 NA 
HETATM   27  C   UNL     1      -8.468   3.347  73.820  1.00  0.00    -0.078 C  
HETATM   28  H   UNL     1      -9.105   1.492  74.540  1.00  0.00     0.000 HD 
HETATM   29  C   UNL     1      -8.950   4.812  73.746  1.00  0.00    -0.106 C  
ENDBRANCH  21  23
ENDBRANCH  15  17
ENDBRANCH  11  15
BRANCH  12  30
HETATM   30  C   UNL     1     -11.760  12.323  68.029  1.00  0.00    -0.356 C  
HETATM   31  C   UNL     1     -12.361  12.679  70.336  1.00  0.00    -0.315 C  
HETATM   32  C   UNL     1     -11.608  13.831  68.316  1.00  0.00    -0.373 C  
HETATM   33  C   UNL     1     -11.868  14.020  69.815  1.00  0.00    -0.385 C  
HETATM   34  C   UNL     1     -11.720  11.654  69.411  1.00  0.00    -0.405 C  
ENDBRANCH  12  30
ENDBRANCH   4   6
TORSDOF 5
ENDMDL
MODEL       62
REMARK 921   NORMALIZED FREE ENERGY PREDICTED BY IDOCK:   -5.75 KCAL/MOL
REMARK 922        TOTAL FREE ENERGY PREDICTED BY IDOCK:   -8.32 KCAL/MOL
REMARK 923 INTER-LIGAND FREE ENERGY PREDICTED BY IDOCK:   -7.46 KCAL/MOL
REMARK 924 INTRA-LIGAND FREE ENERGY PREDICTED BY IDOCK:   -0.86 KCAL/MOL
REMARK 927      BINDING AFFINITY PREDICTED BY RF-SCORE:    0.00 PKD
ROOT
HETATM    1  C   UNL     1     -10.216   4.770  70.224  1.00  0.00    -0.192 C  
HETATM    2  N   UNL     1      -9.425   5.890  69.743  1.00  0.00    -0.146 N  
HETATM    3  C   UNL     1      -7.982   5.798  69.942  1.00  0.00    -0.096 C  
HETATM    4  C   UNL     1     -10.037   6.724  68.782  1.00  0.00    -0.160 C  
HETATM    5  O   UNL     1     -11.167   6.466  68.368  1.00  0.00    -0.320 OA 
ENDROOT
BRANCH   4   6
HETATM    6  C   UNL     1      -9.312   7.913  68.342  1.00  0.00    -0.140 A  
HETATM    7  C   UNL     1      -8.393   7.972  67.303  1.00  0.00    -0.122 A  
HETATM    8  C   UNL     1      -7.944   9.289  67.153  1.00  0.00    -0.106 A  
HETATM    9  C   UNL     1      -7.109   9.959  66.277  1.00  0.00    -0.101 A  
HETATM   10  N   UNL     1      -6.813  11.252  66.498  1.00  0.00    -0.128 NA 
HETATM   11  C   UNL     1      -7.329  11.865  67.583  1.00  0.00    -0.123 A  
HETATM   12  N   UNL     1      -9.289   9.179  68.950  1.00  0.00    -0.145 NA 
HETATM   13  N   UNL     1      -8.201  11.310  68.448  1.00  0.00    -0.142 NA 
HETATM   14  C   UNL     1      -8.474  10.015  68.194  1.00  0.00    -0.114 A  
BRANCH  11  15
HETATM   15  N   UNL     1      -6.837  13.151  67.778  1.00  0.00    -0.133 NA 
HETATM   16  H   UNL     1      -5.820  13.213  67.818  1.00  0.00     0.000 HD 
BRANCH  15  17
HETATM   17  C   UNL     1      -7.491  14.366  67.929  1.00  0.00    -0.152 A  
HETATM   18  C   UNL     1      -7.315  15.193  69.023  1.00  0.00    -0.155 A  
HETATM   19  C   UNL     1      -7.974  16.422  69.095  1.00  0.00    -0.204 A  
HETATM   20  N   UNL     1      -8.329  14.722  66.935  1.00  0.00    -0.194 NA 
HETATM   21  C   UNL     1      -8.834  16.844  68.085  1.00  0.00    -0.223 A  
HETATM   22  C   UNL     1      -8.956  15.930  67.035  1.00  0.00    -0.217 A  
BRANCH  21  23
HETATM   23  N   UNL     1      -9.472  18.066  68.112  1.00  0.00    -0.279 NA 
HETATM   24  C   UNL     1      -8.812  19.273  68.641  1.00  0.00    -0.374 C  
HETATM   25  C   UNL     1      -8.568  20.296  67.503  1.00  0.00    -0.314 C  
HETATM   26  N   UNL     1      -9.782  20.634  66.735  1.00  0.00    -0.655 NA 
HETATM   27  C   UNL     1     -10.394  19.392  66.221  1.00  0.00    -0.493 C  
HETATM   28  H   UNL     1      -9.595  21.309  65.993  1.00  0.00     0.000 HD 
HETATM   29  C   UNL     1     -10.689  18.361  67.332  1.00  0.00    -0.361 C  
ENDBRANCH  21  23
ENDBRANCH  15  17
ENDBRANCH  11  15
BRANCH  12  30
HETATM   30  C   UNL     1      -9.936   9.561  70.202  1.00  0.00    -0.241 C  
HETATM   31  C   UNL     1     -11.885   9.481  71.618  1.00  0.00    -0.468 C  
HETATM   32  C   UNL     1      -9.561   8.741  71.452  1.00  0.00    -0.337 C  
HETATM   33  C   UNL     1     -10.843   8.590  72.279  1.00  0.00    -0.418 C  
HETATM   34  C   UNL     1     -11.472   9.525  70.154  1.00  0.00    -0.205 C  
ENDBRANCH  12  30
ENDBRANCH   4   6
TORSDOF 5
ENDMDL
MODEL       63
REMARK 921   NORMALIZED FREE ENERGY PREDICTED BY IDOCK:   -5.72 KCAL/MOL
REMARK 922        TOTAL FREE ENERGY PREDICTED BY IDOCK:   -8.28 KCAL/MOL
REMARK 923 INTER-LIGAND FREE ENERGY PREDICTED BY IDOCK:   -7.39 KCAL/MOL
REMARK 924 INTRA-LIGAND FREE ENERGY PREDICTED BY IDOCK:   -0.90 KCAL/MOL
REMARK 927      BINDING AFFINITY PREDICTED BY RF-SCORE:    0.00 PKD
ROOT
HETATM    1  C   UNL     1      -9.889  20.941  67.778  1.00  0.00    -0.030 C  
HETATM    2  N   UNL     1     -10.164  19.591  67.316  1.00  0.00    -0.398 N  
HETATM    3  C   UNL     1     -10.606  19.456  65.931  1.00  0.00    -0.459 C  
HETATM    4  C   UNL     1      -9.589  18.542  68.065  1.00  0.00    -0.312 C  
HETATM    5  O   UNL     1      -8.868  18.793  69.031  1.00  0.00    -0.236 OA 
ENDROOT
BRANCH   4   6
HETATM    6  C   UNL     1      -9.917  17.169  67.691  1.00  0.00    -0.283 A  
HETATM    7  C   UNL     1     -11.106  16.507  67.970  1.00  0.00    -0.275 A  
HETATM    8  C   UNL     1     -11.065  15.224  67.412  1.00  0.00    -0.326 A  
HETATM    9  C   UNL     1     -11.946  14.163  67.301  1.00  0.00    -0.414 A  
HETATM   10  N   UNL     1     -11.523  13.001  66.771  1.00  0.00    -0.327 NA 
HETATM   11  C   UNL     1     -10.241  12.893  66.370  1.00  0.00    -0.267 A  
HETATM   12  N   UNL     1      -9.070  16.211  67.109  1.00  0.00    -0.199 NA 
HETATM   13  N   UNL     1      -9.336  13.893  66.380  1.00  0.00    -0.245 NA 
HETATM   14  C   UNL     1      -9.795  15.040  66.917  1.00  0.00    -0.238 A  
BRANCH  11  15
HETATM   15  N   UNL     1      -9.890  11.607  65.974  1.00  0.00    -0.222 NA 
HETATM   16  H   UNL     1      -9.779  11.491  64.966  1.00  0.00     0.000 HD 
BRANCH  15  17
HETATM   17  C   UNL     1      -9.666  10.453  66.711  1.00  0.00    -0.181 A  
HETATM   18  C   UNL     1      -9.467  10.452  68.080  1.00  0.00    -0.152 A  
HETATM   19  C   UNL     1      -9.285   9.251  68.769  1.00  0.00    -0.136 A  
HETATM   20  N   UNL     1      -9.651   9.295  66.022  1.00  0.00    -0.251 NA 
HETATM   21  C   UNL     1      -9.282   8.028  68.105  1.00  0.00    -0.133 A  
HETATM   22  C   UNL     1      -9.473   8.139  66.724  1.00  0.00    -0.198 A  
BRANCH  21  23
HETATM   23  N   UNL     1      -9.138   6.824  68.762  1.00  0.00    -0.133 NA 
HETATM   24  C   UNL     1      -7.990   6.557  69.646  1.00  0.00    -0.120 C  
HETATM   25  C   UNL     1      -8.463   6.419  71.116  1.00  0.00    -0.124 C  
HETATM   26  N   UNL     1      -9.537   5.425  71.306  1.00  0.00    -0.153 NA 
HETATM   27  C   UNL     1     -10.663   5.747  70.405  1.00  0.00    -0.302 C  
HETATM   28  H   UNL     1      -9.829   5.352  72.280  1.00  0.00     0.000 HD 
HETATM   29  C   UNL     1     -10.239   5.855  68.925  1.00  0.00    -0.198 C  
ENDBRANCH  21  23
ENDBRANCH  15  17
ENDBRANCH  11  15
BRANCH  12  30
HETATM   30  C   UNL     1      -7.648  16.364  66.814  1.00  0.00    -0.255 C  
HETATM   31  C   UNL     1      -5.814  17.810  66.216  1.00  0.00    -0.239 C  
HETATM   32  C   UNL     1      -6.693  16.419  68.024  1.00  0.00    -0.145 C  
HETATM   33  C   UNL     1      -5.604  17.440  67.677  1.00  0.00    -0.137 C  
HETATM   34  C   UNL     1      -7.306  17.612  65.986  1.00  0.00    -0.301 C  
ENDBRANCH  12  30
ENDBRANCH   4   6
TORSDOF 5
ENDMDL
MODEL       64
REMARK 921   NORMALIZED FREE ENERGY PREDICTED BY IDOCK:   -5.70 KCAL/MOL
REMARK 922        TOTAL FREE ENERGY PREDICTED BY IDOCK:   -8.26 KCAL/MOL
REMARK 923 INTER-LIGAND FREE ENERGY PREDICTED BY IDOCK:   -7.67 KCAL/MOL
REMARK 924 INTRA-LIGAND FREE ENERGY PREDICTED BY IDOCK:   -0.58 KCAL/MOL
REMARK 927      BINDING AFFINITY PREDICTED BY RF-SCORE:    0.00 PKD
ROOT
HETATM    1  C   UNL     1      -6.638   2.425  69.976  1.00  0.00    -0.033 C  
HETATM    2  N   UNL     1      -7.417   3.614  70.280  1.00  0.00    -0.041 N  
HETATM    3  C   UNL     1      -6.909   4.469  71.349  1.00  0.00    -0.035 C  
HETATM    4  C   UNL     1      -8.309   4.053  69.277  1.00  0.00    -0.064 C  
HETATM    5  O   UNL     1      -8.372   3.459  68.200  1.00  0.00    -0.080 OA 
ENDROOT
BRANCH   4   6
HETATM    6  C   UNL     1      -9.178   5.187  69.577  1.00  0.00    -0.119 A  
HETATM    7  C   UNL     1     -10.314   5.158  70.376  1.00  0.00    -0.326 A  
HETATM    8  C   UNL     1     -10.854   6.446  70.462  1.00  0.00    -0.335 A  
HETATM    9  C   UNL     1     -11.903   7.038  71.144  1.00  0.00    -0.338 A  
HETATM   10  N   UNL     1     -12.209   8.326  70.905  1.00  0.00    -0.167 NA 
HETATM   11  C   UNL     1     -11.491   9.010  69.991  1.00  0.00     0.010 A  
HETATM   12  N   UNL     1      -9.128   6.477  69.025  1.00  0.00    -0.132 NA 
HETATM   13  N   UNL     1     -10.414   8.534  69.333  1.00  0.00    -0.220 NA 
HETATM   14  C   UNL     1     -10.138   7.242  69.599  1.00  0.00    -0.194 A  
BRANCH  11  15
HETATM   15  N   UNL     1     -11.991  10.281  69.732  1.00  0.00    -0.467 NA 
HETATM   16  H   UNL     1     -12.650  10.626  70.431  1.00  0.00     0.000 HD 
BRANCH  15  17
HETATM   17  C   UNL     1     -11.751  11.162  68.687  1.00  0.00    -0.320 A  
HETATM   18  C   UNL     1     -11.824  12.536  68.820  1.00  0.00    -0.347 A  
HETATM   19  C   UNL     1     -11.532  13.369  67.737  1.00  0.00    -0.351 A  
HETATM   20  N   UNL     1     -11.431  10.609  67.500  1.00  0.00    -0.448 NA 
HETATM   21  C   UNL     1     -11.177  12.848  66.497  1.00  0.00    -0.302 A  
HETATM   22  C   UNL     1     -11.150  11.451  66.463  1.00  0.00    -0.251 A  
BRANCH  21  23
HETATM   23  N   UNL     1     -10.851  13.644  65.419  1.00  0.00    -0.292 NA 
HETATM   24  C   UNL     1     -11.580  13.555  64.142  1.00  0.00    -0.376 C  
HETATM   25  C   UNL     1     -12.373  14.860  63.881  1.00  0.00     0.111 C  
HETATM   26  N   UNL     1     -11.548  16.083  63.950  1.00  0.00    -1.314 NA 
HETATM   27  C   UNL     1     -10.851  16.126  65.252  1.00  0.00    -0.336 C  
HETATM   28  H   UNL     1     -12.092  16.927  63.774  1.00  0.00     0.000 HD 
HETATM   29  C   UNL     1     -10.018  14.857  65.532  1.00  0.00    -0.358 C  
ENDBRANCH  21  23
ENDBRANCH  15  17
ENDBRANCH  11  15
BRANCH  12  30
HETATM   30  C   UNL     1      -8.231   6.945  67.971  1.00  0.00    -0.115 C  
HETATM   31  C   UNL     1      -7.864   8.378  66.068  1.00  0.00    -0.098 C  
HETATM   32  C   UNL     1      -7.170   7.987  68.379  1.00  0.00    -0.089 C  
HETATM   33  C   UNL     1      -7.043   8.965  67.206  1.00  0.00    -0.083 C  
HETATM   34  C   UNL     1      -8.948   7.567  66.763  1.00  0.00    -0.164 C  
ENDBRANCH  12  30
ENDBRANCH   4   6
TORSDOF 5
ENDMDL
MODEL       65
REMARK 921   NORMALIZED FREE ENERGY PREDICTED BY IDOCK:   -5.67 KCAL/MOL
REMARK 922        TOTAL FREE ENERGY PREDICTED BY IDOCK:   -8.22 KCAL/MOL
REMARK 923 INTER-LIGAND FREE ENERGY PREDICTED BY IDOCK:   -7.45 KCAL/MOL
REMARK 924 INTRA-LIGAND FREE ENERGY PREDICTED BY IDOCK:   -0.77 KCAL/MOL
REMARK 927      BINDING AFFINITY PREDICTED BY RF-SCORE:    0.00 PKD
ROOT
HETATM    1  C   UNL     1      -7.638   1.809  71.128  1.00  0.00    -0.032 C  
HETATM    2  N   UNL     1      -8.459   3.005  71.216  1.00  0.00    -0.063 N  
HETATM    3  C   UNL     1      -9.777   2.846  71.823  1.00  0.00    -0.154 C  
HETATM    4  C   UNL     1      -7.781   4.240  71.115  1.00  0.00    -0.067 C  
HETATM    5  O   UNL     1      -6.556   4.266  70.998  1.00  0.00    -0.028 OA 
ENDROOT
BRANCH   4   6
HETATM    6  C   UNL     1      -8.578   5.463  71.104  1.00  0.00    -0.125 A  
HETATM    7  C   UNL     1      -8.986   6.183  72.220  1.00  0.00    -0.137 A  
HETATM    8  C   UNL     1      -9.693   7.318  71.807  1.00  0.00    -0.167 A  
HETATM    9  C   UNL     1     -10.266   8.411  72.433  1.00  0.00    -0.329 A  
HETATM   10  N   UNL     1     -10.981   9.291  71.709  1.00  0.00    -0.364 NA 
HETATM   11  C   UNL     1     -11.135   9.079  70.387  1.00  0.00    -0.244 A  
HETATM   12  N   UNL     1      -9.200   6.073  70.003  1.00  0.00    -0.148 NA 
HETATM   13  N   UNL     1     -10.559   8.081  69.687  1.00  0.00    -0.228 NA 
HETATM   14  C   UNL     1      -9.850   7.221  70.444  1.00  0.00    -0.183 A  
BRANCH  11  15
HETATM   15  N   UNL     1     -12.008   9.976  69.780  1.00  0.00    -0.475 NA 
HETATM   16  H   UNL     1     -12.974   9.650  69.721  1.00  0.00     0.000 HD 
BRANCH  15  17
HETATM   17  C   UNL     1     -11.795  11.235  69.239  1.00  0.00    -0.354 A  
HETATM   18  C   UNL     1     -11.479  11.448  67.910  1.00  0.00    -0.361 A  
HETATM   19  C   UNL     1     -11.315  12.745  67.420  1.00  0.00    -0.363 A  
HETATM   20  N   UNL     1     -11.913  12.278  70.086  1.00  0.00    -0.335 NA 
HETATM   21  C   UNL     1     -11.446  13.856  68.248  1.00  0.00    -0.311 A  
HETATM   22  C   UNL     1     -11.748  13.532  69.575  1.00  0.00    -0.322 A  
BRANCH  21  23
HETATM   23  N   UNL     1     -11.322  15.149  67.787  1.00  0.00    -0.324 NA 
HETATM   24  C   UNL     1     -11.409  16.307  68.695  1.00  0.00    -0.333 C  
HETATM   25  C   UNL     1     -10.040  17.028  68.780  1.00  0.00    -0.307 C  
HETATM   26  N   UNL     1      -9.484  17.409  67.467  1.00  0.00    -0.247 NA 
HETATM   27  C   UNL     1      -9.409  16.212  66.604  1.00  0.00    -0.242 C  
HETATM   28  H   UNL     1      -8.584  17.882  67.550  1.00  0.00     0.000 HD 
HETATM   29  C   UNL     1     -10.765  15.486  66.463  1.00  0.00    -0.304 C  
ENDBRANCH  21  23
ENDBRANCH  15  17
ENDBRANCH  11  15
BRANCH  12  30
HETATM   30  C   UNL     1      -9.240   5.573  68.632  1.00  0.00    -0.122 C  
HETATM   31  C   UNL     1     -10.452   5.343  66.560  1.00  0.00    -0.352 C  
HETATM   32  C   UNL     1      -8.496   6.406  67.570  1.00  0.00    -0.116 C  
HETATM   33  C   UNL     1      -9.346   6.355  66.296  1.00  0.00    -0.149 C  
HETATM   34  C   UNL     1     -10.658   5.393  68.067  1.00  0.00    -0.157 C  
ENDBRANCH  12  30
ENDBRANCH   4   6
TORSDOF 5
ENDMDL
MODEL       66
REMARK 921   NORMALIZED FREE ENERGY PREDICTED BY IDOCK:   -5.66 KCAL/MOL
REMARK 922        TOTAL FREE ENERGY PREDICTED BY IDOCK:   -8.20 KCAL/MOL
REMARK 923 INTER-LIGAND FREE ENERGY PREDICTED BY IDOCK:   -8.51 KCAL/MOL
REMARK 924 INTRA-LIGAND FREE ENERGY PREDICTED BY IDOCK:    0.30 KCAL/MOL
REMARK 927      BINDING AFFINITY PREDICTED BY RF-SCORE:    0.00 PKD
ROOT
HETATM    1  C   UNL     1     -11.980  16.081  71.297  1.00  0.00    -0.424 C  
HETATM    2  N   UNL     1     -12.197  14.677  71.603  1.00  0.00    -0.339 N  
HETATM    3  C   UNL     1     -12.753  14.378  72.919  1.00  0.00    -0.354 C  
HETATM    4  C   UNL     1     -12.263  13.797  70.501  1.00  0.00    -0.369 C  
HETATM    5  O   UNL     1     -12.175  14.233  69.353  1.00  0.00    -0.324 OA 
ENDROOT
BRANCH   4   6
HETATM    6  C   UNL     1     -12.385  12.367  70.769  1.00  0.00    -0.286 A  
HETATM    7  C   UNL     1     -13.104  11.788  71.808  1.00  0.00    -0.480 A  
HETATM    8  C   UNL     1     -13.021  10.395  71.710  1.00  0.00    -0.580 A  
HETATM    9  C   UNL     1     -13.565   9.319  72.390  1.00  0.00    -0.463 A  
HETATM   10  N   UNL     1     -13.174   8.070  72.079  1.00  0.00    -0.288 NA 
HETATM   11  C   UNL     1     -12.246   7.895  71.117  1.00  0.00    -0.255 A  
HETATM   12  N   UNL     1     -11.707  11.313  70.136  1.00  0.00    -0.333 NA 
HETATM   13  N   UNL     1     -11.715   8.878  70.361  1.00  0.00    -0.115 NA 
HETATM   14  C   UNL     1     -12.130  10.114  70.701  1.00  0.00    -0.319 A  
BRANCH  11  15
HETATM   15  N   UNL     1     -11.823   6.577  70.987  1.00  0.00    -0.356 NA 
HETATM   16  H   UNL     1     -12.087   5.971  71.765  1.00  0.00     0.000 HD 
BRANCH  15  17
HETATM   17  C   UNL     1     -11.105   5.942  69.984  1.00  0.00    -0.341 A  
HETATM   18  C   UNL     1     -10.150   4.973  70.231  1.00  0.00    -0.339 A  
HETATM   19  C   UNL     1      -9.490   4.344  69.173  1.00  0.00    -0.240 A  
HETATM   20  N   UNL     1     -11.385   6.316  68.720  1.00  0.00    -0.282 NA 
HETATM   21  C   UNL     1      -9.757   4.680  67.849  1.00  0.00    -0.143 A  
HETATM   22  C   UNL     1     -10.724   5.680  67.709  1.00  0.00    -0.166 A  
BRANCH  21  23
HETATM   23  N   UNL     1      -9.146   4.053  66.783  1.00  0.00    -0.132 NA 
HETATM   24  C   UNL     1      -9.532   4.343  65.391  1.00  0.00    -0.175 C  
HETATM   25  C   UNL     1      -8.370   5.048  64.645  1.00  0.00    -0.141 C  
HETATM   26  N   UNL     1      -7.089   4.318  64.713  1.00  0.00    -0.057 NA 
HETATM   27  C   UNL     1      -6.747   4.066  66.128  1.00  0.00    -0.049 C  
HETATM   28  H   UNL     1      -6.342   4.801  64.215  1.00  0.00     0.000 HD 
HETATM   29  C   UNL     1      -7.866   3.330  66.896  1.00  0.00    -0.080 C  
ENDBRANCH  21  23
ENDBRANCH  15  17
ENDBRANCH  11  15
BRANCH  12  30
HETATM   30  C   UNL     1     -10.674  11.427  69.110  1.00  0.00    -0.189 C  
HETATM   31  C   UNL     1      -8.789  10.447  67.970  1.00  0.00    -0.130 C  
HETATM   32  C   UNL     1     -11.110  11.149  67.657  1.00  0.00    -0.348 C  
HETATM   33  C   UNL     1      -9.947  10.411  66.984  1.00  0.00    -0.252 C  
HETATM   34  C   UNL     1      -9.457  10.516  69.336  1.00  0.00    -0.158 C  
ENDBRANCH  12  30
ENDBRANCH   4   6
TORSDOF 5
ENDMDL
MODEL       67
REMARK 921   NORMALIZED FREE ENERGY PREDICTED BY IDOCK:   -5.63 KCAL/MOL
REMARK 922        TOTAL FREE ENERGY PREDICTED BY IDOCK:   -8.16 KCAL/MOL
REMARK 923 INTER-LIGAND FREE ENERGY PREDICTED BY IDOCK:   -7.40 KCAL/MOL
REMARK 924 INTRA-LIGAND FREE ENERGY PREDICTED BY IDOCK:   -0.76 KCAL/MOL
REMARK 927      BINDING AFFINITY PREDICTED BY RF-SCORE:    0.00 PKD
ROOT
HETATM    1  C   UNL     1      -8.512   1.664  70.517  1.00  0.00    -0.045 C  
HETATM    2  N   UNL     1      -8.550   3.109  70.658  1.00  0.00    -0.067 N  
HETATM    3  C   UNL     1      -9.685   3.661  71.391  1.00  0.00    -0.170 C  
HETATM    4  C   UNL     1      -7.327   3.790  70.469  1.00  0.00    -0.041 C  
HETATM    5  O   UNL     1      -6.296   3.160  70.235  1.00  0.00    -0.026 OA 
ENDROOT
BRANCH   4   6
HETATM    6  C   UNL     1      -7.339   5.250  70.509  1.00  0.00    -0.070 A  
HETATM    7  C   UNL     1      -6.868   6.043  71.548  1.00  0.00    -0.067 A  
HETATM    8  C   UNL     1      -7.009   7.392  71.203  1.00  0.00    -0.058 A  
HETATM    9  C   UNL     1      -6.668   8.603  71.779  1.00  0.00    -0.082 A  
HETATM   10  N   UNL     1      -7.061   9.750  71.195  1.00  0.00    -0.316 NA 
HETATM   11  C   UNL     1      -7.795   9.692  70.066  1.00  0.00    -0.165 A  
HETATM   12  N   UNL     1      -7.941   6.130  69.595  1.00  0.00    -0.105 NA 
HETATM   13  N   UNL     1      -8.114   8.561  69.404  1.00  0.00    -0.110 NA 
HETATM   14  C   UNL     1      -7.703   7.434  70.017  1.00  0.00    -0.095 A  
BRANCH  11  15
HETATM   15  N   UNL     1      -8.258  10.932  69.641  1.00  0.00    -0.357 NA 
HETATM   16  H   UNL     1      -7.842  11.727  70.127  1.00  0.00     0.000 HD 
BRANCH  15  17
HETATM   17  C   UNL     1      -9.189  11.277  68.672  1.00  0.00    -0.161 A  
HETATM   18  C   UNL     1     -10.254  10.468  68.320  1.00  0.00    -0.185 A  
HETATM   19  C   UNL     1     -11.179  10.892  67.363  1.00  0.00    -0.345 A  
HETATM   20  N   UNL     1      -9.011  12.469  68.068  1.00  0.00    -0.186 NA 
HETATM   21  C   UNL     1     -11.051  12.122  66.725  1.00  0.00    -0.300 A  
HETATM   22  C   UNL     1      -9.933  12.854  67.139  1.00  0.00    -0.240 A  
BRANCH  21  23
HETATM   23  N   UNL     1     -11.965  12.582  65.801  1.00  0.00    -0.517 NA 
HETATM   24  C   UNL     1     -12.499  13.954  65.856  1.00  0.00    -0.481 C  
HETATM   25  C   UNL     1     -12.013  14.771  64.632  1.00  0.00    -0.440 C  
HETATM   26  N   UNL     1     -12.301  14.129  63.335  1.00  0.00    -1.144 NA 
HETATM   27  C   UNL     1     -11.735  12.764  63.331  1.00  0.00    -0.488 C  
HETATM   28  H   UNL     1     -11.973  14.686  62.546  1.00  0.00     0.000 HD 
HETATM   29  C   UNL     1     -12.226  11.905  64.517  1.00  0.00    -0.142 C  
ENDBRANCH  21  23
ENDBRANCH  15  17
ENDBRANCH  11  15
BRANCH  12  30
HETATM   30  C   UNL     1      -8.748   5.768  68.433  1.00  0.00    -0.111 C  
HETATM   31  C   UNL     1     -10.797   6.030  67.190  1.00  0.00    -0.414 C  
HETATM   32  C   UNL     1      -8.392   6.459  67.102  1.00  0.00    -0.112 C  
HETATM   33  C   UNL     1      -9.717   6.734  66.382  1.00  0.00    -0.125 C  
HETATM   34  C   UNL     1     -10.255   6.012  68.612  1.00  0.00    -0.233 C  
ENDBRANCH  12  30
ENDBRANCH   4   6
TORSDOF 5
ENDMDL
MODEL       68
REMARK 921   NORMALIZED FREE ENERGY PREDICTED BY IDOCK:   -5.59 KCAL/MOL
REMARK 922        TOTAL FREE ENERGY PREDICTED BY IDOCK:   -8.12 KCAL/MOL
REMARK 923 INTER-LIGAND FREE ENERGY PREDICTED BY IDOCK:   -8.54 KCAL/MOL
REMARK 924 INTRA-LIGAND FREE ENERGY PREDICTED BY IDOCK:    0.42 KCAL/MOL
REMARK 927      BINDING AFFINITY PREDICTED BY RF-SCORE:    0.00 PKD
ROOT
HETATM    1  C   UNL     1     -12.773  15.654  73.947  1.00  0.00    -0.600 C  
HETATM    2  N   UNL     1     -12.697  14.883  72.717  1.00  0.00    -0.379 N  
HETATM    3  C   UNL     1     -13.659  13.794  72.574  1.00  0.00    -0.575 C  
HETATM    4  C   UNL     1     -12.031  15.494  71.633  1.00  0.00    -0.408 C  
HETATM    5  O   UNL     1     -11.582  16.635  71.745  1.00  0.00    -0.348 OA 
ENDROOT
BRANCH   4   6
HETATM    6  C   UNL     1     -11.851  14.717  70.410  1.00  0.00    -0.303 A  
HETATM    7  C   UNL     1     -12.115  13.361  70.256  1.00  0.00    -0.419 A  
HETATM    8  C   UNL     1     -11.862  12.986  68.932  1.00  0.00    -0.358 A  
HETATM    9  C   UNL     1     -12.001  11.829  68.186  1.00  0.00    -0.143 A  
HETATM   10  N   UNL     1     -11.547  11.797  66.920  1.00  0.00    -0.548 NA 
HETATM   11  C   UNL     1     -10.952  12.894  66.409  1.00  0.00    -0.285 A  
HETATM   12  N   UNL     1     -11.258  15.132  69.207  1.00  0.00    -0.261 NA 
HETATM   13  N   UNL     1     -10.835  14.080  67.041  1.00  0.00    -0.288 NA 
HETATM   14  C   UNL     1     -11.301  14.074  68.306  1.00  0.00    -0.288 A  
BRANCH  11  15
HETATM   15  N   UNL     1     -10.402  12.690  65.149  1.00  0.00    -0.288 NA 
HETATM   16  H   UNL     1     -10.524  13.472  64.504  1.00  0.00     0.000 HD 
BRANCH  15  17
HETATM   17  C   UNL     1      -9.715  11.609  64.615  1.00  0.00    -0.185 A  
HETATM   18  C   UNL     1      -9.987  11.077  63.368  1.00  0.00    -0.428 A  
HETATM   19  C   UNL     1      -9.232  10.012  62.873  1.00  0.00    -0.311 A  
HETATM   20  N   UNL     1      -8.741  11.082  65.382  1.00  0.00    -0.159 NA 
HETATM   21  C   UNL     1      -8.201   9.446  63.617  1.00  0.00    -0.169 A  
HETATM   22  C   UNL     1      -8.020  10.043  64.869  1.00  0.00    -0.140 A  
BRANCH  21  23
HETATM   23  N   UNL     1      -7.417   8.415  63.142  1.00  0.00    -0.105 NA 
HETATM   24  C   UNL     1      -5.958   8.558  62.993  1.00  0.00    -0.082 C  
HETATM   25  C   UNL     1      -5.221   7.628  63.989  1.00  0.00    -0.029 C  
HETATM   26  N   UNL     1      -5.639   6.215  63.906  1.00  0.00    -0.018 NA 
HETATM   27  C   UNL     1      -7.105   6.130  64.073  1.00  0.00    -0.053 C  
HETATM   28  H   UNL     1      -5.139   5.624  64.570  1.00  0.00     0.000 HD 
HETATM   29  C   UNL     1      -7.877   7.016  63.071  1.00  0.00    -0.107 C  
ENDBRANCH  21  23
ENDBRANCH  15  17
ENDBRANCH  11  15
BRANCH  12  30
HETATM   30  C   UNL     1     -10.627  16.422  68.942  1.00  0.00    -0.307 C  
HETATM   31  C   UNL     1      -8.702  17.651  68.171  1.00  0.00    -0.265 C  
HETATM   32  C   UNL     1     -11.029  17.132  67.633  1.00  0.00    -0.148 C  
HETATM   33  C   UNL     1      -9.762  17.802  67.090  1.00  0.00    -0.288 C  
HETATM   34  C   UNL     1      -9.091  16.379  68.909  1.00  0.00    -0.256 C  
ENDBRANCH  12  30
ENDBRANCH   4   6
TORSDOF 5
ENDMDL
MODEL       69
REMARK 921   NORMALIZED FREE ENERGY PREDICTED BY IDOCK:   -5.49 KCAL/MOL
REMARK 922        TOTAL FREE ENERGY PREDICTED BY IDOCK:   -7.98 KCAL/MOL
REMARK 923 INTER-LIGAND FREE ENERGY PREDICTED BY IDOCK:   -6.94 KCAL/MOL
REMARK 924 INTRA-LIGAND FREE ENERGY PREDICTED BY IDOCK:   -1.04 KCAL/MOL
REMARK 927      BINDING AFFINITY PREDICTED BY RF-SCORE:    0.00 PKD
ROOT
HETATM    1  C   UNL     1     -10.905  19.655  66.124  1.00  0.00    -0.315 C  
HETATM    2  N   UNL     1     -10.064  18.688  66.810  1.00  0.00    -0.356 N  
HETATM    3  C   UNL     1      -9.851  18.911  68.237  1.00  0.00    -0.374 C  
HETATM    4  C   UNL     1      -9.894  17.440  66.173  1.00  0.00    -0.245 C  
HETATM    5  O   UNL     1     -10.471  17.202  65.112  1.00  0.00    -0.666 OA 
ENDROOT
BRANCH   4   6
HETATM    6  C   UNL     1      -8.983  16.475  66.782  1.00  0.00    -0.234 A  
HETATM    7  C   UNL     1      -7.599  16.466  66.657  1.00  0.00    -0.288 A  
HETATM    8  C   UNL     1      -7.071  15.418  67.419  1.00  0.00    -0.229 A  
HETATM    9  C   UNL     1      -5.803  14.963  67.735  1.00  0.00    -0.094 A  
HETATM   10  N   UNL     1      -5.661  13.824  68.438  1.00  0.00    -0.093 NA 
HETATM   11  C   UNL     1      -6.764  13.142  68.807  1.00  0.00    -0.100 A  
HETATM   12  N   UNL     1      -9.313  15.306  67.487  1.00  0.00    -0.202 NA 
HETATM   13  N   UNL     1      -8.034  13.546  68.600  1.00  0.00    -0.114 NA 
HETATM   14  C   UNL     1      -8.136  14.690  67.895  1.00  0.00    -0.145 A  
BRANCH  11  15
HETATM   15  N   UNL     1      -6.484  11.916  69.400  1.00  0.00    -0.112 NA 
HETATM   16  H   UNL     1      -5.784  11.956  70.142  1.00  0.00     0.000 HD 
BRANCH  15  17
HETATM   17  C   UNL     1      -6.991  10.647  69.158  1.00  0.00    -0.085 A  
HETATM   18  C   UNL     1      -7.729   9.934  70.085  1.00  0.00    -0.188 A  
HETATM   19  C   UNL     1      -8.244   8.677  69.764  1.00  0.00    -0.121 A  
HETATM   20  N   UNL     1      -6.730  10.119  67.945  1.00  0.00    -0.066 NA 
HETATM   21  C   UNL     1      -8.020   8.097  68.519  1.00  0.00    -0.126 A  
HETATM   22  C   UNL     1      -7.249   8.890  67.663  1.00  0.00    -0.080 A  
BRANCH  21  23
HETATM   23  N   UNL     1      -8.543   6.872  68.162  1.00  0.00    -0.124 NA 
HETATM   24  C   UNL     1      -9.882   6.443  68.603  1.00  0.00    -0.142 C  
HETATM   25  C   UNL     1     -10.842   6.339  67.391  1.00  0.00    -0.363 C  
HETATM   26  N   UNL     1     -10.332   5.487  66.299  1.00  0.00    -0.398 NA 
HETATM   27  C   UNL     1      -8.996   5.968  65.890  1.00  0.00    -0.133 C  
HETATM   28  H   UNL     1     -10.981   5.433  65.515  1.00  0.00     0.000 HD 
HETATM   29  C   UNL     1      -7.998   6.049  67.065  1.00  0.00    -0.102 C  
ENDBRANCH  21  23
ENDBRANCH  15  17
ENDBRANCH  11  15
BRANCH  12  30
HETATM   30  C   UNL     1     -10.652  14.764  67.704  1.00  0.00    -0.262 C  
HETATM   31  C   UNL     1     -12.124  12.855  67.703  1.00  0.00    -0.239 C  
HETATM   32  C   UNL     1     -11.061  14.499  69.167  1.00  0.00    -0.284 C  
HETATM   33  C   UNL     1     -11.890  13.210  69.164  1.00  0.00    -0.364 C  
HETATM   34  C   UNL     1     -10.922  13.439  66.974  1.00  0.00    -0.298 C  
ENDBRANCH  12  30
ENDBRANCH   4   6
TORSDOF 5
ENDMDL
MODEL       70
REMARK 921   NORMALIZED FREE ENERGY PREDICTED BY IDOCK:   -5.48 KCAL/MOL
REMARK 922        TOTAL FREE ENERGY PREDICTED BY IDOCK:   -7.97 KCAL/MOL
REMARK 923 INTER-LIGAND FREE ENERGY PREDICTED BY IDOCK:   -7.15 KCAL/MOL
REMARK 924 INTRA-LIGAND FREE ENERGY PREDICTED BY IDOCK:   -0.82 KCAL/MOL
REMARK 927      BINDING AFFINITY PREDICTED BY RF-SCORE:    0.00 PKD
ROOT
HETATM    1  C   UNL     1      -9.262   3.550  67.263  1.00  0.00    -0.193 C  
HETATM    2  N   UNL     1      -9.229   5.001  67.185  1.00  0.00    -0.117 N  
HETATM    3  C   UNL     1     -10.416   5.649  66.634  1.00  0.00    -0.279 C  
HETATM    4  C   UNL     1      -8.287   5.653  68.011  1.00  0.00    -0.100 C  
HETATM    5  O   UNL     1      -7.573   5.000  68.771  1.00  0.00    -0.075 OA 
ENDROOT
BRANCH   4   6
HETATM    6  C   UNL     1      -8.158   7.103  67.895  1.00  0.00    -0.119 A  
HETATM    7  C   UNL     1      -7.333   7.781  67.006  1.00  0.00    -0.091 A  
HETATM    8  C   UNL     1      -7.516   9.160  67.163  1.00  0.00    -0.087 A  
HETATM    9  C   UNL     1      -7.044  10.301  66.537  1.00  0.00    -0.108 A  
HETATM   10  N   UNL     1      -7.363  11.510  67.033  1.00  0.00    -0.138 NA 
HETATM   11  C   UNL     1      -8.126  11.583  68.141  1.00  0.00    -0.146 A  
HETATM   12  N   UNL     1      -8.717   8.085  68.728  1.00  0.00    -0.131 NA 
HETATM   13  N   UNL     1      -8.682  10.529  68.773  1.00  0.00    -0.145 NA 
HETATM   14  C   UNL     1      -8.342   9.335  68.249  1.00  0.00    -0.120 A  
BRANCH  11  15
HETATM   15  N   UNL     1      -8.266  12.876  68.634  1.00  0.00    -0.332 NA 
HETATM   16  H   UNL     1      -8.169  12.954  69.647  1.00  0.00     0.000 HD 
BRANCH  15  17
HETATM   17  C   UNL     1      -8.514  14.078  67.987  1.00  0.00    -0.171 A  
HETATM   18  C   UNL     1      -9.515  14.242  67.047  1.00  0.00    -0.259 A  
HETATM   19  C   UNL     1      -9.738  15.490  66.461  1.00  0.00    -0.290 A  
HETATM   20  N   UNL     1      -7.720  15.114  68.323  1.00  0.00    -0.113 NA 
HETATM   21  C   UNL     1      -8.958  16.596  66.789  1.00  0.00    -0.237 A  
HETATM   22  C   UNL     1      -7.965  16.320  67.734  1.00  0.00    -0.142 A  
BRANCH  21  23
HETATM   23  N   UNL     1      -9.175  17.847  66.253  1.00  0.00    -0.449 NA 
HETATM   24  C   UNL     1     -10.515  18.461  66.237  1.00  0.00    -0.393 C  
HETATM   25  C   UNL     1     -10.551  19.701  67.165  1.00  0.00    -0.487 C  
HETATM   26  N   UNL     1      -9.496  20.693  66.875  1.00  0.00    -0.651 NA 
HETATM   27  C   UNL     1      -8.178  20.027  66.915  1.00  0.00    -0.324 C  
HETATM   28  H   UNL     1      -9.542  21.499  67.498  1.00  0.00     0.000 HD 
HETATM   29  C   UNL     1      -8.091  18.807  65.973  1.00  0.00    -0.112 C  
ENDBRANCH  21  23
ENDBRANCH  15  17
ENDBRANCH  11  15
BRANCH  12  30
HETATM   30  C   UNL     1      -9.501   7.862  69.940  1.00  0.00    -0.160 C  
HETATM   31  C   UNL     1      -9.828   8.301  72.288  1.00  0.00    -0.364 C  
HETATM   32  C   UNL     1     -10.805   8.673  70.078  1.00  0.00    -0.226 C  
HETATM   33  C   UNL     1     -10.931   9.053  71.558  1.00  0.00    -0.418 C  
HETATM   34  C   UNL     1      -8.733   8.127  71.244  1.00  0.00    -0.173 C  
ENDBRANCH  12  30
ENDBRANCH   4   6
TORSDOF 5
ENDMDL
MODEL       71
REMARK 921   NORMALIZED FREE ENERGY PREDICTED BY IDOCK:   -5.47 KCAL/MOL
REMARK 922        TOTAL FREE ENERGY PREDICTED BY IDOCK:   -7.96 KCAL/MOL
REMARK 923 INTER-LIGAND FREE ENERGY PREDICTED BY IDOCK:   -7.00 KCAL/MOL
REMARK 924 INTRA-LIGAND FREE ENERGY PREDICTED BY IDOCK:   -0.96 KCAL/MOL
REMARK 927      BINDING AFFINITY PREDICTED BY RF-SCORE:    0.00 PKD
ROOT
HETATM    1  C   UNL     1     -13.977   7.570  71.462  1.00  0.00    -0.410 C  
HETATM    2  N   UNL     1     -12.701   8.266  71.441  1.00  0.00    -0.294 N  
HETATM    3  C   UNL     1     -12.578   9.424  72.321  1.00  0.00    -0.306 C  
HETATM    4  C   UNL     1     -11.600   7.543  70.931  1.00  0.00    -0.286 C  
HETATM    5  O   UNL     1     -11.740   6.375  70.567  1.00  0.00    -0.386 OA 
ENDROOT
BRANCH   4   6
HETATM    6  C   UNL     1     -10.321   8.236  70.806  1.00  0.00    -0.193 A  
HETATM    7  C   UNL     1      -9.229   8.096  71.654  1.00  0.00    -0.220 A  
HETATM    8  C   UNL     1      -8.174   8.887  71.185  1.00  0.00    -0.218 A  
HETATM    9  C   UNL     1      -6.857   9.102  71.553  1.00  0.00     0.011 A  
HETATM   10  N   UNL     1      -6.135  10.042  70.916  1.00  0.00    -0.180 NA 
HETATM   11  C   UNL     1      -6.718  10.765  69.940  1.00  0.00    -0.156 A  
HETATM   12  N   UNL     1      -9.985   9.264  69.911  1.00  0.00    -0.193 NA 
HETATM   13  N   UNL     1      -7.969  10.577  69.474  1.00  0.00    -0.142 NA 
HETATM   14  C   UNL     1      -8.661   9.628  70.134  1.00  0.00    -0.231 A  
BRANCH  11  15
HETATM   15  N   UNL     1      -5.916  11.795  69.459  1.00  0.00    -0.081 NA 
HETATM   16  H   UNL     1      -4.974  11.508  69.192  1.00  0.00     0.000 HD 
BRANCH  15  17
HETATM   17  C   UNL     1      -6.175  13.147  69.281  1.00  0.00    -0.102 A  
HETATM   18  C   UNL     1      -5.957  14.098  70.261  1.00  0.00    -0.158 A  
HETATM   19  C   UNL     1      -6.201  15.448  70.003  1.00  0.00    -0.146 A  
HETATM   20  N   UNL     1      -6.660  13.509  68.077  1.00  0.00    -0.119 NA 
HETATM   21  C   UNL     1      -6.683  15.876  68.770  1.00  0.00    -0.125 A  
HETATM   22  C   UNL     1      -6.886  14.837  67.857  1.00  0.00    -0.160 A  
BRANCH  21  23
HETATM   23  N   UNL     1      -6.902  17.205  68.475  1.00  0.00    -0.181 NA 
HETATM   24  C   UNL     1      -5.882  18.027  67.800  1.00  0.00    -0.152 C  
HETATM   25  C   UNL     1      -6.367  18.434  66.386  1.00  0.00    -0.188 C  
HETATM   26  N   UNL     1      -7.688  19.091  66.374  1.00  0.00    -0.264 NA 
HETATM   27  C   UNL     1      -8.671  18.221  67.052  1.00  0.00    -0.263 C  
HETATM   28  H   UNL     1      -7.984  19.349  65.433  1.00  0.00     0.000 HD 
HETATM   29  C   UNL     1      -8.241  17.825  68.481  1.00  0.00    -0.296 C  
ENDBRANCH  21  23
ENDBRANCH  15  17
ENDBRANCH  11  15
BRANCH  12  30
HETATM   30  C   UNL     1     -10.872   9.913  68.949  1.00  0.00    -0.210 C  
HETATM   31  C   UNL     1     -11.779  11.952  68.037  1.00  0.00    -0.382 C  
HETATM   32  C   UNL     1     -10.350  10.041  67.504  1.00  0.00    -0.282 C  
HETATM   33  C   UNL     1     -10.829  11.402  66.984  1.00  0.00    -0.331 C  
HETATM   34  C   UNL     1     -11.295  11.337  69.342  1.00  0.00    -0.360 C  
ENDBRANCH  12  30
ENDBRANCH   4   6
TORSDOF 5
ENDMDL
MODEL       72
REMARK 921   NORMALIZED FREE ENERGY PREDICTED BY IDOCK:   -5.41 KCAL/MOL
REMARK 922        TOTAL FREE ENERGY PREDICTED BY IDOCK:   -7.88 KCAL/MOL
REMARK 923 INTER-LIGAND FREE ENERGY PREDICTED BY IDOCK:   -7.35 KCAL/MOL
REMARK 924 INTRA-LIGAND FREE ENERGY PREDICTED BY IDOCK:   -0.53 KCAL/MOL
REMARK 927      BINDING AFFINITY PREDICTED BY RF-SCORE:    0.00 PKD
ROOT
HETATM    1  C   UNL     1      -8.678  19.754  66.048  1.00  0.00    -0.265 C  
HETATM    2  N   UNL     1      -9.508  18.782  66.740  1.00  0.00    -0.307 N  
HETATM    3  C   UNL     1     -10.811  18.500  66.145  1.00  0.00    -0.023 C  
HETATM    4  C   UNL     1      -8.844  17.913  67.633  1.00  0.00    -0.250 C  
HETATM    5  O   UNL     1      -7.622  17.977  67.767  1.00  0.00    -0.213 OA 
ENDROOT
BRANCH   4   6
HETATM    6  C   UNL     1      -9.653  16.985  68.418  1.00  0.00    -0.277 A  
HETATM    7  C   UNL     1     -10.207  17.238  69.667  1.00  0.00     0.070 A  
HETATM    8  C   UNL     1     -10.951  16.127  70.079  1.00  0.00    -0.364 A  
HETATM    9  C   UNL     1     -11.759  15.820  71.160  1.00  0.00    -0.428 A  
HETATM   10  N   UNL     1     -12.252  14.575  71.288  1.00  0.00    -0.340 NA 
HETATM   11  C   UNL     1     -11.934  13.646  70.364  1.00  0.00    -0.302 A  
HETATM   12  N   UNL     1      -9.917  15.633  68.147  1.00  0.00    -0.216 NA 
HETATM   13  N   UNL     1     -11.212  13.876  69.248  1.00  0.00    -0.258 NA 
HETATM   14  C   UNL     1     -10.736  15.133  69.153  1.00  0.00    -0.253 A  
BRANCH  11  15
HETATM   15  N   UNL     1     -12.386  12.370  70.682  1.00  0.00    -0.333 NA 
HETATM   16  H   UNL     1     -13.231  12.352  71.253  1.00  0.00     0.000 HD 
BRANCH  15  17
HETATM   17  C   UNL     1     -11.885  11.117  70.358  1.00  0.00    -0.369 A  
HETATM   18  C   UNL     1     -12.023  10.010  71.175  1.00  0.00    -0.484 A  
HETATM   19  C   UNL     1     -11.530   8.767  70.772  1.00  0.00    -0.309 A  
HETATM   20  N   UNL     1     -11.241  11.016  69.178  1.00  0.00    -0.232 NA 
HETATM   21  C   UNL     1     -10.876   8.607  69.554  1.00  0.00    -0.129 A  
HETATM   22  C   UNL     1     -10.773   9.788  68.813  1.00  0.00    -0.215 A  
BRANCH  21  23
HETATM   23  N   UNL     1     -10.408   7.386  69.114  1.00  0.00    -0.204 NA 
HETATM   24  C   UNL     1     -11.313   6.361  68.566  1.00  0.00    -0.086 C  
HETATM   25  C   UNL     1     -11.030   6.142  67.059  1.00  0.00    -0.330 C  
HETATM   26  N   UNL     1      -9.618   5.836  66.756  1.00  0.00    -0.140 NA 
HETATM   27  C   UNL     1      -8.759   6.899  67.317  1.00  0.00    -0.119 C  
HETATM   28  H   UNL     1      -9.458   5.695  65.759  1.00  0.00     0.000 HD 
HETATM   29  C   UNL     1      -8.985   7.121  68.828  1.00  0.00    -0.128 C  
ENDBRANCH  21  23
ENDBRANCH  15  17
ENDBRANCH  11  15
BRANCH  12  30
HETATM   30  C   UNL     1      -9.378  14.840  67.046  1.00  0.00    -0.233 C  
HETATM   31  C   UNL     1      -8.863  12.668  66.134  1.00  0.00     0.194 C  
HETATM   32  C   UNL     1     -10.304  14.620  65.833  1.00  0.00    -0.334 C  
HETATM   33  C   UNL     1     -10.056  13.188  65.345  1.00  0.00    -0.260 C  
HETATM   34  C   UNL     1      -8.918  13.430  67.450  1.00  0.00    -0.215 C  
ENDBRANCH  12  30
ENDBRANCH   4   6
TORSDOF 5
ENDMDL
MODEL       73
REMARK 921   NORMALIZED FREE ENERGY PREDICTED BY IDOCK:   -5.35 KCAL/MOL
REMARK 922        TOTAL FREE ENERGY PREDICTED BY IDOCK:   -7.81 KCAL/MOL
REMARK 923 INTER-LIGAND FREE ENERGY PREDICTED BY IDOCK:   -7.18 KCAL/MOL
REMARK 924 INTRA-LIGAND FREE ENERGY PREDICTED BY IDOCK:   -0.63 KCAL/MOL
REMARK 927      BINDING AFFINITY PREDICTED BY RF-SCORE:    0.00 PKD
ROOT
HETATM    1  C   UNL     1      -9.050  19.656  67.118  1.00  0.00    -0.315 C  
HETATM    2  N   UNL     1      -9.128  18.277  67.572  1.00  0.00    -0.253 N  
HETATM    3  C   UNL     1     -10.124  17.987  68.598  1.00  0.00    -0.394 C  
HETATM    4  C   UNL     1      -8.570  17.302  66.715  1.00  0.00    -0.249 C  
HETATM    5  O   UNL     1      -8.086  17.632  65.633  1.00  0.00    -0.518 OA 
ENDROOT
BRANCH   4   6
HETATM    6  C   UNL     1      -8.544  15.917  67.176  1.00  0.00    -0.196 A  
HETATM    7  C   UNL     1      -7.447  15.254  67.712  1.00  0.00    -0.178 A  
HETATM    8  C   UNL     1      -7.822  13.956  68.077  1.00  0.00    -0.154 A  
HETATM    9  C   UNL     1      -7.207  12.885  68.702  1.00  0.00    -0.098 A  
HETATM   10  N   UNL     1      -7.857  11.712  68.803  1.00  0.00    -0.125 NA 
HETATM   11  C   UNL     1      -9.094  11.602  68.278  1.00  0.00    -0.187 A  
HETATM   12  N   UNL     1      -9.554  14.949  67.048  1.00  0.00    -0.231 NA 
HETATM   13  N   UNL     1      -9.791  12.609  67.713  1.00  0.00    -0.206 NA 
HETATM   14  C   UNL     1      -9.109  13.768  67.631  1.00  0.00    -0.196 A  
BRANCH  11  15
HETATM   15  N   UNL     1      -9.601  10.308  68.319  1.00  0.00    -0.140 NA 
HETATM   16  H   UNL     1     -10.452  10.205  68.873  1.00  0.00     0.000 HD 
BRANCH  15  17
HETATM   17  C   UNL     1      -9.150   9.131  67.739  1.00  0.00    -0.126 A  
HETATM   18  C   UNL     1      -8.479   8.146  68.440  1.00  0.00    -0.126 A  
HETATM   19  C   UNL     1      -8.086   6.967  67.804  1.00  0.00    -0.114 A  
HETATM   20  N   UNL     1      -9.400   8.978  66.423  1.00  0.00    -0.188 NA 
HETATM   21  C   UNL     1      -8.340   6.752  66.453  1.00  0.00    -0.121 A  
HETATM   22  C   UNL     1      -9.005   7.814  65.832  1.00  0.00    -0.113 A  
BRANCH  21  23
HETATM   23  N   UNL     1      -7.993   5.585  65.805  1.00  0.00    -0.104 NA 
HETATM   24  C   UNL     1      -7.873   4.305  66.527  1.00  0.00    -0.098 C  
HETATM   25  C   UNL     1      -8.979   3.322  66.068  1.00  0.00    -0.145 C  
HETATM   26  N   UNL     1      -9.026   3.118  64.606  1.00  0.00    -0.119 NA 
HETATM   27  C   UNL     1      -9.158   4.428  63.937  1.00  0.00    -0.138 C  
HETATM   28  H   UNL     1      -9.760   2.466  64.330  1.00  0.00     0.000 HD 
HETATM   29  C   UNL     1      -8.050   5.425  64.340  1.00  0.00    -0.123 C  
ENDBRANCH  21  23
ENDBRANCH  15  17
ENDBRANCH  11  15
BRANCH  12  30
HETATM   30  C   UNL     1     -10.832  15.104  66.359  1.00  0.00    -0.326 C  
HETATM   31  C   UNL     1     -12.206  14.619  64.439  1.00  0.00    -0.473 C  
HETATM   32  C   UNL     1     -11.988  14.203  66.838  1.00  0.00    -0.479 C  
HETATM   33  C   UNL     1     -12.777  13.800  65.586  1.00  0.00    -0.523 C  
HETATM   34  C   UNL     1     -10.762  14.879  64.840  1.00  0.00    -0.426 C  
ENDBRANCH  12  30
ENDBRANCH   4   6
TORSDOF 5
ENDMDL
MODEL       74
REMARK 921   NORMALIZED FREE ENERGY PREDICTED BY IDOCK:   -5.34 KCAL/MOL
REMARK 922        TOTAL FREE ENERGY PREDICTED BY IDOCK:   -7.79 KCAL/MOL
REMARK 923 INTER-LIGAND FREE ENERGY PREDICTED BY IDOCK:   -7.29 KCAL/MOL
REMARK 924 INTRA-LIGAND FREE ENERGY PREDICTED BY IDOCK:   -0.50 KCAL/MOL
REMARK 927      BINDING AFFINITY PREDICTED BY RF-SCORE:    0.00 PKD
ROOT
HETATM    1  C   UNL     1     -12.647  16.965  73.162  1.00  0.00     0.608 C  
HETATM    2  N   UNL     1     -12.448  15.546  72.920  1.00  0.00    -0.380 N  
HETATM    3  C   UNL     1     -12.017  14.747  74.063  1.00  0.00    -0.070 C  
HETATM    4  C   UNL     1     -13.080  15.010  71.776  1.00  0.00    -0.356 C  
HETATM    5  O   UNL     1     -13.784  15.726  71.064  1.00  0.00    -0.539 OA 
ENDROOT
BRANCH   4   6
HETATM    6  C   UNL     1     -12.830  13.610  71.446  1.00  0.00    -0.360 A  
HETATM    7  C   UNL     1     -13.225  12.510  72.195  1.00  0.00    -0.508 A  
HETATM    8  C   UNL     1     -12.843  11.336  71.535  1.00  0.00    -0.519 A  
HETATM    9  C   UNL     1     -13.015   9.979  71.746  1.00  0.00    -0.458 A  
HETATM   10  N   UNL     1     -12.404   9.098  70.934  1.00  0.00    -0.206 NA 
HETATM   11  C   UNL     1     -11.624   9.560  69.936  1.00  0.00     0.015 A  
HETATM   12  N   UNL     1     -12.038  13.101  70.403  1.00  0.00    -0.350 NA 
HETATM   13  N   UNL     1     -11.456  10.860  69.618  1.00  0.00    -0.277 NA 
HETATM   14  C   UNL     1     -12.083  11.712  70.453  1.00  0.00    -0.373 A  
BRANCH  11  15
HETATM   15  N   UNL     1     -10.938   8.558  69.259  1.00  0.00    -0.425 NA 
HETATM   16  H   UNL     1     -10.819   8.728  68.260  1.00  0.00     0.000 HD 
BRANCH  15  17
HETATM   17  C   UNL     1     -10.387   7.366  69.706  1.00  0.00    -0.222 A  
HETATM   18  C   UNL     1     -10.890   6.122  69.368  1.00  0.00    -0.420 A  
HETATM   19  C   UNL     1     -10.264   4.959  69.820  1.00  0.00    -0.284 A  
HETATM   20  N   UNL     1      -9.307   7.468  70.506  1.00  0.00    -0.161 NA 
HETATM   21  C   UNL     1      -9.134   5.011  70.632  1.00  0.00    -0.133 A  
HETATM   22  C   UNL     1      -8.718   6.312  70.929  1.00  0.00    -0.136 A  
BRANCH  21  23
HETATM   23  N   UNL     1      -8.476   3.880  71.066  1.00  0.00    -0.071 NA 
HETATM   24  C   UNL     1      -7.393   3.950  72.063  1.00  0.00    -0.059 C  
HETATM   25  C   UNL     1      -7.829   3.264  73.382  1.00  0.00    -0.069 C  
HETATM   26  N   UNL     1      -8.312   1.881  73.202  1.00  0.00    -0.057 NA 
HETATM   27  C   UNL     1      -9.401   1.872  72.204  1.00  0.00    -0.088 C  
HETATM   28  H   UNL     1      -8.592   1.451  74.084  1.00  0.00     0.000 HD 
HETATM   29  C   UNL     1      -8.993   2.514  70.861  1.00  0.00    -0.092 C  
ENDBRANCH  21  23
ENDBRANCH  15  17
ENDBRANCH  11  15
BRANCH  12  30
HETATM   30  C   UNL     1     -11.233  13.872  69.459  1.00  0.00    -0.184 C  
HETATM   31  C   UNL     1     -11.139  15.522  67.704  1.00  0.00    -0.311 C  
HETATM   32  C   UNL     1     -10.493  15.101  70.024  1.00  0.00    -0.207 C  
HETATM   33  C   UNL     1     -10.554  16.185  68.942  1.00  0.00    -0.275 C  
HETATM   34  C   UNL     1     -12.018  14.407  68.251  1.00  0.00    -0.323 C  
ENDBRANCH  12  30
ENDBRANCH   4   6
TORSDOF 5
ENDMDL
MODEL       75
REMARK 921   NORMALIZED FREE ENERGY PREDICTED BY IDOCK:   -5.33 KCAL/MOL
REMARK 922        TOTAL FREE ENERGY PREDICTED BY IDOCK:   -7.78 KCAL/MOL
REMARK 923 INTER-LIGAND FREE ENERGY PREDICTED BY IDOCK:   -7.60 KCAL/MOL
REMARK 924 INTRA-LIGAND FREE ENERGY PREDICTED BY IDOCK:   -0.18 KCAL/MOL
REMARK 927      BINDING AFFINITY PREDICTED BY RF-SCORE:    0.00 PKD
ROOT
HETATM    1  C   UNL     1      -7.925   4.364  71.352  1.00  0.00    -0.082 C  
HETATM    2  N   UNL     1      -8.135   5.511  70.486  1.00  0.00    -0.102 N  
HETATM    3  C   UNL     1      -6.961   6.327  70.191  1.00  0.00    -0.066 C  
HETATM    4  C   UNL     1      -9.301   5.490  69.689  1.00  0.00    -0.134 C  
HETATM    5  O   UNL     1     -10.057   4.520  69.722  1.00  0.00    -0.229 OA 
ENDROOT
BRANCH   4   6
HETATM    6  C   UNL     1      -9.598   6.666  68.874  1.00  0.00    -0.129 A  
HETATM    7  C   UNL     1      -9.068   6.947  67.621  1.00  0.00    -0.118 A  
HETATM    8  C   UNL     1      -9.623   8.138  67.140  1.00  0.00    -0.227 A  
HETATM    9  C   UNL     1      -9.543   8.866  65.965  1.00  0.00    -0.250 A  
HETATM   10  N   UNL     1     -10.154  10.061  65.881  1.00  0.00    -0.266 NA 
HETATM   11  C   UNL     1     -10.823  10.531  66.953  1.00  0.00    -0.187 A  
HETATM   12  N   UNL     1     -10.350   7.794  69.237  1.00  0.00    -0.216 NA 
HETATM   13  N   UNL     1     -11.008   9.861  68.109  1.00  0.00    -0.238 NA 
HETATM   14  C   UNL     1     -10.382   8.669  68.156  1.00  0.00    -0.216 A  
BRANCH  11  15
HETATM   15  N   UNL     1     -11.288  11.831  66.790  1.00  0.00    -0.386 NA 
HETATM   16  H   UNL     1     -12.269  11.898  66.517  1.00  0.00     0.000 HD 
BRANCH  15  17
HETATM   17  C   UNL     1     -10.649  13.054  66.933  1.00  0.00    -0.254 A  
HETATM   18  C   UNL     1      -9.298  13.179  67.197  1.00  0.00    -0.235 A  
HETATM   19  C   UNL     1      -8.708  14.442  67.291  1.00  0.00    -0.228 A  
HETATM   20  N   UNL     1     -11.420  14.152  66.798  1.00  0.00    -0.352 NA 
HETATM   21  C   UNL     1      -9.457  15.605  67.139  1.00  0.00    -0.217 A  
HETATM   22  C   UNL     1     -10.813  15.370  66.894  1.00  0.00    -0.313 A  
BRANCH  21  23
HETATM   23  N   UNL     1      -8.898  16.864  67.194  1.00  0.00    -0.201 NA 
HETATM   24  C   UNL     1      -8.752  17.592  68.467  1.00  0.00    -0.285 C  
HETATM   25  C   UNL     1      -7.253  17.755  68.826  1.00  0.00    -0.271 C  
HETATM   26  N   UNL     1      -6.447  18.370  67.754  1.00  0.00    -0.202 NA 
HETATM   27  C   UNL     1      -6.621  17.595  66.508  1.00  0.00    -0.227 C  
HETATM   28  H   UNL     1      -5.466  18.467  68.015  1.00  0.00     0.000 HD 
HETATM   29  C   UNL     1      -8.102  17.444  66.096  1.00  0.00    -0.220 C  
ENDBRANCH  21  23
ENDBRANCH  15  17
ENDBRANCH  11  15
BRANCH  12  30
HETATM   30  C   UNL     1     -10.946   8.067  70.542  1.00  0.00    -0.247 C  
HETATM   31  C   UNL     1     -12.338   9.479  71.914  1.00  0.00    -0.450 C  
HETATM   32  C   UNL     1     -12.204   7.254  70.911  1.00  0.00    -0.308 C  
HETATM   33  C   UNL     1     -13.134   8.205  71.672  1.00  0.00    -0.358 C  
HETATM   34  C   UNL     1     -11.351   9.534  70.757  1.00  0.00    -0.387 C  
ENDBRANCH  12  30
ENDBRANCH   4   6
TORSDOF 5
ENDMDL
MODEL       76
REMARK 921   NORMALIZED FREE ENERGY PREDICTED BY IDOCK:   -5.32 KCAL/MOL
REMARK 922        TOTAL FREE ENERGY PREDICTED BY IDOCK:   -7.76 KCAL/MOL
REMARK 923 INTER-LIGAND FREE ENERGY PREDICTED BY IDOCK:   -7.09 KCAL/MOL
REMARK 924 INTRA-LIGAND FREE ENERGY PREDICTED BY IDOCK:   -0.66 KCAL/MOL
REMARK 927      BINDING AFFINITY PREDICTED BY RF-SCORE:    0.00 PKD
ROOT
HETATM    1  C   UNL     1      -6.831   3.925  64.591  1.00  0.00    -0.049 C  
HETATM    2  N   UNL     1      -7.856   4.526  65.428  1.00  0.00    -0.089 N  
HETATM    3  C   UNL     1      -9.235   4.381  64.972  1.00  0.00    -0.157 C  
HETATM    4  C   UNL     1      -7.492   4.802  66.764  1.00  0.00    -0.086 C  
HETATM    5  O   UNL     1      -6.372   4.502  67.177  1.00  0.00    -0.038 OA 
ENDROOT
BRANCH   4   6
HETATM    6  C   UNL     1      -8.461   5.491  67.612  1.00  0.00    -0.102 A  
HETATM    7  C   UNL     1      -9.447   4.889  68.383  1.00  0.00    -0.187 A  
HETATM    8  C   UNL     1     -10.149   5.872  69.090  1.00  0.00    -0.244 A  
HETATM    9  C   UNL     1     -11.158   5.882  70.037  1.00  0.00    -0.341 A  
HETATM   10  N   UNL     1     -11.680   7.055  70.439  1.00  0.00    -0.304 NA 
HETATM   11  C   UNL     1     -11.215   8.198  69.897  1.00  0.00    -0.028 A  
HETATM   12  N   UNL     1      -8.684   6.874  67.714  1.00  0.00    -0.121 NA 
HETATM   13  N   UNL     1     -10.193   8.284  69.021  1.00  0.00    -0.214 NA 
HETATM   14  C   UNL     1      -9.695   7.090  68.643  1.00  0.00    -0.139 A  
BRANCH  11  15
HETATM   15  N   UNL     1     -11.929   9.327  70.286  1.00  0.00    -0.467 NA 
HETATM   16  H   UNL     1     -12.551   9.179  71.082  1.00  0.00     0.000 HD 
BRANCH  15  17
HETATM   17  C   UNL     1     -11.942  10.619  69.781  1.00  0.00    -0.291 A  
HETATM   18  C   UNL     1     -12.097  11.742  70.572  1.00  0.00    -0.439 A  
HETATM   19  C   UNL     1     -12.062  13.018  70.004  1.00  0.00    -0.367 A  
HETATM   20  N   UNL     1     -11.792  10.741  68.447  1.00  0.00    -0.483 NA 
HETATM   21  C   UNL     1     -11.889  13.198  68.635  1.00  0.00    -0.328 A  
HETATM   22  C   UNL     1     -11.761  12.001  67.924  1.00  0.00    -0.323 A  
BRANCH  21  23
HETATM   23  N   UNL     1     -11.818  14.445  68.051  1.00  0.00    -0.335 NA 
HETATM   24  C   UNL     1     -11.667  15.670  68.856  1.00  0.00    -0.384 C  
HETATM   25  C   UNL     1     -10.285  16.321  68.594  1.00  0.00    -0.254 C  
HETATM   26  N   UNL     1     -10.006  16.572  67.167  1.00  0.00    -0.259 NA 
HETATM   27  C   UNL     1     -10.160  15.312  66.412  1.00  0.00    -0.274 C  
HETATM   28  H   UNL     1      -9.092  17.001  67.021  1.00  0.00     0.000 HD 
HETATM   29  C   UNL     1     -11.541  14.651  66.617  1.00  0.00    -0.350 C  
ENDBRANCH  21  23
ENDBRANCH  15  17
ENDBRANCH  11  15
BRANCH  12  30
HETATM   30  C   UNL     1      -8.034   7.925  66.935  1.00  0.00    -0.108 C  
HETATM   31  C   UNL     1      -6.057   8.733  65.817  1.00  0.00    -0.052 C  
HETATM   32  C   UNL     1      -8.342   7.957  65.425  1.00  0.00    -0.146 C  
HETATM   33  C   UNL     1      -7.038   8.348  64.720  1.00  0.00    -0.080 C  
HETATM   34  C   UNL     1      -6.500   7.918  67.023  1.00  0.00    -0.056 C  
ENDBRANCH  12  30
ENDBRANCH   4   6
TORSDOF 5
ENDMDL
MODEL       77
REMARK 921   NORMALIZED FREE ENERGY PREDICTED BY IDOCK:   -5.32 KCAL/MOL
REMARK 922        TOTAL FREE ENERGY PREDICTED BY IDOCK:   -7.76 KCAL/MOL
REMARK 923 INTER-LIGAND FREE ENERGY PREDICTED BY IDOCK:   -7.08 KCAL/MOL
REMARK 924 INTRA-LIGAND FREE ENERGY PREDICTED BY IDOCK:   -0.68 KCAL/MOL
REMARK 927      BINDING AFFINITY PREDICTED BY RF-SCORE:    0.00 PKD
ROOT
HETATM    1  C   UNL     1     -12.500  14.535  64.278  1.00  0.00    -0.264 C  
HETATM    2  N   UNL     1     -11.920  13.203  64.325  1.00  0.00    -0.388 N  
HETATM    3  C   UNL     1     -12.631  12.159  63.594  1.00  0.00    -0.504 C  
HETATM    4  C   UNL     1     -10.557  13.125  64.686  1.00  0.00    -0.392 C  
HETATM    5  O   UNL     1      -9.914  14.151  64.905  1.00  0.00    -0.322 OA 
ENDROOT
BRANCH   4   6
HETATM    6  C   UNL     1      -9.961  11.801  64.836  1.00  0.00    -0.247 A  
HETATM    7  C   UNL     1      -9.582  10.952  63.804  1.00  0.00    -0.331 A  
HETATM    8  C   UNL     1      -9.010   9.794  64.340  1.00  0.00    -0.284 A  
HETATM    9  C   UNL     1      -8.404   8.659  63.830  1.00  0.00    -0.112 A  
HETATM   10  N   UNL     1      -8.048   7.664  64.663  1.00  0.00    -0.136 NA 
HETATM   11  C   UNL     1      -8.304   7.790  65.980  1.00  0.00    -0.133 A  
HETATM   12  N   UNL     1      -9.780  11.069  66.021  1.00  0.00    -0.215 NA 
HETATM   13  N   UNL     1      -8.827   8.885  66.569  1.00  0.00    -0.131 NA 
HETATM   14  C   UNL     1      -9.170   9.860  65.705  1.00  0.00    -0.194 A  
BRANCH  11  15
HETATM   15  N   UNL     1      -8.021   6.643  66.713  1.00  0.00    -0.107 NA 
HETATM   16  H   UNL     1      -7.644   5.872  66.160  1.00  0.00     0.000 HD 
BRANCH  15  17
HETATM   17  C   UNL     1      -8.162   6.363  68.064  1.00  0.00    -0.116 A  
HETATM   18  C   UNL     1      -7.159   6.575  68.993  1.00  0.00    -0.085 A  
HETATM   19  C   UNL     1      -7.379   6.310  70.346  1.00  0.00    -0.089 A  
HETATM   20  N   UNL     1      -9.352   5.864  68.451  1.00  0.00    -0.119 NA 
HETATM   21  C   UNL     1      -8.597   5.812  70.799  1.00  0.00    -0.129 A  
HETATM   22  C   UNL     1      -9.536   5.617  69.781  1.00  0.00    -0.148 A  
BRANCH  21  23
HETATM   23  N   UNL     1      -8.855   5.571  72.132  1.00  0.00    -0.130 NA 
HETATM   24  C   UNL     1      -8.714   6.627  73.150  1.00  0.00    -0.123 C  
HETATM   25  C   UNL     1     -10.098   6.990  73.746  1.00  0.00    -0.352 C  
HETATM   26  N   UNL     1     -10.846   5.828  74.267  1.00  0.00    -0.382 NA 
HETATM   27  C   UNL     1     -10.966   4.810  73.204  1.00  0.00    -0.300 C  
HETATM   28  H   UNL     1     -11.752   6.094  74.653  1.00  0.00     0.000 HD 
HETATM   29  C   UNL     1      -9.603   4.394  72.611  1.00  0.00    -0.137 C  
ENDBRANCH  21  23
ENDBRANCH  15  17
ENDBRANCH  11  15
BRANCH  12  30
HETATM   30  C   UNL     1     -10.216  11.452  67.362  1.00  0.00    -0.193 C  
HETATM   31  C   UNL     1     -11.670  11.056  69.244  1.00  0.00    -0.397 C  
HETATM   32  C   UNL     1      -9.331  10.986  68.535  1.00  0.00    -0.188 C  
HETATM   33  C   UNL     1     -10.280  10.616  69.681  1.00  0.00    -0.156 C  
HETATM   34  C   UNL     1     -11.632  10.976  67.724  1.00  0.00    -0.277 C  
ENDBRANCH  12  30
ENDBRANCH   4   6
TORSDOF 5
ENDMDL
MODEL       78
REMARK 921   NORMALIZED FREE ENERGY PREDICTED BY IDOCK:   -5.31 KCAL/MOL
REMARK 922        TOTAL FREE ENERGY PREDICTED BY IDOCK:   -7.75 KCAL/MOL
REMARK 923 INTER-LIGAND FREE ENERGY PREDICTED BY IDOCK:   -6.89 KCAL/MOL
REMARK 924 INTRA-LIGAND FREE ENERGY PREDICTED BY IDOCK:   -0.87 KCAL/MOL
REMARK 927      BINDING AFFINITY PREDICTED BY RF-SCORE:    0.00 PKD
ROOT
HETATM    1  C   UNL     1     -10.635  19.552  66.091  1.00  0.00    -0.487 C  
HETATM    2  N   UNL     1     -10.673  18.119  66.328  1.00  0.00    -0.238 N  
HETATM    3  C   UNL     1     -10.680  17.264  65.145  1.00  0.00     0.064 C  
HETATM    4  C   UNL     1     -10.275  17.686  67.612  1.00  0.00    -0.351 C  
HETATM    5  O   UNL     1      -9.886  18.501  68.449  1.00  0.00    -0.332 OA 
ENDROOT
BRANCH   4   6
HETATM    6  C   UNL     1     -10.387  16.263  67.923  1.00  0.00    -0.285 A  
HETATM    7  C   UNL     1     -11.547  15.597  68.298  1.00  0.00    -0.326 A  
HETATM    8  C   UNL     1     -11.267  14.237  68.468  1.00  0.00    -0.289 A  
HETATM    9  C   UNL     1     -12.004  13.102  68.758  1.00  0.00    -0.280 A  
HETATM   10  N   UNL     1     -11.371  11.931  68.953  1.00  0.00    -0.254 NA 
HETATM   11  C   UNL     1     -10.026  11.893  68.873  1.00  0.00    -0.006 A  
HETATM   12  N   UNL     1      -9.349  15.325  68.041  1.00  0.00    -0.195 NA 
HETATM   13  N   UNL     1      -9.238  12.932  68.531  1.00  0.00    -0.122 NA 
HETATM   14  C   UNL     1      -9.906  14.087  68.343  1.00  0.00    -0.232 A  
BRANCH  11  15
HETATM   15  N   UNL     1      -9.484  10.664  69.233  1.00  0.00    -0.356 NA 
HETATM   16  H   UNL     1      -8.791  10.710  69.981  1.00  0.00     0.000 HD 
BRANCH  15  17
HETATM   17  C   UNL     1      -9.721   9.385  68.750  1.00  0.00    -0.156 A  
HETATM   18  C   UNL     1     -10.029   9.116  67.429  1.00  0.00    -0.262 A  
HETATM   19  C   UNL     1     -10.218   7.801  67.000  1.00  0.00    -0.375 A  
HETATM   20  N   UNL     1      -9.634   8.381  69.646  1.00  0.00    -0.163 NA 
HETATM   21  C   UNL     1     -10.119   6.728  67.881  1.00  0.00    -0.159 A  
HETATM   22  C   UNL     1      -9.822   7.108  69.194  1.00  0.00    -0.160 A  
BRANCH  21  23
HETATM   23  N   UNL     1     -10.267   5.417  67.480  1.00  0.00    -0.192 NA 
HETATM   24  C   UNL     1     -10.684   5.069  66.110  1.00  0.00    -0.203 C  
HETATM   25  C   UNL     1      -9.531   4.357  65.360  1.00  0.00    -0.175 C  
HETATM   26  N   UNL     1      -8.987   3.186  66.076  1.00  0.00    -0.141 NA 
HETATM   27  C   UNL     1      -8.576   3.595  67.435  1.00  0.00    -0.104 C  
HETATM   28  H   UNL     1      -8.231   2.736  65.562  1.00  0.00     0.000 HD 
HETATM   29  C   UNL     1      -9.712   4.275  68.229  1.00  0.00    -0.096 C  
ENDBRANCH  21  23
ENDBRANCH  15  17
ENDBRANCH  11  15
BRANCH  12  30
HETATM   30  C   UNL     1      -7.916  15.588  67.944  1.00  0.00    -0.136 C  
HETATM   31  C   UNL     1      -6.125  16.910  67.019  1.00  0.00    -0.225 C  
HETATM   32  C   UNL     1      -7.277  16.373  69.107  1.00  0.00    -0.222 C  
HETATM   33  C   UNL     1      -6.229  17.303  68.485  1.00  0.00    -0.160 C  
HETATM   34  C   UNL     1      -7.499  16.353  66.678  1.00  0.00    -0.267 C  
ENDBRANCH  12  30
ENDBRANCH   4   6
TORSDOF 5
ENDMDL
MODEL       79
REMARK 921   NORMALIZED FREE ENERGY PREDICTED BY IDOCK:   -5.30 KCAL/MOL
REMARK 922        TOTAL FREE ENERGY PREDICTED BY IDOCK:   -7.75 KCAL/MOL
REMARK 923 INTER-LIGAND FREE ENERGY PREDICTED BY IDOCK:   -7.31 KCAL/MOL
REMARK 924 INTRA-LIGAND FREE ENERGY PREDICTED BY IDOCK:   -0.44 KCAL/MOL
REMARK 927      BINDING AFFINITY PREDICTED BY RF-SCORE:    0.00 PKD
ROOT
HETATM    1  C   UNL     1      -8.375  19.424  68.077  1.00  0.00    -0.319 C  
HETATM    2  N   UNL     1      -9.131  18.189  67.956  1.00  0.00    -0.276 N  
HETATM    3  C   UNL     1     -10.210  17.991  68.920  1.00  0.00    -0.311 C  
HETATM    4  C   UNL     1      -9.053  17.526  66.712  1.00  0.00    -0.262 C  
HETATM    5  O   UNL     1      -8.401  18.013  65.789  1.00  0.00    -0.508 OA 
ENDROOT
BRANCH   4   6
HETATM    6  C   UNL     1      -9.723  16.235  66.579  1.00  0.00    -0.263 A  
HETATM    7  C   UNL     1     -11.014  16.027  66.110  1.00  0.00    -0.083 A  
HETATM    8  C   UNL     1     -11.284  14.654  66.086  1.00  0.00    -0.341 A  
HETATM    9  C   UNL     1     -12.336  13.858  65.668  1.00  0.00    -0.482 A  
HETATM   10  N   UNL     1     -12.299  12.533  65.897  1.00  0.00    -0.603 NA 
HETATM   11  C   UNL     1     -11.238  12.011  66.545  1.00  0.00    -0.334 A  
HETATM   12  N   UNL     1      -9.266  14.981  67.016  1.00  0.00    -0.218 NA 
HETATM   13  N   UNL     1     -10.143  12.700  66.926  1.00  0.00    -0.227 NA 
HETATM   14  C   UNL     1     -10.217  14.023  66.680  1.00  0.00    -0.275 A  
BRANCH  11  15
HETATM   15  N   UNL     1     -11.382  10.661  66.846  1.00  0.00    -0.220 NA 
HETATM   16  H   UNL     1     -12.042  10.163  66.247  1.00  0.00     0.000 HD 
BRANCH  15  17
HETATM   17  C   UNL     1     -10.784   9.873  67.819  1.00  0.00    -0.277 A  
HETATM   18  C   UNL     1     -10.424   8.554  67.612  1.00  0.00    -0.308 A  
HETATM   19  C   UNL     1      -9.789   7.827  68.622  1.00  0.00    -0.174 A  
HETATM   20  N   UNL     1     -10.558  10.462  69.010  1.00  0.00    -0.207 NA 
HETATM   21  C   UNL     1      -9.516   8.396  69.862  1.00  0.00    -0.166 A  
HETATM   22  C   UNL     1      -9.935   9.725  69.975  1.00  0.00    -0.254 A  
BRANCH  21  23
HETATM   23  N   UNL     1      -8.861   7.714  70.867  1.00  0.00    -0.145 NA 
HETATM   24  C   UNL     1      -9.572   6.783  71.761  1.00  0.00    -0.157 C  
HETATM   25  C   UNL     1      -9.091   5.330  71.519  1.00  0.00    -0.145 C  
HETATM   26  N   UNL     1      -7.627   5.163  71.615  1.00  0.00    -0.098 NA 
HETATM   27  C   UNL     1      -6.968   6.110  70.692  1.00  0.00    -0.064 C  
HETATM   28  H   UNL     1      -7.336   4.199  71.453  1.00  0.00     0.000 HD 
HETATM   29  C   UNL     1      -7.394   7.576  70.927  1.00  0.00    -0.068 C  
ENDBRANCH  21  23
ENDBRANCH  15  17
ENDBRANCH  11  15
BRANCH  12  30
HETATM   30  C   UNL     1      -8.043  14.707  67.766  1.00  0.00    -0.152 C  
HETATM   31  C   UNL     1      -6.990  14.224  69.880  1.00  0.00     0.041 C  
HETATM   32  C   UNL     1      -7.490  13.270  67.686  1.00  0.00    -0.173 C  
HETATM   33  C   UNL     1      -6.940  12.933  69.077  1.00  0.00    -0.058 C  
HETATM   34  C   UNL     1      -8.144  15.006  69.270  1.00  0.00    -0.178 C  
ENDBRANCH  12  30
ENDBRANCH   4   6
TORSDOF 5
ENDMDL
MODEL       80
REMARK 921   NORMALIZED FREE ENERGY PREDICTED BY IDOCK:   -5.29 KCAL/MOL
REMARK 922        TOTAL FREE ENERGY PREDICTED BY IDOCK:   -7.73 KCAL/MOL
REMARK 923 INTER-LIGAND FREE ENERGY PREDICTED BY IDOCK:   -7.39 KCAL/MOL
REMARK 924 INTRA-LIGAND FREE ENERGY PREDICTED BY IDOCK:   -0.34 KCAL/MOL
REMARK 927      BINDING AFFINITY PREDICTED BY RF-SCORE:    0.00 PKD
ROOT
HETATM    1  C   UNL     1      -8.010  21.003  67.606  1.00  0.00     0.064 C  
HETATM    2  N   UNL     1      -8.430  19.617  67.725  1.00  0.00    -0.312 N  
HETATM    3  C   UNL     1      -8.499  19.073  69.077  1.00  0.00    -0.170 C  
HETATM    4  C   UNL     1      -9.124  19.075  66.620  1.00  0.00    -0.329 C  
HETATM    5  O   UNL     1      -9.375  19.776  65.641  1.00  0.00    -0.327 OA 
ENDROOT
BRANCH   4   6
HETATM    6  C   UNL     1      -9.482  17.659  66.661  1.00  0.00    -0.279 A  
HETATM    7  C   UNL     1     -10.748  17.143  66.909  1.00  0.00    -0.121 A  
HETATM    8  C   UNL     1     -10.705  15.747  66.821  1.00  0.00    -0.293 A  
HETATM    9  C   UNL     1     -11.629  14.720  66.898  1.00  0.00    -0.327 A  
HETATM   10  N   UNL     1     -11.207  13.443  66.868  1.00  0.00    -0.300 NA 
HETATM   11  C   UNL     1      -9.885  13.192  66.779  1.00  0.00    -0.251 A  
HETATM   12  N   UNL     1      -8.620  16.553  66.599  1.00  0.00    -0.226 NA 
HETATM   13  N   UNL     1      -8.925  14.127  66.634  1.00  0.00    -0.212 NA 
HETATM   14  C   UNL     1      -9.385  15.393  66.666  1.00  0.00    -0.263 A  
BRANCH  11  15
HETATM   15  N   UNL     1      -9.568  11.844  66.901  1.00  0.00    -0.196 NA 
HETATM   16  H   UNL     1      -8.858  11.517  66.245  1.00  0.00     0.000 HD 
BRANCH  15  17
HETATM   17  C   UNL     1     -10.048  10.866  67.760  1.00  0.00    -0.177 A  
HETATM   18  C   UNL     1     -10.184   9.538  67.399  1.00  0.00    -0.285 A  
HETATM   19  C   UNL     1     -10.638   8.596  68.324  1.00  0.00    -0.181 A  
HETATM   20  N   UNL     1     -10.387  11.272  69.000  1.00  0.00    -0.195 NA 
HETATM   21  C   UNL     1     -10.980   8.961  69.623  1.00  0.00    -0.123 A  
HETATM   22  C   UNL     1     -10.825  10.326  69.881  1.00  0.00    -0.302 A  
BRANCH  21  23
HETATM   23  N   UNL     1     -11.400   8.048  70.568  1.00  0.00    -0.257 NA 
HETATM   24  C   UNL     1     -11.230   6.597  70.372  1.00  0.00    -0.344 C  
HETATM   25  C   UNL     1     -10.217   6.030  71.398  1.00  0.00    -0.206 C  
HETATM   26  N   UNL     1     -10.545   6.353  72.801  1.00  0.00    -0.218 NA 
HETATM   27  C   UNL     1     -10.692   7.817  72.941  1.00  0.00    -0.385 C  
HETATM   28  H   UNL     1      -9.864   5.968  73.455  1.00  0.00     0.000 HD 
HETATM   29  C   UNL     1     -11.723   8.415  71.959  1.00  0.00    -0.352 C  
ENDBRANCH  21  23
ENDBRANCH  15  17
ENDBRANCH  11  15
BRANCH  12  30
HETATM   30  C   UNL     1      -7.161  16.582  66.548  1.00  0.00    -0.112 C  
HETATM   31  C   UNL     1      -5.138  17.851  66.216  1.00  0.00    -0.213 C  
HETATM   32  C   UNL     1      -6.423  16.632  67.901  1.00  0.00    -0.150 C  
HETATM   33  C   UNL     1      -5.209  17.548  67.705  1.00  0.00    -0.133 C  
HETATM   34  C   UNL     1      -6.580  17.753  65.741  1.00  0.00    -0.221 C  
ENDBRANCH  12  30
ENDBRANCH   4   6
TORSDOF 5
ENDMDL
MODEL       81
REMARK 921   NORMALIZED FREE ENERGY PREDICTED BY IDOCK:   -5.27 KCAL/MOL
REMARK 922        TOTAL FREE ENERGY PREDICTED BY IDOCK:   -7.71 KCAL/MOL
REMARK 923 INTER-LIGAND FREE ENERGY PREDICTED BY IDOCK:   -6.94 KCAL/MOL
REMARK 924 INTRA-LIGAND FREE ENERGY PREDICTED BY IDOCK:   -0.76 KCAL/MOL
REMARK 927      BINDING AFFINITY PREDICTED BY RF-SCORE:    0.00 PKD
ROOT
HETATM    1  C   UNL     1     -11.625  15.912  71.007  1.00  0.00    -0.424 C  
HETATM    2  N   UNL     1     -11.606  14.998  69.877  1.00  0.00    -0.274 N  
HETATM    3  C   UNL     1     -12.242  13.700  70.081  1.00  0.00    -0.342 C  
HETATM    4  C   UNL     1     -11.379  15.573  68.608  1.00  0.00    -0.344 C  
HETATM    5  O   UNL     1     -11.245  16.792  68.495  1.00  0.00    -0.319 OA 
ENDROOT
BRANCH   4   6
HETATM    6  C   UNL     1     -11.260  14.680  67.459  1.00  0.00    -0.333 A  
HETATM    7  C   UNL     1     -12.252  14.414  66.524  1.00  0.00    -0.358 A  
HETATM    8  C   UNL     1     -11.750  13.545  65.549  1.00  0.00    -0.361 A  
HETATM    9  C   UNL     1     -12.225  12.996  64.370  1.00  0.00    -0.406 A  
HETATM   10  N   UNL     1     -11.482  12.087  63.714  1.00  0.00    -0.426 NA 
HETATM   11  C   UNL     1     -10.292  11.719  64.229  1.00  0.00    -0.314 A  
HETATM   12  N   UNL     1     -10.196  13.818  67.147  1.00  0.00    -0.242 NA 
HETATM   13  N   UNL     1      -9.725  12.250  65.332  1.00  0.00    -0.188 NA 
HETATM   14  C   UNL     1     -10.497  13.157  65.962  1.00  0.00    -0.284 A  
BRANCH  11  15
HETATM   15  N   UNL     1      -9.687  10.675  63.538  1.00  0.00    -0.317 NA 
HETATM   16  H   UNL     1      -9.797  10.720  62.525  1.00  0.00     0.000 HD 
BRANCH  15  17
HETATM   17  C   UNL     1      -8.961   9.582  63.988  1.00  0.00    -0.188 A  
HETATM   18  C   UNL     1      -7.945   8.992  63.257  1.00  0.00    -0.148 A  
HETATM   19  C   UNL     1      -7.226   7.917  63.785  1.00  0.00    -0.092 A  
HETATM   20  N   UNL     1      -9.292   9.102  65.203  1.00  0.00    -0.180 NA 
HETATM   21  C   UNL     1      -7.515   7.398  65.043  1.00  0.00    -0.085 A  
HETATM   22  C   UNL     1      -8.569   8.052  65.690  1.00  0.00    -0.145 A  
BRANCH  21  23
HETATM   23  N   UNL     1      -6.802   6.360  65.603  1.00  0.00    -0.051 NA 
HETATM   24  C   UNL     1      -6.446   6.348  67.033  1.00  0.00    -0.046 C  
HETATM   25  C   UNL     1      -7.194   5.205  67.765  1.00  0.00    -0.067 C  
HETATM   26  N   UNL     1      -7.005   3.878  67.148  1.00  0.00    -0.061 NA 
HETATM   27  C   UNL     1      -7.387   3.945  65.722  1.00  0.00    -0.073 C  
HETATM   28  H   UNL     1      -7.506   3.144  67.648  1.00  0.00     0.000 HD 
HETATM   29  C   UNL     1      -6.633   5.049  64.949  1.00  0.00    -0.040 C  
ENDBRANCH  21  23
ENDBRANCH  15  17
ENDBRANCH  11  15
BRANCH  12  30
HETATM   30  C   UNL     1      -8.999  13.580  67.949  1.00  0.00    -0.200 C  
HETATM   31  C   UNL     1      -7.217  12.089  68.592  1.00  0.00    -0.110 C  
HETATM   32  C   UNL     1      -7.682  14.184  67.420  1.00  0.00    -0.189 C  
HETATM   33  C   UNL     1      -6.579  13.163  67.724  1.00  0.00    -0.151 C  
HETATM   34  C   UNL     1      -8.683  12.095  68.185  1.00  0.00    -0.185 C  
ENDBRANCH  12  30
ENDBRANCH   4   6
TORSDOF 5
ENDMDL
MODEL       82
REMARK 921   NORMALIZED FREE ENERGY PREDICTED BY IDOCK:   -5.25 KCAL/MOL
REMARK 922        TOTAL FREE ENERGY PREDICTED BY IDOCK:   -7.67 KCAL/MOL
REMARK 923 INTER-LIGAND FREE ENERGY PREDICTED BY IDOCK:   -7.03 KCAL/MOL
REMARK 924 INTRA-LIGAND FREE ENERGY PREDICTED BY IDOCK:   -0.65 KCAL/MOL
REMARK 927      BINDING AFFINITY PREDICTED BY RF-SCORE:    0.00 PKD
ROOT
HETATM    1  C   UNL     1     -12.170  15.791  71.647  1.00  0.00    -0.456 C  
HETATM    2  N   UNL     1     -11.755  15.507  70.284  1.00  0.00    -0.315 N  
HETATM    3  C   UNL     1     -10.796  16.434  69.690  1.00  0.00    -0.346 C  
HETATM    4  C   UNL     1     -11.963  14.187  69.827  1.00  0.00    -0.339 C  
HETATM    5  O   UNL     1     -12.438  13.338  70.581  1.00  0.00    -0.339 OA 
ENDROOT
BRANCH   4   6
HETATM    6  C   UNL     1     -11.647  13.884  68.434  1.00  0.00    -0.332 A  
HETATM    7  C   UNL     1     -12.385  14.275  67.324  1.00  0.00    -0.140 A  
HETATM    8  C   UNL     1     -11.744  13.835  66.161  1.00  0.00    -0.392 A  
HETATM    9  C   UNL     1     -11.953  13.974  64.800  1.00  0.00    -0.417 A  
HETATM   10  N   UNL     1     -11.167  13.308  63.936  1.00  0.00    -0.338 NA 
HETATM   11  C   UNL     1     -10.198  12.504  64.418  1.00  0.00    -0.320 A  
HETATM   12  N   UNL     1     -10.637  13.039  67.946  1.00  0.00    -0.225 NA 
HETATM   13  N   UNL     1      -9.883  12.362  65.721  1.00  0.00    -0.255 NA 
HETATM   14  C   UNL     1     -10.690  13.045  66.557  1.00  0.00    -0.278 A  
BRANCH  11  15
HETATM   15  N   UNL     1      -9.551  11.764  63.434  1.00  0.00    -0.550 NA 
HETATM   16  H   UNL     1      -9.525  12.213  62.518  1.00  0.00     0.000 HD 
BRANCH  15  17
HETATM   17  C   UNL     1      -8.935  10.522  63.482  1.00  0.00    -0.221 A  
HETATM   18  C   UNL     1      -9.047   9.659  64.557  1.00  0.00    -0.287 A  
HETATM   19  C   UNL     1      -8.433   8.406  64.526  1.00  0.00    -0.078 A  
HETATM   20  N   UNL     1      -8.201  10.176  62.406  1.00  0.00    -0.138 NA 
HETATM   21  C   UNL     1      -7.682   7.993  63.430  1.00  0.00    -0.140 A  
HETATM   22  C   UNL     1      -7.615   8.943  62.406  1.00  0.00    -0.105 A  
BRANCH  21  23
HETATM   23  N   UNL     1      -7.091   6.749  63.356  1.00  0.00    -0.056 NA 
HETATM   24  C   UNL     1      -5.852   6.435  64.089  1.00  0.00    -0.023 C  
HETATM   25  C   UNL     1      -6.129   5.384  65.193  1.00  0.00    -0.026 C  
HETATM   26  N   UNL     1      -6.791   4.161  64.698  1.00  0.00    -0.045 NA 
HETATM   27  C   UNL     1      -8.030   4.533  63.984  1.00  0.00    -0.093 C  
HETATM   28  H   UNL     1      -6.962   3.486  65.443  1.00  0.00     0.000 HD 
HETATM   29  C   UNL     1      -7.788   5.552  62.849  1.00  0.00    -0.091 C  
ENDBRANCH  21  23
ENDBRANCH  15  17
ENDBRANCH  11  15
BRANCH  12  30
HETATM   30  C   UNL     1      -9.721  12.222  68.737  1.00  0.00     0.030 C  
HETATM   31  C   UNL     1      -8.946  10.030  69.373  1.00  0.00    -0.205 C  
HETATM   32  C   UNL     1      -8.287  12.067  68.192  1.00  0.00    -0.165 C  
HETATM   33  C   UNL     1      -7.858  10.626  68.492  1.00  0.00    -0.115 C  
HETATM   34  C   UNL     1     -10.207  10.785  68.980  1.00  0.00    -0.229 C  
ENDBRANCH  12  30
ENDBRANCH   4   6
TORSDOF 5
ENDMDL
MODEL       83
REMARK 921   NORMALIZED FREE ENERGY PREDICTED BY IDOCK:   -5.24 KCAL/MOL
REMARK 922        TOTAL FREE ENERGY PREDICTED BY IDOCK:   -7.67 KCAL/MOL
REMARK 923 INTER-LIGAND FREE ENERGY PREDICTED BY IDOCK:   -6.88 KCAL/MOL
REMARK 924 INTRA-LIGAND FREE ENERGY PREDICTED BY IDOCK:   -0.79 KCAL/MOL
REMARK 927      BINDING AFFINITY PREDICTED BY RF-SCORE:    0.00 PKD
ROOT
HETATM    1  C   UNL     1      -7.191   5.016  71.389  1.00  0.00    -0.065 C  
HETATM    2  N   UNL     1      -7.279   5.940  70.270  1.00  0.00    -0.073 N  
HETATM    3  C   UNL     1      -6.406   7.109  70.323  1.00  0.00    -0.034 C  
HETATM    4  C   UNL     1      -7.846   5.433  69.081  1.00  0.00    -0.090 C  
HETATM    5  O   UNL     1      -8.203   4.256  69.016  1.00  0.00    -0.071 OA 
ENDROOT
BRANCH   4   6
HETATM    6  C   UNL     1      -8.038   6.353  67.964  1.00  0.00    -0.116 A  
HETATM    7  C   UNL     1      -7.120   6.618  66.955  1.00  0.00    -0.076 A  
HETATM    8  C   UNL     1      -7.681   7.519  66.042  1.00  0.00    -0.094 A  
HETATM    9  C   UNL     1      -7.291   8.083  64.840  1.00  0.00    -0.084 A  
HETATM   10  N   UNL     1      -8.065   9.022  64.265  1.00  0.00    -0.143 NA 
HETATM   11  C   UNL     1      -9.200   9.404  64.884  1.00  0.00    -0.183 A  
HETATM   12  N   UNL     1      -9.104   7.244  67.758  1.00  0.00    -0.125 NA 
HETATM   13  N   UNL     1      -9.687   8.861  66.019  1.00  0.00    -0.261 NA 
HETATM   14  C   UNL     1      -8.886   7.925  66.565  1.00  0.00    -0.152 A  
BRANCH  11  15
HETATM   15  N   UNL     1      -9.835  10.475  64.267  1.00  0.00    -0.324 NA 
HETATM   16  H   UNL     1     -10.170  10.280  63.323  1.00  0.00     0.000 HD 
BRANCH  15  17
HETATM   17  C   UNL     1     -10.092  11.765  64.711  1.00  0.00    -0.263 A  
HETATM   18  C   UNL     1     -10.784  12.701  63.966  1.00  0.00    -0.457 A  
HETATM   19  C   UNL     1     -11.043  13.970  64.487  1.00  0.00    -0.360 A  
HETATM   20  N   UNL     1      -9.627  12.079  65.936  1.00  0.00    -0.235 NA 
HETATM   21  C   UNL     1     -10.603  14.337  65.756  1.00  0.00    -0.309 A  
HETATM   22  C   UNL     1      -9.899  13.327  66.418  1.00  0.00    -0.281 A  
BRANCH  21  23
HETATM   23  N   UNL     1     -10.872  15.570  66.310  1.00  0.00    -0.307 NA 
HETATM   24  C   UNL     1     -11.479  15.703  67.647  1.00  0.00    -0.167 C  
HETATM   25  C   UNL     1     -10.470  16.339  68.636  1.00  0.00    -0.282 C  
HETATM   26  N   UNL     1      -9.903  17.619  68.168  1.00  0.00    -0.302 NA 
HETATM   27  C   UNL     1      -9.300  17.426  66.834  1.00  0.00    -0.263 C  
HETATM   28  H   UNL     1      -9.244  18.017  68.837  1.00  0.00     0.000 HD 
HETATM   29  C   UNL     1     -10.287  16.828  65.808  1.00  0.00    -0.305 C  
ENDBRANCH  21  23
ENDBRANCH  15  17
ENDBRANCH  11  15
BRANCH  12  30
HETATM   30  C   UNL     1     -10.226   7.490  68.660  1.00  0.00    -0.197 C  
HETATM   31  C   UNL     1     -11.811   6.623  70.256  1.00  0.00    -0.378 C  
HETATM   32  C   UNL     1      -9.888   8.115  70.028  1.00  0.00    -0.182 C  
HETATM   33  C   UNL     1     -10.819   7.458  71.053  1.00  0.00    -0.254 C  
HETATM   34  C   UNL     1     -11.054   6.239  68.993  1.00  0.00    -0.446 C  
ENDBRANCH  12  30
ENDBRANCH   4   6
TORSDOF 5
ENDMDL
MODEL       84
REMARK 921   NORMALIZED FREE ENERGY PREDICTED BY IDOCK:   -5.24 KCAL/MOL
REMARK 922        TOTAL FREE ENERGY PREDICTED BY IDOCK:   -7.66 KCAL/MOL
REMARK 923 INTER-LIGAND FREE ENERGY PREDICTED BY IDOCK:   -7.18 KCAL/MOL
REMARK 924 INTRA-LIGAND FREE ENERGY PREDICTED BY IDOCK:   -0.48 KCAL/MOL
REMARK 927      BINDING AFFINITY PREDICTED BY RF-SCORE:    0.00 PKD
ROOT
HETATM    1  C   UNL     1     -12.857  16.911  73.094  1.00  0.00     0.947 C  
HETATM    2  N   UNL     1     -12.617  15.493  72.887  1.00  0.00    -0.383 N  
HETATM    3  C   UNL     1     -12.065  14.755  74.018  1.00  0.00    -0.172 C  
HETATM    4  C   UNL     1     -13.312  14.889  71.816  1.00  0.00    -0.361 C  
HETATM    5  O   UNL     1     -14.100  15.549  71.138  1.00  0.00    -0.537 OA 
ENDROOT
BRANCH   4   6
HETATM    6  C   UNL     1     -13.029  13.489  71.514  1.00  0.00    -0.355 A  
HETATM    7  C   UNL     1     -13.430  12.393  72.268  1.00  0.00    -0.428 A  
HETATM    8  C   UNL     1     -13.008  11.217  71.639  1.00  0.00    -0.548 A  
HETATM    9  C   UNL     1     -13.164   9.860  71.865  1.00  0.00    -0.458 A  
HETATM   10  N   UNL     1     -12.513   8.978  71.085  1.00  0.00    -0.272 NA 
HETATM   11  C   UNL     1     -11.710   9.438  70.106  1.00  0.00    -0.015 A  
HETATM   12  N   UNL     1     -12.197  12.978  70.505  1.00  0.00    -0.354 NA 
HETATM   13  N   UNL     1     -11.553  10.736  69.774  1.00  0.00    -0.289 NA 
HETATM   14  C   UNL     1     -12.220  11.590  70.575  1.00  0.00    -0.377 A  
BRANCH  11  15
HETATM   15  N   UNL     1     -10.987   8.437  69.466  1.00  0.00    -0.420 NA 
HETATM   16  H   UNL     1     -11.180   7.495  69.805  1.00  0.00     0.000 HD 
BRANCH  15  17
HETATM   17  C   UNL     1     -10.047   8.498  68.446  1.00  0.00    -0.194 A  
HETATM   18  C   UNL     1     -10.364   8.329  67.111  1.00  0.00    -0.387 A  
HETATM   19  C   UNL     1      -9.377   8.442  66.130  1.00  0.00    -0.267 A  
HETATM   20  N   UNL     1      -8.774   8.738  68.819  1.00  0.00    -0.136 NA 
HETATM   21  C   UNL     1      -8.052   8.708  66.461  1.00  0.00    -0.103 A  
HETATM   22  C   UNL     1      -7.834   8.843  67.835  1.00  0.00    -0.102 A  
BRANCH  21  23
HETATM   23  N   UNL     1      -7.062   8.857  65.513  1.00  0.00    -0.080 NA 
HETATM   24  C   UNL     1      -6.272   7.710  65.031  1.00  0.00    -0.038 C  
HETATM   25  C   UNL     1      -6.584   7.428  63.540  1.00  0.00    -0.053 C  
HETATM   26  N   UNL     1      -6.421   8.605  62.664  1.00  0.00    -0.091 NA 
HETATM   27  C   UNL     1      -7.241   9.718  63.186  1.00  0.00    -0.119 C  
HETATM   28  H   UNL     1      -6.631   8.394  61.689  1.00  0.00     0.000 HD 
HETATM   29  C   UNL     1      -6.931  10.054  64.661  1.00  0.00    -0.137 C  
ENDBRANCH  21  23
ENDBRANCH  15  17
ENDBRANCH  11  15
BRANCH  12  30
HETATM   30  C   UNL     1     -11.375  13.748  69.575  1.00  0.00    -0.224 C  
HETATM   31  C   UNL     1     -11.254  15.205  67.658  1.00  0.00    -0.329 C  
HETATM   32  C   UNL     1     -10.869  15.118  70.070  1.00  0.00    -0.275 C  
HETATM   33  C   UNL     1     -10.920  16.066  68.867  1.00  0.00    -0.309 C  
HETATM   34  C   UNL     1     -12.055  14.044  68.229  1.00  0.00    -0.312 C  
ENDBRANCH  12  30
ENDBRANCH   4   6
TORSDOF 5
ENDMDL
MODEL       85
REMARK 921   NORMALIZED FREE ENERGY PREDICTED BY IDOCK:   -5.24 KCAL/MOL
REMARK 922        TOTAL FREE ENERGY PREDICTED BY IDOCK:   -7.66 KCAL/MOL
REMARK 923 INTER-LIGAND FREE ENERGY PREDICTED BY IDOCK:   -6.82 KCAL/MOL
REMARK 924 INTRA-LIGAND FREE ENERGY PREDICTED BY IDOCK:   -0.84 KCAL/MOL
REMARK 927      BINDING AFFINITY PREDICTED BY RF-SCORE:    0.00 PKD
ROOT
HETATM    1  C   UNL     1      -7.943   7.177  62.918  1.00  0.00    -0.100 C  
HETATM    2  N   UNL     1      -7.572   8.267  63.805  1.00  0.00    -0.125 N  
HETATM    3  C   UNL     1      -7.218   9.531  63.167  1.00  0.00    -0.107 C  
HETATM    4  C   UNL     1      -7.989   8.152  65.149  1.00  0.00    -0.126 C  
HETATM    5  O   UNL     1      -8.661   7.185  65.509  1.00  0.00    -0.146 OA 
ENDROOT
BRANCH   4   6
HETATM    6  C   UNL     1      -7.557   9.179  66.093  1.00  0.00    -0.095 A  
HETATM    7  C   UNL     1      -6.401   9.149  66.862  1.00  0.00    -0.063 A  
HETATM    8  C   UNL     1      -6.309  10.328  67.610  1.00  0.00    -0.058 A  
HETATM    9  C   UNL     1      -5.382  10.885  68.474  1.00  0.00    -0.040 A  
HETATM   10  N   UNL     1      -5.677  12.030  69.115  1.00  0.00    -0.061 NA 
HETATM   11  C   UNL     1      -6.879  12.605  68.911  1.00  0.00    -0.097 A  
HETATM   12  N   UNL     1      -8.270  10.313  66.514  1.00  0.00    -0.124 NA 
HETATM   13  N   UNL     1      -7.811  12.168  68.039  1.00  0.00    -0.134 NA 
HETATM   14  C   UNL     1      -7.481  11.020  67.415  1.00  0.00    -0.106 A  
BRANCH  11  15
HETATM   15  N   UNL     1      -7.117  13.700  69.734  1.00  0.00    -0.322 NA 
HETATM   16  H   UNL     1      -7.061  13.497  70.733  1.00  0.00     0.000 HD 
BRANCH  15  17
HETATM   17  C   UNL     1      -7.419  15.020  69.434  1.00  0.00    -0.196 A  
HETATM   18  C   UNL     1      -6.460  16.007  69.297  1.00  0.00    -0.169 A  
HETATM   19  C   UNL     1      -6.828  17.309  68.954  1.00  0.00    -0.226 A  
HETATM   20  N   UNL     1      -8.725  15.314  69.273  1.00  0.00    -0.237 NA 
HETATM   21  C   UNL     1      -8.161  17.659  68.758  1.00  0.00    -0.233 A  
HETATM   22  C   UNL     1      -9.051  16.596  68.937  1.00  0.00    -0.238 A  
BRANCH  21  23
HETATM   23  N   UNL     1      -8.552  18.928  68.387  1.00  0.00    -0.335 NA 
HETATM   24  C   UNL     1      -7.765  19.734  67.436  1.00  0.00    -0.272 C  
HETATM   25  C   UNL     1      -8.558  19.943  66.122  1.00  0.00    -0.312 C  
HETATM   26  N   UNL     1      -9.908  20.506  66.323  1.00  0.00    -0.617 NA 
HETATM   27  C   UNL     1     -10.653  19.655  67.273  1.00  0.00    -0.472 C  
HETATM   28  H   UNL     1     -10.409  20.635  65.444  1.00  0.00     0.000 HD 
HETATM   29  C   UNL     1      -9.911  19.454  68.612  1.00  0.00    -0.444 C  
ENDBRANCH  21  23
ENDBRANCH  15  17
ENDBRANCH  11  15
BRANCH  12  30
HETATM   30  C   UNL     1      -9.636  10.676  66.145  1.00  0.00    -0.188 C  
HETATM   31  C   UNL     1     -11.636  11.928  66.637  1.00  0.00    -0.337 C  
HETATM   32  C   UNL     1      -9.794  11.741  65.042  1.00  0.00    -0.257 C  
HETATM   33  C   UNL     1     -10.994  12.609  65.438  1.00  0.00    -0.320 C  
HETATM   34  C   UNL     1     -10.489  11.192  67.314  1.00  0.00    -0.263 C  
ENDBRANCH  12  30
ENDBRANCH   4   6
TORSDOF 5
ENDMDL
MODEL       86
REMARK 921   NORMALIZED FREE ENERGY PREDICTED BY IDOCK:   -5.18 KCAL/MOL
REMARK 922        TOTAL FREE ENERGY PREDICTED BY IDOCK:   -7.58 KCAL/MOL
REMARK 923 INTER-LIGAND FREE ENERGY PREDICTED BY IDOCK:   -6.73 KCAL/MOL
REMARK 924 INTRA-LIGAND FREE ENERGY PREDICTED BY IDOCK:   -0.85 KCAL/MOL
REMARK 927      BINDING AFFINITY PREDICTED BY RF-SCORE:    0.00 PKD
ROOT
HETATM    1  C   UNL     1     -12.726  14.487  64.969  1.00  0.00    -0.144 C  
HETATM    2  N   UNL     1     -11.693  13.996  65.866  1.00  0.00    -0.352 N  
HETATM    3  C   UNL     1     -11.240  14.920  66.901  1.00  0.00    -0.343 C  
HETATM    4  C   UNL     1     -11.539  12.595  65.937  1.00  0.00    -0.396 C  
HETATM    5  O   UNL     1     -12.280  11.855  65.290  1.00  0.00    -0.357 OA 
ENDROOT
BRANCH   4   6
HETATM    6  C   UNL     1     -10.451  12.064  66.755  1.00  0.00    -0.214 A  
HETATM    7  C   UNL     1      -9.157  11.801  66.324  1.00  0.00    -0.209 A  
HETATM    8  C   UNL     1      -8.392  11.344  67.402  1.00  0.00    -0.144 A  
HETATM    9  C   UNL     1      -7.066  11.000  67.603  1.00  0.00    -0.088 A  
HETATM   10  N   UNL     1      -6.685  10.487  68.786  1.00  0.00    -0.053 NA 
HETATM   11  C   UNL     1      -7.610  10.304  69.750  1.00  0.00    -0.162 A  
HETATM   12  N   UNL     1     -10.521  11.589  68.075  1.00  0.00    -0.183 NA 
HETATM   13  N   UNL     1      -8.905  10.672  69.663  1.00  0.00     0.044 NA 
HETATM   14  C   UNL     1      -9.250  11.183  68.465  1.00  0.00    -0.183 A  
BRANCH  11  15
HETATM   15  N   UNL     1      -7.122   9.638  70.868  1.00  0.00    -0.304 NA 
HETATM   16  H   UNL     1      -6.255  10.024  71.244  1.00  0.00     0.000 HD 
BRANCH  15  17
HETATM   17  C   UNL     1      -7.608   8.539  71.562  1.00  0.00    -0.108 A  
HETATM   18  C   UNL     1      -7.193   7.243  71.318  1.00  0.00    -0.072 A  
HETATM   19  C   UNL     1      -7.693   6.185  72.080  1.00  0.00    -0.097 A  
HETATM   20  N   UNL     1      -8.529   8.792  72.514  1.00  0.00    -0.403 NA 
HETATM   21  C   UNL     1      -8.630   6.395  73.088  1.00  0.00    -0.119 A  
HETATM   22  C   UNL     1      -8.996   7.736  73.241  1.00  0.00    -0.231 A  
BRANCH  21  23
HETATM   23  N   UNL     1      -9.117   5.375  73.877  1.00  0.00    -0.123 NA 
HETATM   24  C   UNL     1     -10.523   5.343  74.320  1.00  0.00    -0.262 C  
HETATM   25  C   UNL     1     -11.266   4.150  73.666  1.00  0.00    -0.225 C  
HETATM   26  N   UNL     1     -10.602   2.849  73.873  1.00  0.00    -0.163 NA 
HETATM   27  C   UNL     1      -9.204   2.935  73.403  1.00  0.00    -0.085 C  
HETATM   28  H   UNL     1     -11.111   2.081  73.435  1.00  0.00     0.000 HD 
HETATM   29  C   UNL     1      -8.418   4.090  74.061  1.00  0.00    -0.091 C  
ENDBRANCH  21  23
ENDBRANCH  15  17
ENDBRANCH  11  15
BRANCH  12  30
HETATM   30  C   UNL     1     -11.721  11.460  68.896  1.00  0.00    -0.343 C  
HETATM   31  C   UNL     1     -12.826  10.437  70.779  1.00  0.00    -0.450 C  
HETATM   32  C   UNL     1     -11.964  12.566  69.943  1.00  0.00    -0.371 C  
HETATM   33  C   UNL     1     -12.548  11.878  71.182  1.00  0.00    -0.390 C  
HETATM   34  C   UNL     1     -11.807  10.146  69.687  1.00  0.00    -0.114 C  
ENDBRANCH  12  30
ENDBRANCH   4   6
TORSDOF 5
ENDMDL
MODEL       87
REMARK 921   NORMALIZED FREE ENERGY PREDICTED BY IDOCK:   -5.16 KCAL/MOL
REMARK 922        TOTAL FREE ENERGY PREDICTED BY IDOCK:   -7.56 KCAL/MOL
REMARK 923 INTER-LIGAND FREE ENERGY PREDICTED BY IDOCK:   -6.66 KCAL/MOL
REMARK 924 INTRA-LIGAND FREE ENERGY PREDICTED BY IDOCK:   -0.91 KCAL/MOL
REMARK 927      BINDING AFFINITY PREDICTED BY RF-SCORE:    0.00 PKD
ROOT
HETATM    1  C   UNL     1     -10.188   5.517  67.516  1.00  0.00    -0.199 C  
HETATM    2  N   UNL     1      -9.653   6.869  67.514  1.00  0.00    -0.126 N  
HETATM    3  C   UNL     1     -10.454   7.883  66.836  1.00  0.00    -0.318 C  
HETATM    4  C   UNL     1      -8.678   7.159  68.494  1.00  0.00    -0.126 C  
HETATM    5  O   UNL     1      -8.348   6.302  69.313  1.00  0.00    -0.115 OA 
ENDROOT
BRANCH   4   6
HETATM    6  C   UNL     1      -8.048   8.476  68.467  1.00  0.00    -0.122 A  
HETATM    7  C   UNL     1      -7.008   8.868  67.633  1.00  0.00    -0.075 A  
HETATM    8  C   UNL     1      -6.705  10.213  67.871  1.00  0.00    -0.067 A  
HETATM    9  C   UNL     1      -5.844  11.148  67.322  1.00  0.00    -0.063 A  
HETATM   10  N   UNL     1      -5.738  12.365  67.885  1.00  0.00    -0.074 NA 
HETATM   11  C   UNL     1      -6.467  12.643  68.984  1.00  0.00    -0.097 A  
HETATM   12  N   UNL     1      -8.259   9.548  69.350  1.00  0.00    -0.115 NA 
HETATM   13  N   UNL     1      -7.376  11.819  69.543  1.00  0.00     0.131 NA 
HETATM   14  C   UNL     1      -7.455  10.610  68.953  1.00  0.00    -0.108 A  
BRANCH  11  15
HETATM   15  N   UNL     1      -6.164  13.876  69.552  1.00  0.00    -0.109 NA 
HETATM   16  H   UNL     1      -5.441  13.843  70.271  1.00  0.00     0.000 HD 
BRANCH  15  17
HETATM   17  C   UNL     1      -6.676  15.143  69.311  1.00  0.00    -0.146 A  
HETATM   18  C   UNL     1      -5.931  16.301  69.442  1.00  0.00    -0.157 A  
HETATM   19  C   UNL     1      -6.495  17.543  69.146  1.00  0.00    -0.240 A  
HETATM   20  N   UNL     1      -7.967  15.205  68.931  1.00  0.00    -0.164 NA 
HETATM   21  C   UNL     1      -7.818  17.658  68.729  1.00  0.00    -0.242 A  
HETATM   22  C   UNL     1      -8.488  16.434  68.647  1.00  0.00    -0.229 A  
BRANCH  21  23
HETATM   23  N   UNL     1      -8.393  18.867  68.399  1.00  0.00    -0.335 NA 
HETATM   24  C   UNL     1      -7.728  19.819  67.491  1.00  0.00    -0.278 C  
HETATM   25  C   UNL     1      -8.528  19.956  66.172  1.00  0.00    -0.319 C  
HETATM   26  N   UNL     1      -9.950  20.300  66.371  1.00  0.00    -0.572 NA 
HETATM   27  C   UNL     1     -10.568  19.309  67.276  1.00  0.00    -0.484 C  
HETATM   28  H   UNL     1     -10.454  20.385  65.488  1.00  0.00     0.000 HD 
HETATM   29  C   UNL     1      -9.819  19.172  68.620  1.00  0.00    -0.420 C  
ENDBRANCH  21  23
ENDBRANCH  15  17
ENDBRANCH  11  15
BRANCH  12  30
HETATM   30  C   UNL     1      -9.113   9.551  70.535  1.00  0.00    -0.219 C  
HETATM   31  C   UNL     1     -11.167   8.864  71.592  1.00  0.00    -0.415 C  
HETATM   32  C   UNL     1      -8.743   8.559  71.656  1.00  0.00    -0.262 C  
HETATM   33  C   UNL     1     -10.063   8.034  72.231  1.00  0.00    -0.311 C  
HETATM   34  C   UNL     1     -10.597   9.279  70.244  1.00  0.00    -0.278 C  
ENDBRANCH  12  30
ENDBRANCH   4   6
TORSDOF 5
ENDMDL
MODEL       88
REMARK 921   NORMALIZED FREE ENERGY PREDICTED BY IDOCK:   -5.10 KCAL/MOL
REMARK 922        TOTAL FREE ENERGY PREDICTED BY IDOCK:   -7.48 KCAL/MOL
REMARK 923 INTER-LIGAND FREE ENERGY PREDICTED BY IDOCK:   -6.74 KCAL/MOL
REMARK 924 INTRA-LIGAND FREE ENERGY PREDICTED BY IDOCK:   -0.74 KCAL/MOL
REMARK 927      BINDING AFFINITY PREDICTED BY RF-SCORE:    0.00 PKD
ROOT
HETATM    1  C   UNL     1     -10.066   3.917  73.477  1.00  0.00    -0.133 C  
HETATM    2  N   UNL     1      -9.338   4.909  72.704  1.00  0.00    -0.133 N  
HETATM    3  C   UNL     1      -8.305   5.656  73.414  1.00  0.00    -0.116 C  
HETATM    4  C   UNL     1      -9.384   4.767  71.300  1.00  0.00    -0.148 C  
HETATM    5  O   UNL     1      -9.986   3.822  70.791  1.00  0.00    -0.161 OA 
ENDROOT
BRANCH   4   6
HETATM    6  C   UNL     1      -8.744   5.796  70.484  1.00  0.00    -0.139 A  
HETATM    7  C   UNL     1      -7.442   5.764  70.002  1.00  0.00    -0.075 A  
HETATM    8  C   UNL     1      -7.207   6.904  69.225  1.00  0.00    -0.090 A  
HETATM    9  C   UNL     1      -6.160   7.380  68.454  1.00  0.00    -0.031 A  
HETATM   10  N   UNL     1      -6.242   8.606  67.907  1.00  0.00    -0.051 NA 
HETATM   11  C   UNL     1      -7.341   9.353  68.136  1.00  0.00    -0.078 A  
HETATM   12  N   UNL     1      -9.251   7.060  70.142  1.00  0.00    -0.152 NA 
HETATM   13  N   UNL     1      -8.431   8.943  68.816  1.00  0.00    -0.130 NA 
HETATM   14  C   UNL     1      -8.313   7.711  69.348  1.00  0.00    -0.131 A  
BRANCH  11  15
HETATM   15  N   UNL     1      -7.245  10.648  67.638  1.00  0.00    -0.088 NA 
HETATM   16  H   UNL     1      -6.291  10.955  67.443  1.00  0.00     0.000 HD 
BRANCH  15  17
HETATM   17  C   UNL     1      -8.220  11.595  67.361  1.00  0.00    -0.153 A  
HETATM   18  C   UNL     1      -8.438  12.712  68.146  1.00  0.00    -0.177 A  
HETATM   19  C   UNL     1      -9.411  13.649  67.790  1.00  0.00    -0.218 A  
HETATM   20  N   UNL     1      -8.969  11.379  66.262  1.00  0.00    -0.197 NA 
HETATM   21  C   UNL     1     -10.197  13.482  66.654  1.00  0.00    -0.275 A  
HETATM   22  C   UNL     1      -9.910  12.314  65.941  1.00  0.00    -0.251 A  
BRANCH  21  23
HETATM   23  N   UNL     1     -11.142  14.405  66.259  1.00  0.00    -0.325 NA 
HETATM   24  C   UNL     1     -10.830  15.843  66.170  1.00  0.00    -0.208 C  
HETATM   25  C   UNL     1     -10.877  16.314  64.694  1.00  0.00    -0.100 C  
HETATM   26  N   UNL     1     -12.142  15.990  64.005  1.00  0.00    -1.147 NA 
HETATM   27  C   UNL     1     -12.398  14.539  64.116  1.00  0.00    -0.286 C  
HETATM   28  H   UNL     1     -12.148  16.311  63.037  1.00  0.00     0.000 HD 
HETATM   29  C   UNL     1     -12.396  14.037  65.576  1.00  0.00    -0.483 C  
ENDBRANCH  21  23
ENDBRANCH  15  17
ENDBRANCH  11  15
BRANCH  12  30
HETATM   30  C   UNL     1     -10.510   7.649  70.591  1.00  0.00    -0.216 C  
HETATM   31  C   UNL     1     -11.650   9.251  71.985  1.00  0.00    -0.305 C  
HETATM   32  C   UNL     1     -11.155   8.693  69.657  1.00  0.00    -0.023 C  
HETATM   33  C   UNL     1     -11.765   9.772  70.560  1.00  0.00    -0.343 C  
HETATM   34  C   UNL     1     -10.429   8.343  71.959  1.00  0.00    -0.384 C  
ENDBRANCH  12  30
ENDBRANCH   4   6
TORSDOF 5
ENDMDL
MODEL       89
REMARK 921   NORMALIZED FREE ENERGY PREDICTED BY IDOCK:   -5.04 KCAL/MOL
REMARK 922        TOTAL FREE ENERGY PREDICTED BY IDOCK:   -7.41 KCAL/MOL
REMARK 923 INTER-LIGAND FREE ENERGY PREDICTED BY IDOCK:   -6.76 KCAL/MOL
REMARK 924 INTRA-LIGAND FREE ENERGY PREDICTED BY IDOCK:   -0.65 KCAL/MOL
REMARK 927      BINDING AFFINITY PREDICTED BY RF-SCORE:    0.00 PKD
ROOT
HETATM    1  C   UNL     1     -10.423  19.430  65.818  1.00  0.00    -0.392 C  
HETATM    2  N   UNL     1      -9.529  18.447  66.404  1.00  0.00    -0.312 N  
HETATM    3  C   UNL     1      -8.099  18.670  66.208  1.00  0.00    -0.244 C  
HETATM    4  C   UNL     1     -10.067  17.644  67.433  1.00  0.00    -0.331 C  
HETATM    5  O   UNL     1     -11.224  17.818  67.815  1.00  0.00    -0.075 OA 
ENDROOT
BRANCH   4   6
HETATM    6  C   UNL     1      -9.231  16.581  67.985  1.00  0.00    -0.214 A  
HETATM    7  C   UNL     1      -8.133  16.754  68.818  1.00  0.00    -0.252 A  
HETATM    8  C   UNL     1      -7.618  15.502  69.172  1.00  0.00    -0.204 A  
HETATM    9  C   UNL     1      -6.611  15.043  70.004  1.00  0.00    -0.158 A  
HETATM   10  N   UNL     1      -6.315  13.731  70.027  1.00  0.00    -0.117 NA 
HETATM   11  C   UNL     1      -7.000  12.891  69.226  1.00  0.00     0.039 A  
HETATM   12  N   UNL     1      -9.275  15.210  67.684  1.00  0.00    -0.180 NA 
HETATM   13  N   UNL     1      -8.037  13.241  68.438  1.00  0.00    -0.146 NA 
HETATM   14  C   UNL     1      -8.305  14.562  68.441  1.00  0.00    -0.153 A  
BRANCH  11  15
HETATM   15  N   UNL     1      -6.507  11.591  69.236  1.00  0.00    -0.092 NA 
HETATM   16  H   UNL     1      -5.708  11.437  68.619  1.00  0.00     0.000 HD 
BRANCH  15  17
HETATM   17  C   UNL     1      -6.914  10.465  69.938  1.00  0.00    -0.149 A  
HETATM   18  C   UNL     1      -6.086   9.767  70.799  1.00  0.00    -0.092 A  
HETATM   19  C   UNL     1      -6.570   8.664  71.506  1.00  0.00    -0.075 A  
HETATM   20  N   UNL     1      -8.186  10.066  69.744  1.00  0.00    -0.182 NA 
HETATM   21  C   UNL     1      -7.882   8.225  71.357  1.00  0.00    -0.106 A  
HETATM   22  C   UNL     1      -8.628   8.986  70.452  1.00  0.00    -0.193 A  
BRANCH  21  23
HETATM   23  N   UNL     1      -8.396   7.160  72.065  1.00  0.00    -0.107 NA 
HETATM   24  C   UNL     1      -8.820   7.297  73.470  1.00  0.00    -0.168 C  
HETATM   25  C   UNL     1     -10.354   7.121  73.590  1.00  0.00    -0.368 C  
HETATM   26  N   UNL     1     -10.859   5.869  72.991  1.00  0.00    -0.253 NA 
HETATM   27  C   UNL     1     -10.416   5.790  71.584  1.00  0.00    -0.231 C  
HETATM   28  H   UNL     1     -11.871   5.777  73.084  1.00  0.00     0.000 HD 
HETATM   29  C   UNL     1      -8.886   5.924  71.426  1.00  0.00    -0.136 C  
ENDBRANCH  21  23
ENDBRANCH  15  17
ENDBRANCH  11  15
BRANCH  12  30
HETATM   30  C   UNL     1     -10.129  14.557  66.696  1.00  0.00    -0.272 C  
HETATM   31  C   UNL     1     -12.328  14.256  65.755  1.00  0.00    -0.420 C  
HETATM   32  C   UNL     1     -10.100  15.136  65.267  1.00  0.00    -0.365 C  
HETATM   33  C   UNL     1     -11.534  15.055  64.731  1.00  0.00    -0.403 C  
HETATM   34  C   UNL     1     -11.618  14.520  67.074  1.00  0.00    -0.402 C  
ENDBRANCH  12  30
ENDBRANCH   4   6
TORSDOF 5
ENDMDL
MODEL       90
REMARK 921   NORMALIZED FREE ENERGY PREDICTED BY IDOCK:   -5.02 KCAL/MOL
REMARK 922        TOTAL FREE ENERGY PREDICTED BY IDOCK:   -7.38 KCAL/MOL
REMARK 923 INTER-LIGAND FREE ENERGY PREDICTED BY IDOCK:   -6.92 KCAL/MOL
REMARK 924 INTRA-LIGAND FREE ENERGY PREDICTED BY IDOCK:   -0.46 KCAL/MOL
REMARK 927      BINDING AFFINITY PREDICTED BY RF-SCORE:    0.00 PKD
ROOT
HETATM    1  C   UNL     1     -11.822  16.056  72.077  1.00  0.00    -0.533 C  
HETATM    2  N   UNL     1     -11.912  15.291  70.844  1.00  0.00    -0.310 N  
HETATM    3  C   UNL     1     -12.974  14.292  70.776  1.00  0.00    -0.304 C  
HETATM    4  C   UNL     1     -11.281  15.849  69.711  1.00  0.00    -0.339 C  
HETATM    5  O   UNL     1     -10.725  16.945  69.789  1.00  0.00    -0.291 OA 
ENDROOT
BRANCH   4   6
HETATM    6  C   UNL     1     -11.267  15.069  68.477  1.00  0.00    -0.287 A  
HETATM    7  C   UNL     1     -12.378  14.717  67.720  1.00  0.00     0.100 A  
HETATM    8  C   UNL     1     -11.961  14.008  66.588  1.00  0.00    -0.473 A  
HETATM    9  C   UNL     1     -12.579  13.476  65.469  1.00  0.00    -0.481 A  
HETATM   10  N   UNL     1     -11.860  12.745  64.599  1.00  0.00    -0.353 NA 
HETATM   11  C   UNL     1     -10.551  12.534  64.845  1.00  0.00    -0.301 A  
HETATM   12  N   UNL     1     -10.175  14.411  67.889  1.00  0.00    -0.230 NA 
HETATM   13  N   UNL     1      -9.857  13.068  65.871  1.00  0.00    -0.265 NA 
HETATM   14  C   UNL     1     -10.610  13.795  66.720  1.00  0.00    -0.273 A  
BRANCH  11  15
HETATM   15  N   UNL     1      -9.955  11.649  63.953  1.00  0.00    -0.306 NA 
HETATM   16  H   UNL     1      -9.977  11.953  62.979  1.00  0.00     0.000 HD 
BRANCH  15  17
HETATM   17  C   UNL     1      -9.335  10.424  64.158  1.00  0.00    -0.277 A  
HETATM   18  C   UNL     1      -9.421   9.718  65.344  1.00  0.00    -0.333 A  
HETATM   19  C   UNL     1      -8.806   8.471  65.471  1.00  0.00    -0.196 A  
HETATM   20  N   UNL     1      -8.626   9.932  63.123  1.00  0.00    -0.179 NA 
HETATM   21  C   UNL     1      -8.079   7.911  64.425  1.00  0.00    -0.103 A  
HETATM   22  C   UNL     1      -8.038   8.711  63.279  1.00  0.00    -0.169 A  
BRANCH  21  23
HETATM   23  N   UNL     1      -7.488   6.668  64.510  1.00  0.00    -0.087 NA 
HETATM   24  C   UNL     1      -8.140   5.462  63.969  1.00  0.00    -0.123 C  
HETATM   25  C   UNL     1      -7.335   4.907  62.767  1.00  0.00    -0.043 C  
HETATM   26  N   UNL     1      -5.910   4.666  63.064  1.00  0.00    -0.017 NA 
HETATM   27  C   UNL     1      -5.306   5.907  63.591  1.00  0.00    -0.017 C  
HETATM   28  H   UNL     1      -5.403   4.301  62.258  1.00  0.00     0.000 HD 
HETATM   29  C   UNL     1      -6.058   6.471  64.816  1.00  0.00    -0.037 C  
ENDBRANCH  21  23
ENDBRANCH  15  17
ENDBRANCH  11  15
BRANCH  12  30
HETATM   30  C   UNL     1      -8.821  14.308  68.426  1.00  0.00    -0.187 C  
HETATM   31  C   UNL     1      -6.761  13.067  68.590  1.00  0.00    -0.096 C  
HETATM   32  C   UNL     1      -7.731  15.133  67.714  1.00  0.00    -0.164 C  
HETATM   33  C   UNL     1      -6.461  14.275  67.714  1.00  0.00    -0.181 C  
HETATM   34  C   UNL     1      -8.266  12.876  68.468  1.00  0.00    -0.065 C  
ENDBRANCH  12  30
ENDBRANCH   4   6
TORSDOF 5
ENDMDL
MODEL       91
REMARK 921   NORMALIZED FREE ENERGY PREDICTED BY IDOCK:   -4.96 KCAL/MOL
REMARK 922        TOTAL FREE ENERGY PREDICTED BY IDOCK:   -7.30 KCAL/MOL
REMARK 923 INTER-LIGAND FREE ENERGY PREDICTED BY IDOCK:   -6.40 KCAL/MOL
REMARK 924 INTRA-LIGAND FREE ENERGY PREDICTED BY IDOCK:   -0.90 KCAL/MOL
REMARK 927      BINDING AFFINITY PREDICTED BY RF-SCORE:    0.00 PKD
ROOT
HETATM    1  C   UNL     1      -9.471   1.518  64.306  1.00  0.00    -0.131 C  
HETATM    2  N   UNL     1      -9.319   2.947  64.523  1.00  0.00    -0.142 N  
HETATM    3  C   UNL     1     -10.355   3.804  63.954  1.00  0.00    -0.245 C  
HETATM    4  C   UNL     1      -8.469   3.334  65.582  1.00  0.00    -0.106 C  
HETATM    5  O   UNL     1      -7.931   2.481  66.288  1.00  0.00    -0.079 OA 
ENDROOT
BRANCH   4   6
HETATM    6  C   UNL     1      -8.215   4.759  65.774  1.00  0.00    -0.112 A  
HETATM    7  C   UNL     1      -7.251   5.514  65.118  1.00  0.00    -0.067 A  
HETATM    8  C   UNL     1      -7.342   6.846  65.534  1.00  0.00    -0.079 A  
HETATM    9  C   UNL     1      -6.719   8.035  65.197  1.00  0.00    -0.051 A  
HETATM   10  N   UNL     1      -6.992   9.151  65.897  1.00  0.00    -0.087 NA 
HETATM   11  C   UNL     1      -7.861   9.081  66.926  1.00  0.00    -0.101 A  
HETATM   12  N   UNL     1      -8.781   5.611  66.737  1.00  0.00    -0.114 NA 
HETATM   13  N   UNL     1      -8.561   7.984  67.280  1.00  0.00    -0.124 NA 
HETATM   14  C   UNL     1      -8.261   6.887  66.556  1.00  0.00    -0.117 A  
BRANCH  11  15
HETATM   15  N   UNL     1      -7.950  10.261  67.657  1.00  0.00    -0.102 NA 
HETATM   16  H   UNL     1      -7.328  10.306  68.464  1.00  0.00     0.000 HD 
BRANCH  15  17
HETATM   17  C   UNL     1      -8.740  11.388  67.478  1.00  0.00    -0.140 A  
HETATM   18  C   UNL     1     -10.122  11.361  67.515  1.00  0.00    -0.205 A  
HETATM   19  C   UNL     1     -10.857  12.539  67.367  1.00  0.00    -0.272 A  
HETATM   20  N   UNL     1      -8.087  12.548  67.264  1.00  0.00    -0.179 NA 
HETATM   21  C   UNL     1     -10.230  13.765  67.164  1.00  0.00    -0.244 A  
HETATM   22  C   UNL     1      -8.835  13.681  67.126  1.00  0.00    -0.230 A  
BRANCH  21  23
HETATM   23  N   UNL     1     -10.927  14.949  67.048  1.00  0.00    -0.320 NA 
HETATM   24  C   UNL     1     -11.489  15.636  68.224  1.00  0.00    -0.350 C  
HETATM   25  C   UNL     1     -10.762  16.984  68.459  1.00  0.00    -0.352 C  
HETATM   26  N   UNL     1     -10.743  17.865  67.275  1.00  0.00    -0.321 NA 
HETATM   27  C   UNL     1     -10.162  17.131  66.132  1.00  0.00    -0.334 C  
HETATM   28  H   UNL     1     -10.261  18.745  67.455  1.00  0.00     0.000 HD 
HETATM   29  C   UNL     1     -10.884  15.798  65.842  1.00  0.00    -0.268 C  
ENDBRANCH  21  23
ENDBRANCH  15  17
ENDBRANCH  11  15
BRANCH  12  30
HETATM   30  C   UNL     1      -9.703   5.234  67.805  1.00  0.00    -0.140 C  
HETATM   31  C   UNL     1     -10.266   5.281  70.149  1.00  0.00    -0.350 C  
HETATM   32  C   UNL     1     -10.975   6.093  67.955  1.00  0.00    -0.399 C  
HETATM   33  C   UNL     1     -11.245   6.219  69.458  1.00  0.00    -0.500 C  
HETATM   34  C   UNL     1      -9.073   5.219  69.206  1.00  0.00    -0.138 C  
ENDBRANCH  12  30
ENDBRANCH   4   6
TORSDOF 5
ENDMDL
MODEL       92
REMARK 921   NORMALIZED FREE ENERGY PREDICTED BY IDOCK:   -4.94 KCAL/MOL
REMARK 922        TOTAL FREE ENERGY PREDICTED BY IDOCK:   -7.28 KCAL/MOL
REMARK 923 INTER-LIGAND FREE ENERGY PREDICTED BY IDOCK:   -6.46 KCAL/MOL
REMARK 924 INTRA-LIGAND FREE ENERGY PREDICTED BY IDOCK:   -0.82 KCAL/MOL
REMARK 927      BINDING AFFINITY PREDICTED BY RF-SCORE:    0.00 PKD
ROOT
HETATM    1  C   UNL     1      -8.862  19.650  67.050  1.00  0.00    -0.317 C  
HETATM    2  N   UNL     1      -9.658  18.499  67.439  1.00  0.00    -0.289 N  
HETATM    3  C   UNL     1     -10.685  18.070  66.493  1.00  0.00    -0.131 C  
HETATM    4  C   UNL     1      -9.110  17.665  68.439  1.00  0.00    -0.277 C  
HETATM    5  O   UNL     1      -7.999  17.909  68.909  1.00  0.00    -0.261 OA 
ENDROOT
BRANCH   4   6
HETATM    6  C   UNL     1      -9.919  16.551  68.924  1.00  0.00    -0.262 A  
HETATM    7  C   UNL     1     -10.930  16.627  69.874  1.00  0.00    -0.194 A  
HETATM    8  C   UNL     1     -11.503  15.361  70.044  1.00  0.00    -0.335 A  
HETATM    9  C   UNL     1     -12.558  14.841  70.774  1.00  0.00    -0.349 A  
HETATM   10  N   UNL     1     -12.771  13.513  70.777  1.00  0.00    -0.281 NA 
HETATM   11  C   UNL     1     -11.940  12.714  70.078  1.00  0.00    -0.306 A  
HETATM   12  N   UNL     1      -9.756  15.184  68.644  1.00  0.00    -0.208 NA 
HETATM   13  N   UNL     1     -10.932  13.141  69.290  1.00  0.00    -0.141 NA 
HETATM   14  C   UNL     1     -10.750  14.476  69.310  1.00  0.00    -0.226 A  
BRANCH  11  15
HETATM   15  N   UNL     1     -12.177  11.358  70.276  1.00  0.00    -0.348 NA 
HETATM   16  H   UNL     1     -13.149  11.125  70.480  1.00  0.00     0.000 HD 
BRANCH  15  17
HETATM   17  C   UNL     1     -11.321  10.267  70.244  1.00  0.00    -0.323 A  
HETATM   18  C   UNL     1     -10.328  10.107  69.294  1.00  0.00    -0.242 A  
HETATM   19  C   UNL     1      -9.474   9.004  69.341  1.00  0.00    -0.159 A  
HETATM   20  N   UNL     1     -11.497   9.339  71.206  1.00  0.00    -0.317 NA 
HETATM   21  C   UNL     1      -9.602   8.029  70.326  1.00  0.00    -0.171 A  
HETATM   22  C   UNL     1     -10.645   8.274  71.225  1.00  0.00    -0.219 A  
BRANCH  21  23
HETATM   23  N   UNL     1      -8.753   6.946  70.418  1.00  0.00    -0.146 NA 
HETATM   24  C   UNL     1      -8.300   6.426  71.720  1.00  0.00    -0.120 C  
HETATM   25  C   UNL     1      -8.880   5.010  71.967  1.00  0.00    -0.129 C  
HETATM   26  N   UNL     1      -8.605   4.055  70.875  1.00  0.00    -0.074 NA 
HETATM   27  C   UNL     1      -9.089   4.622  69.599  1.00  0.00    -0.109 C  
HETATM   28  H   UNL     1      -8.997   3.132  71.062  1.00  0.00     0.000 HD 
HETATM   29  C   UNL     1      -8.502   6.018  69.299  1.00  0.00    -0.115 C  
ENDBRANCH  21  23
ENDBRANCH  15  17
ENDBRANCH  11  15
BRANCH  12  30
HETATM   30  C   UNL     1      -8.690  14.574  67.854  1.00  0.00    -0.165 C  
HETATM   31  C   UNL     1      -7.087  12.793  67.589  1.00  0.00    -0.145 C  
HETATM   32  C   UNL     1      -9.126  13.742  66.631  1.00  0.00    -0.196 C  
HETATM   33  C   UNL     1      -8.174  12.543  66.554  1.00  0.00     0.203 C  
HETATM   34  C   UNL     1      -7.767  13.642  68.654  1.00  0.00    -0.107 C  
ENDBRANCH  12  30
ENDBRANCH   4   6
TORSDOF 5
ENDMDL
MODEL       93
REMARK 921   NORMALIZED FREE ENERGY PREDICTED BY IDOCK:   -4.91 KCAL/MOL
REMARK 922        TOTAL FREE ENERGY PREDICTED BY IDOCK:   -7.24 KCAL/MOL
REMARK 923 INTER-LIGAND FREE ENERGY PREDICTED BY IDOCK:   -7.21 KCAL/MOL
REMARK 924 INTRA-LIGAND FREE ENERGY PREDICTED BY IDOCK:   -0.03 KCAL/MOL
REMARK 927      BINDING AFFINITY PREDICTED BY RF-SCORE:    0.00 PKD
ROOT
HETATM    1  C   UNL     1     -10.493   4.590  74.549  1.00  0.00    -0.253 C  
HETATM    2  N   UNL     1     -10.084   5.071  73.240  1.00  0.00    -0.155 N  
HETATM    3  C   UNL     1      -8.667   4.941  72.914  1.00  0.00    -0.117 C  
HETATM    4  C   UNL     1     -11.106   5.209  72.276  1.00  0.00    -0.107 C  
HETATM    5  O   UNL     1     -12.264   4.894  72.550  1.00  0.00     0.314 OA 
ENDROOT
BRANCH   4   6
HETATM    6  C   UNL     1     -10.754   5.777  70.978  1.00  0.00    -0.258 A  
HETATM    7  C   UNL     1     -10.064   5.129  69.961  1.00  0.00    -0.345 A  
HETATM    8  C   UNL     1      -9.956   5.982  68.856  1.00  0.00    -0.192 A  
HETATM    9  C   UNL     1      -9.456   5.879  67.570  1.00  0.00    -0.110 A  
HETATM   10  N   UNL     1      -9.425   6.968  66.780  1.00  0.00    -0.157 NA 
HETATM   11  C   UNL     1      -9.871   8.143  67.268  1.00  0.00    -0.197 A  
HETATM   12  N   UNL     1     -10.911   7.106  70.550  1.00  0.00    -0.253 NA 
HETATM   13  N   UNL     1     -10.433   8.318  68.481  1.00  0.00    -0.193 NA 
HETATM   14  C   UNL     1     -10.448   7.206  69.243  1.00  0.00    -0.211 A  
BRANCH  11  15
HETATM   15  N   UNL     1      -9.655   9.216  66.411  1.00  0.00    -0.223 NA 
HETATM   16  H   UNL     1      -9.401   8.952  65.459  1.00  0.00     0.000 HD 
BRANCH  15  17
HETATM   17  C   UNL     1      -9.725  10.585  66.626  1.00  0.00    -0.189 A  
HETATM   18  C   UNL     1      -8.708  11.314  67.216  1.00  0.00    -0.145 A  
HETATM   19  C   UNL     1      -8.825  12.698  67.367  1.00  0.00    -0.189 A  
HETATM   20  N   UNL     1     -10.856  11.198  66.223  1.00  0.00    -0.242 NA 
HETATM   21  C   UNL     1      -9.964  13.379  66.949  1.00  0.00    -0.252 A  
HETATM   22  C   UNL     1     -10.938  12.550  66.384  1.00  0.00    -0.273 A  
BRANCH  21  23
HETATM   23  N   UNL     1     -10.095  14.748  67.056  1.00  0.00    -0.243 NA 
HETATM   24  C   UNL     1      -9.058  15.578  67.695  1.00  0.00    -0.182 C  
HETATM   25  C   UNL     1      -8.384  16.500  66.649  1.00  0.00    -0.262 C  
HETATM   26  N   UNL     1      -9.337  17.322  65.877  1.00  0.00    -0.524 NA 
HETATM   27  C   UNL     1     -10.344  16.441  65.250  1.00  0.00    -0.181 C  
HETATM   28  H   UNL     1      -8.869  17.920  65.197  1.00  0.00     0.000 HD 
HETATM   29  C   UNL     1     -11.066  15.531  66.268  1.00  0.00    -0.177 C  
ENDBRANCH  21  23
ENDBRANCH  15  17
ENDBRANCH  11  15
BRANCH  12  30
HETATM   30  C   UNL     1     -11.403   8.229  71.344  1.00  0.00    -0.262 C  
HETATM   31  C   UNL     1     -12.261  10.480  71.413  1.00  0.00    -0.429 C  
HETATM   32  C   UNL     1     -12.866   8.148  71.825  1.00  0.00    -0.355 C  
HETATM   33  C   UNL     1     -13.435   9.568  71.739  1.00  0.00    -0.480 C  
HETATM   34  C   UNL     1     -11.294   9.592  70.644  1.00  0.00    -0.364 C  
ENDBRANCH  12  30
ENDBRANCH   4   6
TORSDOF 5
ENDMDL
MODEL       94
REMARK 921   NORMALIZED FREE ENERGY PREDICTED BY IDOCK:   -4.88 KCAL/MOL
REMARK 922        TOTAL FREE ENERGY PREDICTED BY IDOCK:   -7.20 KCAL/MOL
REMARK 923 INTER-LIGAND FREE ENERGY PREDICTED BY IDOCK:   -6.57 KCAL/MOL
REMARK 924 INTRA-LIGAND FREE ENERGY PREDICTED BY IDOCK:   -0.63 KCAL/MOL
REMARK 927      BINDING AFFINITY PREDICTED BY RF-SCORE:    0.00 PKD
ROOT
HETATM    1  C   UNL     1     -11.520   5.115  73.006  1.00  0.00    -0.274 C  
HETATM    2  N   UNL     1     -10.579   5.873  72.199  1.00  0.00    -0.211 N  
HETATM    3  C   UNL     1     -10.232   5.304  70.899  1.00  0.00    -0.234 C  
HETATM    4  C   UNL     1     -10.427   7.237  72.528  1.00  0.00    -0.237 C  
HETATM    5  O   UNL     1     -11.098   7.736  73.432  1.00  0.00    -0.316 OA 
ENDROOT
BRANCH   4   6
HETATM    6  C   UNL     1      -9.423   8.012  71.804  1.00  0.00    -0.169 A  
HETATM    7  C   UNL     1      -8.067   8.076  72.102  1.00  0.00    -0.172 A  
HETATM    8  C   UNL     1      -7.422   8.883  71.158  1.00  0.00    -0.125 A  
HETATM    9  C   UNL     1      -6.114   9.253  70.899  1.00  0.00    -0.064 A  
HETATM   10  N   UNL     1      -5.858  10.157  69.937  1.00  0.00    -0.044 NA 
HETATM   11  C   UNL     1      -6.887  10.696  69.254  1.00  0.00    -0.086 A  
HETATM   12  N   UNL     1      -9.634   8.938  70.769  1.00  0.00    -0.209 NA 
HETATM   13  N   UNL     1      -8.182  10.345  69.394  1.00  0.00    -0.163 NA 
HETATM   14  C   UNL     1      -8.400   9.437  70.366  1.00  0.00    -0.205 A  
BRANCH  11  15
HETATM   15  N   UNL     1      -6.506  11.717  68.390  1.00  0.00    -0.051 NA 
HETATM   16  H   UNL     1      -5.807  11.445  67.698  1.00  0.00     0.000 HD 
BRANCH  15  17
HETATM   17  C   UNL     1      -6.911  13.041  68.306  1.00  0.00    -0.101 A  
HETATM   18  C   UNL     1      -6.355  14.055  69.064  1.00  0.00    -0.097 A  
HETATM   19  C   UNL     1      -6.781  15.375  68.903  1.00  0.00    -0.113 A  
HETATM   20  N   UNL     1      -7.897  13.311  67.428  1.00  0.00    -0.167 NA 
HETATM   21  C   UNL     1      -7.781  15.709  67.995  1.00  0.00    -0.126 A  
HETATM   22  C   UNL     1      -8.289  14.611  67.293  1.00  0.00    -0.213 A  
BRANCH  21  23
HETATM   23  N   UNL     1      -8.200  17.006  67.790  1.00  0.00    -0.189 NA 
HETATM   24  C   UNL     1      -8.313  17.579  66.437  1.00  0.00    -0.262 C  
HETATM   25  C   UNL     1      -9.796  17.866  66.095  1.00  0.00    -0.249 C  
HETATM   26  N   UNL     1     -10.489  18.700  67.097  1.00  0.00    -0.399 NA 
HETATM   27  C   UNL     1     -10.354  18.074  68.429  1.00  0.00    -0.368 C  
HETATM   28  H   UNL     1     -11.462  18.874  66.849  1.00  0.00     0.000 HD 
HETATM   29  C   UNL     1      -8.884  17.807  68.822  1.00  0.00    -0.202 C  
ENDBRANCH  21  23
ENDBRANCH  15  17
ENDBRANCH  11  15
BRANCH  12  30
HETATM   30  C   UNL     1     -10.920   9.379  70.238  1.00  0.00    -0.262 C  
HETATM   31  C   UNL     1     -12.679  11.028  70.212  1.00  0.00    -0.256 C  
HETATM   32  C   UNL     1     -10.902  10.048  68.849  1.00  0.00    -0.250 C  
HETATM   33  C   UNL     1     -11.937  11.178  68.893  1.00  0.00    -0.367 C  
HETATM   34  C   UNL     1     -11.669  10.371  71.142  1.00  0.00    -0.387 C  
ENDBRANCH  12  30
ENDBRANCH   4   6
TORSDOF 5
ENDMDL
MODEL       95
REMARK 921   NORMALIZED FREE ENERGY PREDICTED BY IDOCK:   -4.88 KCAL/MOL
REMARK 922        TOTAL FREE ENERGY PREDICTED BY IDOCK:   -7.19 KCAL/MOL
REMARK 923 INTER-LIGAND FREE ENERGY PREDICTED BY IDOCK:   -6.60 KCAL/MOL
REMARK 924 INTRA-LIGAND FREE ENERGY PREDICTED BY IDOCK:   -0.59 KCAL/MOL
REMARK 927      BINDING AFFINITY PREDICTED BY RF-SCORE:    0.00 PKD
ROOT
HETATM    1  C   UNL     1      -6.812   4.709  64.023  1.00  0.00    -0.044 C  
HETATM    2  N   UNL     1      -7.659   5.876  64.205  1.00  0.00    -0.078 N  
HETATM    3  C   UNL     1      -8.898   5.670  64.948  1.00  0.00     0.031 C  
HETATM    4  C   UNL     1      -7.038   7.133  64.041  1.00  0.00    -0.064 C  
HETATM    5  O   UNL     1      -5.834   7.203  63.794  1.00  0.00    -0.036 OA 
ENDROOT
BRANCH   4   6
HETATM    6  C   UNL     1      -7.873   8.328  64.122  1.00  0.00    -0.145 A  
HETATM    7  C   UNL     1      -8.427   9.013  63.048  1.00  0.00    -0.190 A  
HETATM    8  C   UNL     1      -9.199  10.078  63.525  1.00  0.00    -0.315 A  
HETATM    9  C   UNL     1     -10.020  11.039  62.959  1.00  0.00    -0.295 A  
HETATM   10  N   UNL     1     -10.543  12.005  63.735  1.00  0.00    -0.386 NA 
HETATM   11  C   UNL     1     -10.243  12.024  65.049  1.00  0.00    -0.276 A  
HETATM   12  N   UNL     1      -8.167   9.096  65.261  1.00  0.00    -0.126 NA 
HETATM   13  N   UNL     1      -9.509  11.093  65.693  1.00  0.00    -0.216 NA 
HETATM   14  C   UNL     1      -9.003  10.141  64.884  1.00  0.00    -0.197 A  
BRANCH  11  15
HETATM   15  N   UNL     1     -10.725  13.147  65.712  1.00  0.00    -0.276 NA 
HETATM   16  H   UNL     1     -11.732  13.138  65.881  1.00  0.00     0.000 HD 
BRANCH  15  17
HETATM   17  C   UNL     1     -10.076  14.279  66.184  1.00  0.00    -0.313 A  
HETATM   18  C   UNL     1      -9.046  14.235  67.106  1.00  0.00    -0.237 A  
HETATM   19  C   UNL     1      -8.408  15.409  67.511  1.00  0.00    -0.190 A  
HETATM   20  N   UNL     1     -10.499  15.460  65.693  1.00  0.00    -0.344 NA 
HETATM   21  C   UNL     1      -8.794  16.652  67.017  1.00  0.00    -0.199 A  
HETATM   22  C   UNL     1      -9.853  16.589  66.107  1.00  0.00    -0.332 A  
BRANCH  21  23
HETATM   23  N   UNL     1      -8.161  17.825  67.373  1.00  0.00    -0.212 NA 
HETATM   24  C   UNL     1      -7.165  18.464  66.496  1.00  0.00    -0.229 C  
HETATM   25  C   UNL     1      -7.700  19.819  65.968  1.00  0.00    -0.332 C  
HETATM   26  N   UNL     1      -8.153  20.735  67.033  1.00  0.00    -0.566 NA 
HETATM   27  C   UNL     1      -9.156  20.049  67.872  1.00  0.00    -0.284 C  
HETATM   28  H   UNL     1      -8.499  21.619  66.661  1.00  0.00     0.000 HD 
HETATM   29  C   UNL     1      -8.645  18.710  68.449  1.00  0.00    -0.337 C  
ENDBRANCH  21  23
ENDBRANCH  15  17
ENDBRANCH  11  15
BRANCH  12  30
HETATM   30  C   UNL     1      -7.640   8.899  66.608  1.00  0.00    -0.089 C  
HETATM   31  C   UNL     1      -7.304   7.434  68.493  1.00  0.00    -0.100 C  
HETATM   32  C   UNL     1      -6.124   8.645  66.728  1.00  0.00    -0.058 C  
HETATM   33  C   UNL     1      -5.938   7.613  67.846  1.00  0.00    -0.040 C  
HETATM   34  C   UNL     1      -8.294   7.742  67.379  1.00  0.00    -0.123 C  
ENDBRANCH  12  30
ENDBRANCH   4   6
TORSDOF 5
ENDMDL
MODEL       96
REMARK 921   NORMALIZED FREE ENERGY PREDICTED BY IDOCK:   -4.85 KCAL/MOL
REMARK 922        TOTAL FREE ENERGY PREDICTED BY IDOCK:   -7.16 KCAL/MOL
REMARK 923 INTER-LIGAND FREE ENERGY PREDICTED BY IDOCK:   -6.22 KCAL/MOL
REMARK 924 INTRA-LIGAND FREE ENERGY PREDICTED BY IDOCK:   -0.94 KCAL/MOL
REMARK 927      BINDING AFFINITY PREDICTED BY RF-SCORE:    0.00 PKD
ROOT
HETATM    1  C   UNL     1      -7.425  20.495  66.893  1.00  0.00    -0.285 C  
HETATM    2  N   UNL     1      -7.295  19.184  67.506  1.00  0.00    -0.225 N  
HETATM    3  C   UNL     1      -7.570  19.106  68.938  1.00  0.00    -0.336 C  
HETATM    4  C   UNL     1      -7.342  18.075  66.633  1.00  0.00    -0.221 C  
HETATM    5  O   UNL     1      -7.522  18.244  65.427  1.00  0.00    -0.502 OA 
ENDROOT
BRANCH   4   6
HETATM    6  C   UNL     1      -7.121  16.747  67.196  1.00  0.00    -0.187 A  
HETATM    7  C   UNL     1      -5.892  16.118  67.352  1.00  0.00    -0.166 A  
HETATM    8  C   UNL     1      -6.080  14.875  67.967  1.00  0.00    -0.163 A  
HETATM    9  C   UNL     1      -5.258  13.863  68.429  1.00  0.00    -0.102 A  
HETATM   10  N   UNL     1      -5.803  12.723  68.890  1.00  0.00    -0.068 NA 
HETATM   11  C   UNL     1      -7.144  12.587  68.879  1.00  0.00    -0.073 A  
HETATM   12  N   UNL     1      -8.088  15.795  67.558  1.00  0.00    -0.149 NA 
HETATM   13  N   UNL     1      -8.019  13.545  68.511  1.00  0.00    -0.139 NA 
HETATM   14  C   UNL     1      -7.437  14.672  68.056  1.00  0.00    -0.131 A  
BRANCH  11  15
HETATM   15  N   UNL     1      -7.576  11.317  69.245  1.00  0.00    -0.322 NA 
HETATM   16  H   UNL     1      -7.589  11.149  70.252  1.00  0.00     0.000 HD 
BRANCH  15  17
HETATM   17  C   UNL     1      -7.992  10.237  68.480  1.00  0.00    -0.107 A  
HETATM   18  C   UNL     1      -7.293   9.771  67.381  1.00  0.00    -0.090 A  
HETATM   19  C   UNL     1      -7.746   8.654  66.676  1.00  0.00    -0.096 A  
HETATM   20  N   UNL     1      -9.138   9.640  68.860  1.00  0.00    -0.139 NA 
HETATM   21  C   UNL     1      -8.913   7.989  67.042  1.00  0.00    -0.138 A  
HETATM   22  C   UNL     1      -9.552   8.550  68.151  1.00  0.00    -0.143 A  
BRANCH  21  23
HETATM   23  N   UNL     1      -9.367   6.865  66.385  1.00  0.00    -0.164 NA 
HETATM   24  C   UNL     1      -8.532   6.151  65.403  1.00  0.00    -0.138 C  
HETATM   25  C   UNL     1      -8.158   4.744  65.935  1.00  0.00    -0.107 C  
HETATM   26  N   UNL     1      -9.321   3.935  66.348  1.00  0.00    -0.171 NA 
HETATM   27  C   UNL     1     -10.114   4.692  67.338  1.00  0.00    -0.097 C  
HETATM   28  H   UNL     1      -9.049   3.014  66.693  1.00  0.00     0.000 HD 
HETATM   29  C   UNL     1     -10.539   6.087  66.830  1.00  0.00    -0.315 C  
ENDBRANCH  21  23
ENDBRANCH  15  17
ENDBRANCH  11  15
BRANCH  12  30
HETATM   30  C   UNL     1      -9.534  15.907  67.384  1.00  0.00    -0.219 C  
HETATM   31  C   UNL     1     -11.647  14.820  66.977  1.00  0.00    -0.352 C  
HETATM   32  C   UNL     1     -10.376  16.044  68.669  1.00  0.00    -0.241 C  
HETATM   33  C   UNL     1     -11.661  15.240  68.439  1.00  0.00    -0.365 C  
HETATM   34  C   UNL     1     -10.170  14.734  66.621  1.00  0.00    -0.271 C  
ENDBRANCH  12  30
ENDBRANCH   4   6
TORSDOF 5
ENDMDL
MODEL       97
REMARK 921   NORMALIZED FREE ENERGY PREDICTED BY IDOCK:   -4.78 KCAL/MOL
REMARK 922        TOTAL FREE ENERGY PREDICTED BY IDOCK:   -7.07 KCAL/MOL
REMARK 923 INTER-LIGAND FREE ENERGY PREDICTED BY IDOCK:   -6.23 KCAL/MOL
REMARK 924 INTRA-LIGAND FREE ENERGY PREDICTED BY IDOCK:   -0.83 KCAL/MOL
REMARK 927      BINDING AFFINITY PREDICTED BY RF-SCORE:    0.00 PKD
ROOT
HETATM    1  C   UNL     1      -6.531   4.037  68.679  1.00  0.00    -0.037 C  
HETATM    2  N   UNL     1      -6.745   5.168  67.792  1.00  0.00    -0.054 N  
HETATM    3  C   UNL     1      -5.606   6.058  67.588  1.00  0.00    -0.009 C  
HETATM    4  C   UNL     1      -7.838   5.071  66.904  1.00  0.00    -0.096 C  
HETATM    5  O   UNL     1      -8.531   4.054  66.881  1.00  0.00    -0.100 OA 
ENDROOT
BRANCH   4   6
HETATM    6  C   UNL     1      -8.144   6.224  66.061  1.00  0.00    -0.119 A  
HETATM    7  C   UNL     1      -7.476   6.588  64.899  1.00  0.00    -0.086 A  
HETATM    8  C   UNL     1      -8.085   7.722  64.349  1.00  0.00    -0.091 A  
HETATM    9  C   UNL     1      -7.919   8.478  63.202  1.00  0.00    -0.164 A  
HETATM   10  N   UNL     1      -8.640   9.602  63.037  1.00  0.00    -0.190 NA 
HETATM   11  C   UNL     1      -9.502   9.974  64.004  1.00  0.00    -0.237 A  
HETATM   12  N   UNL     1      -9.060   7.257  66.318  1.00  0.00    -0.164 NA 
HETATM   13  N   UNL     1      -9.775   9.264  65.118  1.00  0.00    -0.066 NA 
HETATM   14  C   UNL     1      -9.034   8.145  65.249  1.00  0.00     0.092 A  
BRANCH  11  15
HETATM   15  N   UNL     1     -10.079  11.220  63.783  1.00  0.00    -0.323 NA 
HETATM   16  H   UNL     1     -10.275  11.426  62.803  1.00  0.00     0.000 HD 
BRANCH  15  17
HETATM   17  C   UNL     1     -10.435  12.231  64.664  1.00  0.00    -0.303 A  
HETATM   18  C   UNL     1     -11.695  12.800  64.699  1.00  0.00    -0.405 A  
HETATM   19  C   UNL     1     -12.000  13.788  65.637  1.00  0.00    -0.410 A  
HETATM   20  N   UNL     1      -9.475  12.650  65.513  1.00  0.00    -0.011 NA 
HETATM   21  C   UNL     1     -11.050  14.241  66.548  1.00  0.00    -0.323 A  
HETATM   22  C   UNL     1      -9.806  13.616  66.418  1.00  0.00    -0.296 A  
BRANCH  21  23
HETATM   23  N   UNL     1     -11.331  15.191  67.507  1.00  0.00    -0.333 NA 
HETATM   24  C   UNL     1     -12.260  14.919  68.619  1.00  0.00    -0.066 C  
HETATM   25  C   UNL     1     -11.497  14.902  69.967  1.00  0.00    -0.278 C  
HETATM   26  N   UNL     1     -10.697  16.118  70.214  1.00  0.00    -0.280 NA 
HETATM   27  C   UNL     1      -9.778  16.335  69.078  1.00  0.00    -0.252 C  
HETATM   28  H   UNL     1     -10.205  16.082  71.107  1.00  0.00     0.000 HD 
HETATM   29  C   UNL     1     -10.507  16.396  67.717  1.00  0.00    -0.300 C  
ENDBRANCH  21  23
ENDBRANCH  15  17
ENDBRANCH  11  15
BRANCH  12  30
HETATM   30  C   UNL     1      -9.862   7.436  67.525  1.00  0.00    -0.158 C  
HETATM   31  C   UNL     1     -11.216   6.452  69.261  1.00  0.00    -0.440 C  
HETATM   32  C   UNL     1      -9.090   7.589  68.852  1.00  0.00    -0.140 C  
HETATM   33  C   UNL     1      -9.902   6.847  69.919  1.00  0.00    -0.172 C  
HETATM   34  C   UNL     1     -10.871   6.307  67.786  1.00  0.00    -0.424 C  
ENDBRANCH  12  30
ENDBRANCH   4   6
TORSDOF 5
ENDMDL
MODEL       98
REMARK 921   NORMALIZED FREE ENERGY PREDICTED BY IDOCK:   -4.72 KCAL/MOL
REMARK 922        TOTAL FREE ENERGY PREDICTED BY IDOCK:   -6.99 KCAL/MOL
REMARK 923 INTER-LIGAND FREE ENERGY PREDICTED BY IDOCK:   -6.45 KCAL/MOL
REMARK 924 INTRA-LIGAND FREE ENERGY PREDICTED BY IDOCK:   -0.54 KCAL/MOL
REMARK 927      BINDING AFFINITY PREDICTED BY RF-SCORE:    0.00 PKD
ROOT
HETATM    1  C   UNL     1     -12.075  15.214  64.337  1.00  0.00    -0.300 C  
HETATM    2  N   UNL     1     -11.174  14.139  64.718  1.00  0.00    -0.364 N  
HETATM    3  C   UNL     1      -9.803  14.525  65.040  1.00  0.00    -0.021 C  
HETATM    4  C   UNL     1     -11.777  12.938  65.149  1.00  0.00    -0.349 C  
HETATM    5  O   UNL     1     -13.002  12.851  65.222  1.00  0.00    -0.703 OA 
ENDROOT
BRANCH   4   6
HETATM    6  C   UNL     1     -10.909  11.803  65.450  1.00  0.00    -0.295 A  
HETATM    7  C   UNL     1     -10.630  10.738  64.602  1.00  0.00    -0.269 A  
HETATM    8  C   UNL     1      -9.725   9.873  65.226  1.00  0.00    -0.383 A  
HETATM    9  C   UNL     1      -9.046   8.721  64.867  1.00  0.00     0.079 A  
HETATM   10  N   UNL     1      -8.307   8.072  65.785  1.00  0.00    -0.131 NA 
HETATM   11  C   UNL     1      -8.256   8.553  67.043  1.00  0.00    -0.107 A  
HETATM   12  N   UNL     1     -10.304  11.486  66.677  1.00  0.00    -0.219 NA 
HETATM   13  N   UNL     1      -8.829   9.700  67.461  1.00  0.00    -0.125 NA 
HETATM   14  C   UNL     1      -9.559  10.323  66.515  1.00  0.00    -0.181 A  
BRANCH  11  15
HETATM   15  N   UNL     1      -7.580   7.720  67.928  1.00  0.00    -0.114 NA 
HETATM   16  H   UNL     1      -6.653   7.433  67.612  1.00  0.00     0.000 HD 
BRANCH  15  17
HETATM   17  C   UNL     1      -7.946   7.212  69.166  1.00  0.00    -0.119 A  
HETATM   18  C   UNL     1      -7.139   7.285  70.286  1.00  0.00    -0.065 A  
HETATM   19  C   UNL     1      -7.584   6.788  71.513  1.00  0.00    -0.088 A  
HETATM   20  N   UNL     1      -9.159   6.629  69.238  1.00  0.00    -0.138 NA 
HETATM   21  C   UNL     1      -8.837   6.195  71.644  1.00  0.00    -0.138 A  
HETATM   22  C   UNL     1      -9.565   6.155  70.452  1.00  0.00    -0.164 A  
BRANCH  21  23
HETATM   23  N   UNL     1      -9.317   5.726  72.848  1.00  0.00    -0.144 NA 
HETATM   24  C   UNL     1     -10.638   5.081  72.957  1.00  0.00    -0.225 C  
HETATM   25  C   UNL     1     -10.478   3.583  73.319  1.00  0.00    -0.177 C  
HETATM   26  N   UNL     1      -9.658   3.345  74.523  1.00  0.00    -0.100 NA 
HETATM   27  C   UNL     1      -8.345   4.001  74.354  1.00  0.00    -0.090 C  
HETATM   28  H   UNL     1      -9.569   2.352  74.740  1.00  0.00     0.000 HD 
HETATM   29  C   UNL     1      -8.461   5.506  74.030  1.00  0.00    -0.115 C  
ENDBRANCH  21  23
ENDBRANCH  15  17
ENDBRANCH  11  15
BRANCH  12  30
HETATM   30  C   UNL     1     -10.469  12.194  67.944  1.00  0.00    -0.208 C  
HETATM   31  C   UNL     1     -10.618  14.291  69.124  1.00  0.00    -0.201 C  
HETATM   32  C   UNL     1     -11.908  12.315  68.485  1.00  0.00    -0.359 C  
HETATM   33  C   UNL     1     -12.022  13.706  69.120  1.00  0.00    -0.394 C  
HETATM   34  C   UNL     1      -9.930  13.633  67.937  1.00  0.00    -0.244 C  
ENDBRANCH  12  30
ENDBRANCH   4   6
TORSDOF 5
ENDMDL
MODEL       99
REMARK 921   NORMALIZED FREE ENERGY PREDICTED BY IDOCK:   -4.71 KCAL/MOL
REMARK 922        TOTAL FREE ENERGY PREDICTED BY IDOCK:   -6.98 KCAL/MOL
REMARK 923 INTER-LIGAND FREE ENERGY PREDICTED BY IDOCK:   -7.02 KCAL/MOL
REMARK 924 INTRA-LIGAND FREE ENERGY PREDICTED BY IDOCK:    0.04 KCAL/MOL
REMARK 927      BINDING AFFINITY PREDICTED BY RF-SCORE:    0.00 PKD
ROOT
HETATM    1  C   UNL     1     -13.529  15.539  73.020  1.00  0.00    -0.536 C  
HETATM    2  N   UNL     1     -12.749  15.326  71.813  1.00  0.00    -0.341 N  
HETATM    3  C   UNL     1     -11.652  16.259  71.576  1.00  0.00    -0.367 C  
HETATM    4  C   UNL     1     -12.833  14.043  71.230  1.00  0.00    -0.358 C  
HETATM    5  O   UNL     1     -13.509  13.163  71.763  1.00  0.00    -0.396 OA 
ENDROOT
BRANCH   4   6
HETATM    6  C   UNL     1     -12.139  13.815  69.966  1.00  0.00    -0.349 A  
HETATM    7  C   UNL     1     -12.164  14.652  68.857  1.00  0.00    -0.174 A  
HETATM    8  C   UNL     1     -11.344  14.121  67.856  1.00  0.00    -0.318 A  
HETATM    9  C   UNL     1     -10.928  14.522  66.598  1.00  0.00    -0.321 A  
HETATM   10  N   UNL     1     -10.193  13.686  65.843  1.00  0.00    -0.304 NA 
HETATM   11  C   UNL     1      -9.889  12.464  66.326  1.00  0.00    -0.247 A  
HETATM   12  N   UNL     1     -11.436  12.667  69.566  1.00  0.00    -0.254 NA 
HETATM   13  N   UNL     1     -10.195  12.018  67.561  1.00  0.00    -0.196 NA 
HETATM   14  C   UNL     1     -10.930  12.883  68.288  1.00  0.00    -0.256 A  
BRANCH  11  15
HETATM   15  N   UNL     1      -9.252  11.646  65.401  1.00  0.00    -0.397 NA 
HETATM   16  H   UNL     1      -9.149  12.058  64.473  1.00  0.00     0.000 HD 
BRANCH  15  17
HETATM   17  C   UNL     1      -8.731  10.365  65.519  1.00  0.00    -0.177 A  
HETATM   18  C   UNL     1      -9.476   9.278  65.939  1.00  0.00    -0.325 A  
HETATM   19  C   UNL     1      -8.901   8.007  65.999  1.00  0.00    -0.196 A  
HETATM   20  N   UNL     1      -7.431  10.215  65.198  1.00  0.00    -0.139 NA 
HETATM   21  C   UNL     1      -7.569   7.796  65.659  1.00  0.00    -0.085 A  
HETATM   22  C   UNL     1      -6.900   8.960  65.266  1.00  0.00    -0.072 A  
BRANCH  21  23
HETATM   23  N   UNL     1      -6.983   6.548  65.677  1.00  0.00    -0.055 NA 
HETATM   24  C   UNL     1      -6.611   5.886  66.940  1.00  0.00    -0.056 C  
HETATM   25  C   UNL     1      -7.486   4.627  67.166  1.00  0.00    -0.085 C  
HETATM   26  N   UNL     1      -7.473   3.681  66.033  1.00  0.00    -0.076 NA 
HETATM   27  C   UNL     1      -7.863   4.394  64.800  1.00  0.00    -0.089 C  
HETATM   28  H   UNL     1      -8.055   2.861  66.207  1.00  0.00     0.000 HD 
HETATM   29  C   UNL     1      -6.988   5.635  64.519  1.00  0.00    -0.052 C  
ENDBRANCH  21  23
ENDBRANCH  15  17
ENDBRANCH  11  15
BRANCH  12  30
HETATM   30  C   UNL     1     -11.303  11.418  70.310  1.00  0.00    -0.025 C  
HETATM   31  C   UNL     1     -12.026   9.145  70.660  1.00  0.00    -0.171 C  
HETATM   32  C   UNL     1     -10.132  10.497  69.912  1.00  0.00    -0.048 C  
HETATM   33  C   UNL     1     -10.650   9.058  70.017  1.00  0.00    -0.246 C  
HETATM   34  C   UNL     1     -12.547  10.517  70.257  1.00  0.00    -0.306 C  
ENDBRANCH  12  30
ENDBRANCH   4   6
TORSDOF 5
ENDMDL
MODEL      100
REMARK 921   NORMALIZED FREE ENERGY PREDICTED BY IDOCK:   -4.68 KCAL/MOL
REMARK 922        TOTAL FREE ENERGY PREDICTED BY IDOCK:   -6.94 KCAL/MOL
REMARK 923 INTER-LIGAND FREE ENERGY PREDICTED BY IDOCK:   -6.22 KCAL/MOL
REMARK 924 INTRA-LIGAND FREE ENERGY PREDICTED BY IDOCK:   -0.71 KCAL/MOL
REMARK 927      BINDING AFFINITY PREDICTED BY RF-SCORE:    0.00 PKD
ROOT
HETATM    1  C   UNL     1      -6.975   4.536  65.215  1.00  0.00    -0.062 C  
HETATM    2  N   UNL     1      -7.926   5.546  65.647  1.00  0.00    -0.105 N  
HETATM    3  C   UNL     1      -9.337   5.251  65.416  1.00  0.00    -0.035 C  
HETATM    4  C   UNL     1      -7.461   6.479  66.599  1.00  0.00    -0.079 C  
HETATM    5  O   UNL     1      -6.318   6.390  67.048  1.00  0.00    -0.038 OA 
ENDROOT
BRANCH   4   6
HETATM    6  C   UNL     1      -8.354   7.567  66.989  1.00  0.00    -0.121 A  
HETATM    7  C   UNL     1      -9.195   7.577  68.095  1.00  0.00    -0.137 A  
HETATM    8  C   UNL     1      -9.860   8.807  68.161  1.00  0.00    -0.194 A  
HETATM    9  C   UNL     1     -10.738   9.413  69.042  1.00  0.00    -0.187 A  
HETATM   10  N   UNL     1     -11.275  10.606  68.729  1.00  0.00    -0.262 NA 
HETATM   11  C   UNL     1     -10.954  11.180  67.552  1.00  0.00    -0.275 A  
HETATM   12  N   UNL     1      -8.646   8.738  66.272  1.00  0.00    -0.125 NA 
HETATM   13  N   UNL     1     -10.059  10.694  66.668  1.00  0.00    -0.212 NA 
HETATM   14  C   UNL     1      -9.542   9.498  67.016  1.00  0.00    -0.164 A  
BRANCH  11  15
HETATM   15  N   UNL     1     -11.680  12.335  67.282  1.00  0.00    -0.488 NA 
HETATM   16  H   UNL     1     -12.688  12.194  67.216  1.00  0.00     0.000 HD 
BRANCH  15  17
HETATM   17  C   UNL     1     -11.270  13.647  67.088  1.00  0.00    -0.309 A  
HETATM   18  C   UNL     1     -11.267  14.266  65.852  1.00  0.00    -0.319 A  
HETATM   19  C   UNL     1     -10.880  15.602  65.730  1.00  0.00    -0.312 A  
HETATM   20  N   UNL     1     -10.865  14.316  68.185  1.00  0.00    -0.239 NA 
HETATM   21  C   UNL     1     -10.472  16.343  66.836  1.00  0.00    -0.289 A  
HETATM   22  C   UNL     1     -10.494  15.621  68.033  1.00  0.00    -0.263 A  
BRANCH  21  23
HETATM   23  N   UNL     1     -10.116  17.672  66.753  1.00  0.00    -0.320 NA 
HETATM   24  C   UNL     1     -10.911  18.729  67.403  1.00  0.00    -0.348 C  
HETATM   25  C   UNL     1     -10.101  19.384  68.551  1.00  0.00    -0.437 C  
HETATM   26  N   UNL     1      -8.774  19.880  68.137  1.00  0.00    -0.282 NA 
HETATM   27  C   UNL     1      -8.019  18.780  67.503  1.00  0.00    -0.244 C  
HETATM   28  H   UNL     1      -8.262  20.306  68.909  1.00  0.00     0.000 HD 
HETATM   29  C   UNL     1      -8.778  18.126  66.328  1.00  0.00    -0.172 C  
ENDBRANCH  21  23
ENDBRANCH  15  17
ENDBRANCH  11  15
BRANCH  12  30
HETATM   30  C   UNL     1      -8.166   9.091  64.939  1.00  0.00    -0.153 C  
HETATM   31  C   UNL     1      -8.403  10.444  62.958  1.00  0.00    -0.174 C  
HETATM   32  C   UNL     1      -6.940  10.024  64.870  1.00  0.00    -0.136 C  
HETATM   33  C   UNL     1      -7.169  10.963  63.681  1.00  0.00     0.523 C  
HETATM   34  C   UNL     1      -9.220   9.762  64.046  1.00  0.00    -0.267 C  
ENDBRANCH  12  30
ENDBRANCH   4   6
TORSDOF 5
ENDMDL
MODEL      101
REMARK 921   NORMALIZED FREE ENERGY PREDICTED BY IDOCK:   -4.67 KCAL/MOL
REMARK 922        TOTAL FREE ENERGY PREDICTED BY IDOCK:   -6.93 KCAL/MOL
REMARK 923 INTER-LIGAND FREE ENERGY PREDICTED BY IDOCK:   -6.61 KCAL/MOL
REMARK 924 INTRA-LIGAND FREE ENERGY PREDICTED BY IDOCK:   -0.32 KCAL/MOL
REMARK 927      BINDING AFFINITY PREDICTED BY RF-SCORE:    0.00 PKD
ROOT
HETATM    1  C   UNL     1      -9.761   3.738  72.727  1.00  0.00    -0.139 C  
HETATM    2  N   UNL     1      -9.260   5.091  72.545  1.00  0.00    -0.132 N  
HETATM    3  C   UNL     1      -9.744   6.094  73.489  1.00  0.00    -0.164 C  
HETATM    4  C   UNL     1      -8.074   5.224  71.791  1.00  0.00    -0.117 C  
HETATM    5  O   UNL     1      -7.500   4.226  71.356  1.00  0.00    -0.056 OA 
ENDROOT
BRANCH   4   6
HETATM    6  C   UNL     1      -7.589   6.572  71.506  1.00  0.00    -0.094 A  
HETATM    7  C   UNL     1      -6.647   7.275  72.246  1.00  0.00    -0.051 A  
HETATM    8  C   UNL     1      -6.408   8.513  71.638  1.00  0.00    -0.064 A  
HETATM    9  C   UNL     1      -5.556   9.580  71.862  1.00  0.00    -0.044 A  
HETATM   10  N   UNL     1      -5.671  10.691  71.113  1.00  0.00    -0.299 NA 
HETATM   11  C   UNL     1      -6.628  10.745  70.165  1.00  0.00    -0.143 A  
HETATM   12  N   UNL     1      -8.061   7.468  70.533  1.00  0.00    -0.105 NA 
HETATM   13  N   UNL     1      -7.455   9.731  69.836  1.00  0.00    -0.122 NA 
HETATM   14  C   UNL     1      -7.310   8.635  70.607  1.00  0.00    -0.064 A  
BRANCH  11  15
HETATM   15  N   UNL     1      -6.739  11.992  69.559  1.00  0.00    -0.283 NA 
HETATM   16  H   UNL     1      -6.038  12.670  69.859  1.00  0.00     0.000 HD 
BRANCH  15  17
HETATM   17  C   UNL     1      -7.636  12.473  68.617  1.00  0.00    -0.080 A  
HETATM   18  C   UNL     1      -7.638  13.782  68.169  1.00  0.00    -0.128 A  
HETATM   19  C   UNL     1      -8.544  14.193  67.189  1.00  0.00    -0.230 A  
HETATM   20  N   UNL     1      -8.533  11.588  68.137  1.00  0.00    -0.147 NA 
HETATM   21  C   UNL     1      -9.476  13.313  66.647  1.00  0.00    -0.260 A  
HETATM   22  C   UNL     1      -9.402  12.022  67.179  1.00  0.00    -0.187 A  
BRANCH  21  23
HETATM   23  N   UNL     1     -10.360  13.681  65.655  1.00  0.00    -0.292 NA 
HETATM   24  C   UNL     1     -10.452  12.939  64.385  1.00  0.00    -0.396 C  
HETATM   25  C   UNL     1     -11.825  12.229  64.274  1.00  0.00    -0.403 C  
HETATM   26  N   UNL     1     -12.979  13.130  64.461  1.00  0.00    -0.662 NA 
HETATM   27  C   UNL     1     -12.841  13.837  65.751  1.00  0.00    -0.379 C  
HETATM   28  H   UNL     1     -13.870  12.639  64.382  1.00  0.00     0.000 HD 
HETATM   29  C   UNL     1     -11.499  14.590  65.884  1.00  0.00    -0.345 C  
ENDBRANCH  21  23
ENDBRANCH  15  17
ENDBRANCH  11  15
BRANCH  12  30
HETATM   30  C   UNL     1      -9.195   7.267  69.635  1.00  0.00    -0.143 C  
HETATM   31  C   UNL     1     -10.637   5.739  68.452  1.00  0.00    -0.289 C  
HETATM   32  C   UNL     1     -10.601   7.386  70.259  1.00  0.00    -0.241 C  
HETATM   33  C   UNL     1     -11.471   6.320  69.584  1.00  0.00    -0.425 C  
HETATM   34  C   UNL     1      -9.198   5.908  68.917  1.00  0.00    -0.126 C  
ENDBRANCH  12  30
ENDBRANCH   4   6
TORSDOF 5
ENDMDL
MODEL      102
REMARK 921   NORMALIZED FREE ENERGY PREDICTED BY IDOCK:   -4.62 KCAL/MOL
REMARK 922        TOTAL FREE ENERGY PREDICTED BY IDOCK:   -6.86 KCAL/MOL
REMARK 923 INTER-LIGAND FREE ENERGY PREDICTED BY IDOCK:   -6.06 KCAL/MOL
REMARK 924 INTRA-LIGAND FREE ENERGY PREDICTED BY IDOCK:   -0.80 KCAL/MOL
REMARK 927      BINDING AFFINITY PREDICTED BY RF-SCORE:    0.00 PKD
ROOT
HETATM    1  C   UNL     1     -10.850  19.463  66.804  1.00  0.00    -0.388 C  
HETATM    2  N   UNL     1     -10.786  18.012  66.848  1.00  0.00    -0.268 N  
HETATM    3  C   UNL     1     -10.599  17.331  65.570  1.00  0.00    -0.127 C  
HETATM    4  C   UNL     1     -10.482  17.434  68.100  1.00  0.00    -0.389 C  
HETATM    5  O   UNL     1     -10.253  18.151  69.074  1.00  0.00    -0.381 OA 
ENDROOT
BRANCH   4   6
HETATM    6  C   UNL     1     -10.501  15.978  68.209  1.00  0.00    -0.269 A  
HETATM    7  C   UNL     1     -11.605  15.195  68.520  1.00  0.00    -0.354 A  
HETATM    8  C   UNL     1     -11.241  13.845  68.486  1.00  0.00    -0.298 A  
HETATM    9  C   UNL     1     -11.900  12.636  68.635  1.00  0.00    -0.302 A  
HETATM   10  N   UNL     1     -11.194  11.491  68.641  1.00  0.00    -0.224 NA 
HETATM   11  C   UNL     1      -9.852  11.549  68.516  1.00  0.00    -0.195 A  
HETATM   12  N   UNL     1      -9.407  15.099  68.160  1.00  0.00    -0.190 NA 
HETATM   13  N   UNL     1      -9.139  12.673  68.301  1.00  0.00    -0.199 NA 
HETATM   14  C   UNL     1      -9.880  13.799  68.300  1.00  0.00    -0.232 A  
BRANCH  11  15
HETATM   15  N   UNL     1      -9.227  10.318  68.680  1.00  0.00    -0.151 NA 
HETATM   16  H   UNL     1      -9.192   9.987  69.645  1.00  0.00     0.000 HD 
BRANCH  15  17
HETATM   17  C   UNL     1      -8.643   9.460  67.759  1.00  0.00    -0.116 A  
HETATM   18  C   UNL     1      -8.000   8.288  68.114  1.00  0.00    -0.123 A  
HETATM   19  C   UNL     1      -7.466   7.448  67.134  1.00  0.00    -0.106 A  
HETATM   20  N   UNL     1      -8.729   9.823  66.464  1.00  0.00    -0.127 NA 
HETATM   21  C   UNL     1      -7.548   7.768  65.782  1.00  0.00    -0.084 A  
HETATM   22  C   UNL     1      -8.199   8.980  65.531  1.00  0.00    -0.122 A  
BRANCH  21  23
HETATM   23  N   UNL     1      -7.059   6.944  64.790  1.00  0.00    -0.057 NA 
HETATM   24  C   UNL     1      -5.797   6.201  64.953  1.00  0.00    -0.025 C  
HETATM   25  C   UNL     1      -6.073   4.677  65.012  1.00  0.00    -0.030 C  
HETATM   26  N   UNL     1      -6.858   4.169  63.870  1.00  0.00    -0.044 NA 
HETATM   27  C   UNL     1      -8.114   4.940  63.762  1.00  0.00    -0.112 C  
HETATM   28  H   UNL     1      -7.025   3.165  63.932  1.00  0.00     0.000 HD 
HETATM   29  C   UNL     1      -7.879   6.463  63.662  1.00  0.00    -0.110 C  
ENDBRANCH  21  23
ENDBRANCH  15  17
ENDBRANCH  11  15
BRANCH  12  30
HETATM   30  C   UNL     1      -7.996  15.462  68.058  1.00  0.00    -0.130 C  
HETATM   31  C   UNL     1      -6.310  16.934  67.163  1.00  0.00    -0.221 C  
HETATM   32  C   UNL     1      -7.396  16.247  69.242  1.00  0.00    -0.221 C  
HETATM   33  C   UNL     1      -6.421  17.267  68.644  1.00  0.00    -0.178 C  
HETATM   34  C   UNL     1      -7.648  16.298  66.817  1.00  0.00    -0.285 C  
ENDBRANCH  12  30
ENDBRANCH   4   6
TORSDOF 5
ENDMDL
MODEL      103
REMARK 921   NORMALIZED FREE ENERGY PREDICTED BY IDOCK:   -4.55 KCAL/MOL
REMARK 922        TOTAL FREE ENERGY PREDICTED BY IDOCK:   -6.78 KCAL/MOL
REMARK 923 INTER-LIGAND FREE ENERGY PREDICTED BY IDOCK:   -5.93 KCAL/MOL
REMARK 924 INTRA-LIGAND FREE ENERGY PREDICTED BY IDOCK:   -0.85 KCAL/MOL
REMARK 927      BINDING AFFINITY PREDICTED BY RF-SCORE:    0.00 PKD
ROOT
HETATM    1  C   UNL     1      -9.151   5.506  65.288  1.00  0.00    -0.009 C  
HETATM    2  N   UNL     1      -8.910   6.580  66.235  1.00  0.00    -0.143 N  
HETATM    3  C   UNL     1      -9.916   6.766  67.277  1.00  0.00    -0.157 C  
HETATM    4  C   UNL     1      -7.580   7.045  66.332  1.00  0.00    -0.088 C  
HETATM    5  O   UNL     1      -6.690   6.521  65.663  1.00  0.00    -0.046 OA 
ENDROOT
BRANCH   4   6
HETATM    6  C   UNL     1      -7.312   8.186  67.203  1.00  0.00    -0.088 A  
HETATM    7  C   UNL     1      -7.077   8.133  68.571  1.00  0.00    -0.076 A  
HETATM    8  C   UNL     1      -6.817   9.422  69.049  1.00  0.00    -0.054 A  
HETATM    9  C   UNL     1      -6.458   9.976  70.265  1.00  0.00    -0.117 A  
HETATM   10  N   UNL     1      -6.389  11.313  70.392  1.00  0.00    -0.284 NA 
HETATM   11  C   UNL     1      -6.685  12.088  69.329  1.00  0.00    -0.093 A  
HETATM   12  N   UNL     1      -7.373   9.550  66.876  1.00  0.00    -0.087 NA 
HETATM   13  N   UNL     1      -6.978  11.633  68.094  1.00  0.00    -0.067 NA 
HETATM   14  C   UNL     1      -7.038  10.290  68.005  1.00  0.00    -0.083 A  
BRANCH  11  15
HETATM   15  N   UNL     1      -6.716  13.446  69.625  1.00  0.00    -0.314 NA 
HETATM   16  H   UNL     1      -6.341  13.687  70.543  1.00  0.00     0.000 HD 
BRANCH  15  17
HETATM   17  C   UNL     1      -7.167  14.531  68.888  1.00  0.00    -0.125 A  
HETATM   18  C   UNL     1      -6.494  15.038  67.791  1.00  0.00    -0.183 A  
HETATM   19  C   UNL     1      -7.023  16.109  67.068  1.00  0.00    -0.234 A  
HETATM   20  N   UNL     1      -8.325  15.090  69.293  1.00  0.00    -0.191 NA 
HETATM   21  C   UNL     1      -8.226  16.707  67.434  1.00  0.00    -0.169 A  
HETATM   22  C   UNL     1      -8.816  16.134  68.564  1.00  0.00    -0.200 A  
BRANCH  21  23
HETATM   23  N   UNL     1      -8.789  17.745  66.721  1.00  0.00    -0.252 NA 
HETATM   24  C   UNL     1     -10.247  17.954  66.681  1.00  0.00    -0.371 C  
HETATM   25  C   UNL     1     -10.622  19.272  67.404  1.00  0.00    -0.487 C  
HETATM   26  N   UNL     1      -9.891  20.454  66.907  1.00  0.00    -0.532 NA 
HETATM   27  C   UNL     1      -8.438  20.193  66.981  1.00  0.00    -0.335 C  
HETATM   28  H   UNL     1     -10.156  21.308  67.398  1.00  0.00     0.000 HD 
HETATM   29  C   UNL     1      -8.019  18.906  66.238  1.00  0.00    -0.273 C  
ENDBRANCH  21  23
ENDBRANCH  15  17
ENDBRANCH  11  15
BRANCH  12  30
HETATM   30  C   UNL     1      -7.788  10.127  65.600  1.00  0.00    -0.145 C  
HETATM   31  C   UNL     1      -7.758  10.029  63.191  1.00  0.00    -0.145 C  
HETATM   32  C   UNL     1      -9.225   9.816  65.135  1.00  0.00    -0.297 C  
HETATM   33  C   UNL     1      -9.163   9.629  63.615  1.00  0.00    -0.159 C  
HETATM   34  C   UNL     1      -6.897   9.734  64.411  1.00  0.00    -0.119 C  
ENDBRANCH  12  30
ENDBRANCH   4   6
TORSDOF 5
ENDMDL
MODEL      104
REMARK 921   NORMALIZED FREE ENERGY PREDICTED BY IDOCK:   -4.54 KCAL/MOL
REMARK 922        TOTAL FREE ENERGY PREDICTED BY IDOCK:   -6.75 KCAL/MOL
REMARK 923 INTER-LIGAND FREE ENERGY PREDICTED BY IDOCK:   -5.84 KCAL/MOL
REMARK 924 INTRA-LIGAND FREE ENERGY PREDICTED BY IDOCK:   -0.91 KCAL/MOL
REMARK 927      BINDING AFFINITY PREDICTED BY RF-SCORE:    0.00 PKD
ROOT
HETATM    1  C   UNL     1     -11.789  15.504  64.584  1.00  0.00    -0.171 C  
HETATM    2  N   UNL     1     -10.774  14.691  65.233  1.00  0.00    -0.353 N  
HETATM    3  C   UNL     1     -10.291  13.535  64.483  1.00  0.00    -0.358 C  
HETATM    4  C   UNL     1     -10.060  15.302  66.287  1.00  0.00    -0.281 C  
HETATM    5  O   UNL     1     -10.284  16.473  66.590  1.00  0.00    -0.283 OA 
ENDROOT
BRANCH   4   6
HETATM    6  C   UNL     1      -9.098  14.490  67.026  1.00  0.00    -0.239 A  
HETATM    7  C   UNL     1      -7.715  14.613  66.978  1.00  0.00     0.006 A  
HETATM    8  C   UNL     1      -7.136  13.691  67.856  1.00  0.00    -0.151 A  
HETATM    9  C   UNL     1      -5.851  13.397  68.279  1.00  0.00    -0.097 A  
HETATM   10  N   UNL     1      -5.642  12.340  69.085  1.00  0.00    -0.064 NA 
HETATM   11  C   UNL     1      -6.693  11.579  69.452  1.00  0.00    -0.116 A  
HETATM   12  N   UNL     1      -9.356  13.354  67.811  1.00  0.00    -0.203 NA 
HETATM   13  N   UNL     1      -7.981  11.831  69.142  1.00  0.00     0.112 NA 
HETATM   14  C   UNL     1      -8.151  12.897  68.335  1.00  0.00    -0.130 A  
BRANCH  11  15
HETATM   15  N   UNL     1      -6.331  10.441  70.164  1.00  0.00    -0.107 NA 
HETATM   16  H   UNL     1      -5.350  10.411  70.442  1.00  0.00     0.000 HD 
BRANCH  15  17
HETATM   17  C   UNL     1      -7.073   9.338  70.562  1.00  0.00    -0.100 A  
HETATM   18  C   UNL     1      -7.558   8.390  69.679  1.00  0.00    -0.089 A  
HETATM   19  C   UNL     1      -8.265   7.281  70.149  1.00  0.00    -0.134 A  
HETATM   20  N   UNL     1      -7.310   9.221  71.883  1.00  0.00    -0.290 NA 
HETATM   21  C   UNL     1      -8.518   7.104  71.506  1.00  0.00    -0.115 A  
HETATM   22  C   UNL     1      -8.002   8.126  72.310  1.00  0.00    -0.135 A  
BRANCH  21  23
HETATM   23  N   UNL     1      -9.184   6.004  72.003  1.00  0.00    -0.147 NA 
HETATM   24  C   UNL     1      -8.801   5.379  73.281  1.00  0.00    -0.118 C  
HETATM   25  C   UNL     1      -9.925   5.568  74.331  1.00  0.00    -0.242 C  
HETATM   26  N   UNL     1     -11.250   5.104  73.876  1.00  0.00    -0.427 NA 
HETATM   27  C   UNL     1     -11.587   5.769  72.600  1.00  0.00    -0.253 C  
HETATM   28  H   UNL     1     -11.972   5.238  74.584  1.00  0.00     0.000 HD 
HETATM   29  C   UNL     1     -10.507   5.571  71.515  1.00  0.00    -0.235 C  
ENDBRANCH  21  23
ENDBRANCH  15  17
ENDBRANCH  11  15
BRANCH  12  30
HETATM   30  C   UNL     1     -10.645  12.695  68.002  1.00  0.00    -0.221 C  
HETATM   31  C   UNL     1     -11.894  10.648  68.247  1.00  0.00     0.007 C  
HETATM   32  C   UNL     1     -11.199  12.665  69.441  1.00  0.00    -0.205 C  
HETATM   33  C   UNL     1     -11.879  11.302  69.620  1.00  0.00    -0.430 C  
HETATM   34  C   UNL     1     -10.682  11.232  67.536  1.00  0.00    -0.275 C  
ENDBRANCH  12  30
ENDBRANCH   4   6
TORSDOF 5
ENDMDL
MODEL      105
REMARK 921   NORMALIZED FREE ENERGY PREDICTED BY IDOCK:   -4.53 KCAL/MOL
REMARK 922        TOTAL FREE ENERGY PREDICTED BY IDOCK:   -6.74 KCAL/MOL
REMARK 923 INTER-LIGAND FREE ENERGY PREDICTED BY IDOCK:   -6.15 KCAL/MOL
REMARK 924 INTRA-LIGAND FREE ENERGY PREDICTED BY IDOCK:   -0.59 KCAL/MOL
REMARK 927      BINDING AFFINITY PREDICTED BY RF-SCORE:    0.00 PKD
ROOT
HETATM    1  C   UNL     1     -10.541  16.049  64.848  1.00  0.00    -0.214 C  
HETATM    2  N   UNL     1     -10.250  14.856  65.625  1.00  0.00    -0.332 N  
HETATM    3  C   UNL     1      -8.912  14.767  66.202  1.00  0.00    -0.026 C  
HETATM    4  C   UNL     1     -11.364  14.131  66.102  1.00  0.00    -0.337 C  
HETATM    5  O   UNL     1     -12.506  14.535  65.885  1.00  0.00    -0.312 OA 
ENDROOT
BRANCH   4   6
HETATM    6  C   UNL     1     -11.116  12.876  66.806  1.00  0.00    -0.281 A  
HETATM    7  C   UNL     1     -11.126  11.606  66.243  1.00  0.00    -0.345 A  
HETATM    8  C   UNL     1     -10.802  10.661  67.223  1.00  0.00    -0.345 A  
HETATM    9  C   UNL     1     -10.593   9.293  67.250  1.00  0.00    -0.233 A  
HETATM   10  N   UNL     1     -10.390   8.676  68.428  1.00  0.00    -0.207 NA 
HETATM   11  C   UNL     1     -10.408   9.405  69.561  1.00  0.00    -0.214 A  
HETATM   12  N   UNL     1     -10.960  12.682  68.188  1.00  0.00    -0.225 NA 
HETATM   13  N   UNL     1     -10.537  10.746  69.620  1.00  0.00    -0.212 NA 
HETATM   14  C   UNL     1     -10.738  11.330  68.422  1.00  0.00    -0.203 A  
BRANCH  11  15
HETATM   15  N   UNL     1     -10.329   8.636  70.717  1.00  0.00    -0.196 NA 
HETATM   16  H   UNL     1     -10.641   9.113  71.563  1.00  0.00     0.000 HD 
BRANCH  15  17
HETATM   17  C   UNL     1      -9.899   7.333  70.919  1.00  0.00    -0.184 A  
HETATM   18  C   UNL     1     -10.757   6.250  70.978  1.00  0.00    -0.313 A  
HETATM   19  C   UNL     1     -10.256   4.958  71.145  1.00  0.00    -0.261 A  
HETATM   20  N   UNL     1      -8.570   7.156  71.060  1.00  0.00    -0.132 NA 
HETATM   21  C   UNL     1      -8.891   4.720  71.274  1.00  0.00    -0.127 A  
HETATM   22  C   UNL     1      -8.113   5.880  71.220  1.00  0.00    -0.118 A  
BRANCH  21  23
HETATM   23  N   UNL     1      -8.364   3.452  71.407  1.00  0.00    -0.067 NA 
HETATM   24  C   UNL     1      -7.090   3.072  70.771  1.00  0.00    -0.033 C  
HETATM   25  C   UNL     1      -6.012   2.796  71.848  1.00  0.00    -0.013 C  
HETATM   26  N   UNL     1      -6.425   1.810  72.866  1.00  0.00    -0.013 NA 
HETATM   27  C   UNL     1      -7.698   2.245  73.477  1.00  0.00    -0.042 C  
HETATM   28  H   UNL     1      -5.698   1.644  73.562  1.00  0.00     0.000 HD 
HETATM   29  C   UNL     1      -8.811   2.495  72.436  1.00  0.00    -0.070 C  
ENDBRANCH  21  23
ENDBRANCH  15  17
ENDBRANCH  11  15
BRANCH  12  30
HETATM   30  C   UNL     1     -11.081  13.696  69.233  1.00  0.00    -0.193 C  
HETATM   31  C   UNL     1     -10.574  15.921  70.009  1.00  0.00    -0.320 C  
HETATM   32  C   UNL     1     -12.410  14.476  69.289  1.00  0.00    -0.185 C  
HETATM   33  C   UNL     1     -12.055  15.921  69.659  1.00  0.00    -0.216 C  
HETATM   34  C   UNL     1      -9.991  14.778  69.191  1.00  0.00    -0.184 C  
ENDBRANCH  12  30
ENDBRANCH   4   6
TORSDOF 5
ENDMDL
MODEL      106
REMARK 921   NORMALIZED FREE ENERGY PREDICTED BY IDOCK:   -4.49 KCAL/MOL
REMARK 922        TOTAL FREE ENERGY PREDICTED BY IDOCK:   -6.69 KCAL/MOL
REMARK 923 INTER-LIGAND FREE ENERGY PREDICTED BY IDOCK:   -6.49 KCAL/MOL
REMARK 924 INTRA-LIGAND FREE ENERGY PREDICTED BY IDOCK:   -0.20 KCAL/MOL
REMARK 927      BINDING AFFINITY PREDICTED BY RF-SCORE:    0.00 PKD
ROOT
HETATM    1  C   UNL     1      -9.662   4.172  65.580  1.00  0.00    -0.204 C  
HETATM    2  N   UNL     1      -9.869   5.367  66.381  1.00  0.00    -0.165 N  
HETATM    3  C   UNL     1     -10.351   5.161  67.743  1.00  0.00    -0.094 C  
HETATM    4  C   UNL     1      -9.203   6.535  65.948  1.00  0.00     0.012 C  
HETATM    5  O   UNL     1      -8.465   6.499  64.964  1.00  0.00    -0.111 OA 
ENDROOT
BRANCH   4   6
HETATM    6  C   UNL     1      -9.458   7.778  66.669  1.00  0.00    -0.205 A  
HETATM    7  C   UNL     1     -10.670   8.166  67.229  1.00  0.00    -0.263 A  
HETATM    8  C   UNL     1     -10.511   9.397  67.873  1.00  0.00    -0.296 A  
HETATM    9  C   UNL     1     -11.311  10.225  68.642  1.00  0.00    -0.166 A  
HETATM   10  N   UNL     1     -10.846  11.426  69.029  1.00  0.00    -0.213 NA 
HETATM   11  C   UNL     1      -9.611  11.805  68.645  1.00  0.00    -0.115 A  
HETATM   12  N   UNL     1      -8.595   8.876  66.823  1.00  0.00    -0.114 NA 
HETATM   13  N   UNL     1      -8.742  11.037  67.956  1.00  0.00    -0.133 NA 
HETATM   14  C   UNL     1      -9.242   9.841  67.587  1.00  0.00    -0.130 A  
BRANCH  11  15
HETATM   15  N   UNL     1      -9.302  13.117  68.985  1.00  0.00    -0.277 NA 
HETATM   16  H   UNL     1      -8.984  13.240  69.947  1.00  0.00     0.000 HD 
BRANCH  15  17
HETATM   17  C   UNL     1      -9.352  14.289  68.244  1.00  0.00    -0.208 A  
HETATM   18  C   UNL     1     -10.520  14.801  67.710  1.00  0.00    -0.254 A  
HETATM   19  C   UNL     1     -10.508  16.007  67.006  1.00  0.00    -0.307 A  
HETATM   20  N   UNL     1      -8.181  14.931  68.060  1.00  0.00    -0.133 NA 
HETATM   21  C   UNL     1      -9.328  16.718  66.807  1.00  0.00    -0.245 A  
HETATM   22  C   UNL     1      -8.203  16.107  67.369  1.00  0.00    -0.163 A  
BRANCH  21  23
HETATM   23  N   UNL     1      -9.290  17.927  66.145  1.00  0.00    -0.503 NA 
HETATM   24  C   UNL     1     -10.521  18.632  65.747  1.00  0.00    -0.256 C  
HETATM   25  C   UNL     1     -10.669  19.952  66.545  1.00  0.00    -0.333 C  
HETATM   26  N   UNL     1      -9.488  20.834  66.461  1.00  0.00    -0.617 NA 
HETATM   27  C   UNL     1      -8.288  20.082  66.880  1.00  0.00    -0.326 C  
HETATM   28  H   UNL     1      -9.610  21.696  66.993  1.00  0.00     0.000 HD 
HETATM   29  C   UNL     1      -8.085  18.776  66.081  1.00  0.00    -0.199 C  
ENDBRANCH  21  23
ENDBRANCH  15  17
ENDBRANCH  11  15
BRANCH  12  30
HETATM   30  C   UNL     1      -7.270   9.036  66.231  1.00  0.00    -0.090 C  
HETATM   31  C   UNL     1      -5.674  10.457  65.116  1.00  0.00    -0.138 C  
HETATM   32  C   UNL     1      -6.100   9.268  67.209  1.00  0.00    -0.057 C  
HETATM   33  C   UNL     1      -5.159  10.274  66.536  1.00  0.00    -0.041 C  
HETATM   34  C   UNL     1      -7.167  10.186  65.216  1.00  0.00    -0.141 C  
ENDBRANCH  12  30
ENDBRANCH   4   6
TORSDOF 5
ENDMDL
MODEL      107
REMARK 921   NORMALIZED FREE ENERGY PREDICTED BY IDOCK:   -4.46 KCAL/MOL
REMARK 922        TOTAL FREE ENERGY PREDICTED BY IDOCK:   -6.65 KCAL/MOL
REMARK 923 INTER-LIGAND FREE ENERGY PREDICTED BY IDOCK:   -6.06 KCAL/MOL
REMARK 924 INTRA-LIGAND FREE ENERGY PREDICTED BY IDOCK:   -0.59 KCAL/MOL
REMARK 927      BINDING AFFINITY PREDICTED BY RF-SCORE:    0.00 PKD
ROOT
HETATM    1  C   UNL     1      -9.043  20.084  67.745  1.00  0.00    -0.320 C  
HETATM    2  N   UNL     1      -9.085  18.838  66.997  1.00  0.00    -0.284 N  
HETATM    3  C   UNL     1      -7.854  18.447  66.317  1.00  0.00    -0.242 C  
HETATM    4  C   UNL     1     -10.119  17.938  67.336  1.00  0.00    -0.340 C  
HETATM    5  O   UNL     1     -10.904  18.208  68.245  1.00  0.00    -0.240 OA 
ENDROOT
BRANCH   4   6
HETATM    6  C   UNL     1     -10.254  16.717  66.546  1.00  0.00    -0.316 A  
HETATM    7  C   UNL     1     -11.244  16.455  65.608  1.00  0.00     0.205 A  
HETATM    8  C   UNL     1     -11.015  15.202  65.028  1.00  0.00    -0.443 A  
HETATM    9  C   UNL     1     -11.598  14.454  64.020  1.00  0.00    -0.029 A  
HETATM   10  N   UNL     1     -11.165  13.202  63.787  1.00  0.00    -0.340 NA 
HETATM   11  C   UNL     1     -10.177  12.697  64.553  1.00  0.00    -0.305 A  
HETATM   12  N   UNL     1      -9.514  15.529  66.667  1.00  0.00    -0.242 NA 
HETATM   13  N   UNL     1      -9.510  13.377  65.508  1.00  0.00     0.081 NA 
HETATM   14  C   UNL     1      -9.970  14.627  65.713  1.00  0.00    -0.338 A  
BRANCH  11  15
HETATM   15  N   UNL     1      -9.918  11.353  64.309  1.00  0.00    -0.263 NA 
HETATM   16  H   UNL     1      -9.726  11.131  63.332  1.00  0.00     0.000 HD 
BRANCH  15  17
HETATM   17  C   UNL     1      -9.876  10.261  65.164  1.00  0.00    -0.321 A  
HETATM   18  C   UNL     1     -10.668  10.148  66.292  1.00  0.00    -0.047 A  
HETATM   19  C   UNL     1     -10.604   9.004  67.089  1.00  0.00    -0.291 A  
HETATM   20  N   UNL     1      -9.007   9.282  64.842  1.00  0.00    -0.200 NA 
HETATM   21  C   UNL     1      -9.739   7.956  66.788  1.00  0.00    -0.234 A  
HETATM   22  C   UNL     1      -8.971   8.176  65.641  1.00  0.00    -0.080 A  
BRANCH  21  23
HETATM   23  N   UNL     1      -9.678   6.801  67.538  1.00  0.00    -0.125 NA 
HETATM   24  C   UNL     1     -10.649   5.707  67.355  1.00  0.00    -0.237 C  
HETATM   25  C   UNL     1      -9.945   4.452  66.780  1.00  0.00    -0.195 C  
HETATM   26  N   UNL     1      -8.774   4.013  67.566  1.00  0.00    -0.101 NA 
HETATM   27  C   UNL     1      -7.832   5.142  67.707  1.00  0.00    -0.091 C  
HETATM   28  H   UNL     1      -8.330   3.186  67.168  1.00  0.00     0.000 HD 
HETATM   29  C   UNL     1      -8.489   6.402  68.313  1.00  0.00    -0.115 C  
ENDBRANCH  21  23
ENDBRANCH  15  17
ENDBRANCH  11  15
BRANCH  12  30
HETATM   30  C   UNL     1      -8.488  15.235  67.664  1.00  0.00    -0.161 C  
HETATM   31  C   UNL     1      -7.254  13.590  68.922  1.00  0.00    -0.070 C  
HETATM   32  C   UNL     1      -7.023  15.296  67.186  1.00  0.00    -0.037 C  
HETATM   33  C   UNL     1      -6.281  14.161  67.900  1.00  0.00    -0.164 C  
HETATM   34  C   UNL     1      -8.628  13.855  68.325  1.00  0.00    -0.177 C  
ENDBRANCH  12  30
ENDBRANCH   4   6
TORSDOF 5
ENDMDL
MODEL      108
REMARK 921   NORMALIZED FREE ENERGY PREDICTED BY IDOCK:   -4.42 KCAL/MOL
REMARK 922        TOTAL FREE ENERGY PREDICTED BY IDOCK:   -6.60 KCAL/MOL
REMARK 923 INTER-LIGAND FREE ENERGY PREDICTED BY IDOCK:   -6.50 KCAL/MOL
REMARK 924 INTRA-LIGAND FREE ENERGY PREDICTED BY IDOCK:   -0.10 KCAL/MOL
REMARK 927      BINDING AFFINITY PREDICTED BY RF-SCORE:    0.00 PKD
ROOT
HETATM    1  C   UNL     1      -8.762  19.116  67.883  1.00  0.00    -0.305 C  
HETATM    2  N   UNL     1      -8.990  17.772  67.379  1.00  0.00    -0.239 N  
HETATM    3  C   UNL     1      -8.066  17.297  66.354  1.00  0.00    -0.293 C  
HETATM    4  C   UNL     1      -9.769  16.921  68.193  1.00  0.00    -0.254 C  
HETATM    5  O   UNL     1     -10.187  17.315  69.281  1.00  0.00    -0.296 OA 
ENDROOT
BRANCH   4   6
HETATM    6  C   UNL     1     -10.099  15.593  67.681  1.00  0.00    -0.248 A  
HETATM    7  C   UNL     1     -11.322  15.204  67.148  1.00  0.00    -0.291 A  
HETATM    8  C   UNL     1     -11.240  13.872  66.725  1.00  0.00    -0.328 A  
HETATM    9  C   UNL     1     -12.081  12.985  66.076  1.00  0.00    -0.432 A  
HETATM   10  N   UNL     1     -11.699  11.705  65.915  1.00  0.00    -0.311 NA 
HETATM   11  C   UNL     1     -10.506  11.311  66.404  1.00  0.00    -0.257 A  
HETATM   12  N   UNL     1      -9.319  14.428  67.747  1.00  0.00    -0.195 NA 
HETATM   13  N   UNL     1      -9.600  12.121  66.988  1.00  0.00    -0.201 NA 
HETATM   14  C   UNL     1     -10.017  13.394  67.132  1.00  0.00    -0.242 A  
BRANCH  11  15
HETATM   15  N   UNL     1     -10.290   9.941  66.301  1.00  0.00    -0.202 NA 
HETATM   16  H   UNL     1     -10.527   9.544  65.392  1.00  0.00     0.000 HD 
BRANCH  15  17
HETATM   17  C   UNL     1      -9.807   9.021  67.220  1.00  0.00    -0.196 A  
HETATM   18  C   UNL     1      -8.983   9.363  68.277  1.00  0.00    -0.128 A  
HETATM   19  C   UNL     1      -8.564   8.394  69.190  1.00  0.00    -0.134 A  
HETATM   20  N   UNL     1     -10.185   7.740  67.039  1.00  0.00    -0.277 NA 
HETATM   21  C   UNL     1      -8.943   7.061  69.059  1.00  0.00    -0.133 A  
HETATM   22  C   UNL     1      -9.759   6.817  67.950  1.00  0.00    -0.127 A  
BRANCH  21  23
HETATM   23  N   UNL     1      -8.572   6.088  69.963  1.00  0.00    -0.130 NA 
HETATM   24  C   UNL     1      -9.567   5.231  70.631  1.00  0.00    -0.176 C  
HETATM   25  C   UNL     1      -9.416   3.762  70.162  1.00  0.00    -0.189 C  
HETATM   26  N   UNL     1      -8.049   3.226  70.315  1.00  0.00    -0.045 NA 
HETATM   27  C   UNL     1      -7.096   4.115  69.619  1.00  0.00    -0.046 C  
HETATM   28  H   UNL     1      -7.975   2.259  70.001  1.00  0.00     0.000 HD 
HETATM   29  C   UNL     1      -7.191   5.584  70.087  1.00  0.00    -0.067 C  
ENDBRANCH  21  23
ENDBRANCH  15  17
ENDBRANCH  11  15
BRANCH  12  30
HETATM   30  C   UNL     1      -8.026  14.277  68.409  1.00  0.00    -0.143 C  
HETATM   31  C   UNL     1      -5.642  14.631  68.371  1.00  0.00    -0.107 C  
HETATM   32  C   UNL     1      -7.695  15.293  69.520  1.00  0.00    -0.212 C  
HETATM   33  C   UNL     1      -6.199  15.604  69.399  1.00  0.00    -0.136 C  
HETATM   34  C   UNL     1      -6.820  14.329  67.457  1.00  0.00    -0.158 C  
ENDBRANCH  12  30
ENDBRANCH   4   6
TORSDOF 5
ENDMDL
MODEL      109
REMARK 921   NORMALIZED FREE ENERGY PREDICTED BY IDOCK:   -4.38 KCAL/MOL
REMARK 922        TOTAL FREE ENERGY PREDICTED BY IDOCK:   -6.55 KCAL/MOL
REMARK 923 INTER-LIGAND FREE ENERGY PREDICTED BY IDOCK:   -5.63 KCAL/MOL
REMARK 924 INTRA-LIGAND FREE ENERGY PREDICTED BY IDOCK:   -0.92 KCAL/MOL
REMARK 927      BINDING AFFINITY PREDICTED BY RF-SCORE:    0.00 PKD
ROOT
HETATM    1  C   UNL     1      -8.542  21.083  68.002  1.00  0.00     0.532 C  
HETATM    2  N   UNL     1      -8.747  19.704  67.593  1.00  0.00    -0.313 N  
HETATM    3  C   UNL     1      -8.052  19.275  66.382  1.00  0.00    -0.316 C  
HETATM    4  C   UNL     1      -9.220  18.818  68.586  1.00  0.00    -0.347 C  
HETATM    5  O   UNL     1      -9.402  19.217  69.736  1.00  0.00     0.273 OA 
ENDROOT
BRANCH   4   6
HETATM    6  C   UNL     1      -9.528  17.446  68.193  1.00  0.00    -0.288 A  
HETATM    7  C   UNL     1     -10.781  16.956  67.847  1.00  0.00    -0.344 A  
HETATM    8  C   UNL     1     -10.670  15.608  67.489  1.00  0.00    -0.303 A  
HETATM    9  C   UNL     1     -11.529  14.638  67.004  1.00  0.00    -0.368 A  
HETATM   10  N   UNL     1     -11.091  13.374  66.861  1.00  0.00    -0.287 NA 
HETATM   11  C   UNL     1      -9.822  13.078  67.209  1.00  0.00    -0.227 A  
HETATM   12  N   UNL     1      -8.673  16.332  68.217  1.00  0.00    -0.185 NA 
HETATM   13  N   UNL     1      -8.902  13.971  67.625  1.00  0.00    -0.179 NA 
HETATM   14  C   UNL     1      -9.377  15.226  67.755  1.00  0.00    -0.196 A  
BRANCH  11  15
HETATM   15  N   UNL     1      -9.534  11.719  67.151  1.00  0.00    -0.173 NA 
HETATM   16  H   UNL     1      -8.997  11.436  66.331  1.00  0.00     0.000 HD 
BRANCH  15  17
HETATM   17  C   UNL     1      -9.851  10.680  68.014  1.00  0.00    -0.160 A  
HETATM   18  C   UNL     1      -9.728  10.770  69.389  1.00  0.00    -0.088 A  
HETATM   19  C   UNL     1     -10.102   9.700  70.205  1.00  0.00    -0.311 A  
HETATM   20  N   UNL     1     -10.299   9.544  67.445  1.00  0.00    -0.241 NA 
HETATM   21  C   UNL     1     -10.590   8.513  69.666  1.00  0.00    -0.220 A  
HETATM   22  C   UNL     1     -10.658   8.518  68.270  1.00  0.00    -0.119 A  
BRANCH  21  23
HETATM   23  N   UNL     1     -10.997   7.452  70.447  1.00  0.00    -0.248 NA 
HETATM   24  C   UNL     1     -10.314   7.111  71.708  1.00  0.00    -0.196 C  
HETATM   25  C   UNL     1     -11.254   7.359  72.915  1.00  0.00    -0.319 C  
HETATM   26  N   UNL     1     -12.559   6.678  72.803  1.00  0.00    -0.048 NA 
HETATM   27  C   UNL     1     -13.202   7.064  71.531  1.00  0.00    -0.317 C  
HETATM   28  H   UNL     1     -13.158   6.856  73.609  1.00  0.00     0.000 HD 
HETATM   29  C   UNL     1     -12.310   6.796  70.299  1.00  0.00     0.097 C  
ENDBRANCH  21  23
ENDBRANCH  15  17
ENDBRANCH  11  15
BRANCH  12  30
HETATM   30  C   UNL     1      -7.298  16.294  68.710  1.00  0.00    -0.191 C  
HETATM   31  C   UNL     1      -5.539  15.064  69.806  1.00  0.00    -0.103 C  
HETATM   32  C   UNL     1      -6.196  16.038  67.662  1.00  0.00    -0.184 C  
HETATM   33  C   UNL     1      -5.148  15.147  68.338  1.00  0.00    -0.105 C  
HETATM   34  C   UNL     1      -7.049  15.247  69.806  1.00  0.00    -0.154 C  
ENDBRANCH  12  30
ENDBRANCH   4   6
TORSDOF 5
ENDMDL
MODEL      110
REMARK 921   NORMALIZED FREE ENERGY PREDICTED BY IDOCK:   -4.21 KCAL/MOL
REMARK 922        TOTAL FREE ENERGY PREDICTED BY IDOCK:   -6.33 KCAL/MOL
REMARK 923 INTER-LIGAND FREE ENERGY PREDICTED BY IDOCK:   -6.30 KCAL/MOL
REMARK 924 INTRA-LIGAND FREE ENERGY PREDICTED BY IDOCK:   -0.03 KCAL/MOL
REMARK 927      BINDING AFFINITY PREDICTED BY RF-SCORE:    0.00 PKD
ROOT
HETATM    1  C   UNL     1     -11.934  16.290  72.802  1.00  0.00    -0.537 C  
HETATM    2  N   UNL     1     -11.818  15.406  71.654  1.00  0.00    -0.360 N  
HETATM    3  C   UNL     1     -12.565  14.153  71.720  1.00  0.00    -0.315 C  
HETATM    4  C   UNL     1     -11.373  15.996  70.450  1.00  0.00    -0.391 C  
HETATM    5  O   UNL     1     -11.141  17.203  70.401  1.00  0.00     0.226 OA 
ENDROOT
BRANCH   4   6
HETATM    6  C   UNL     1     -11.153  15.126  69.298  1.00  0.00    -0.274 A  
HETATM    7  C   UNL     1     -12.139  14.490  68.554  1.00  0.00    -0.257 A  
HETATM    8  C   UNL     1     -11.544  13.780  67.505  1.00  0.00    -0.387 A  
HETATM    9  C   UNL     1     -11.996  13.036  66.429  1.00  0.00    -0.402 A  
HETATM   10  N   UNL     1     -11.110  12.388  65.651  1.00  0.00    -0.295 NA 
HETATM   11  C   UNL     1      -9.797  12.468  65.947  1.00  0.00    -0.247 A  
HETATM   12  N   UNL     1      -9.929  14.650  68.802  1.00  0.00    -0.232 NA 
HETATM   13  N   UNL     1      -9.266  13.221  66.932  1.00  0.00    -0.236 NA 
HETATM   14  C   UNL     1     -10.183  13.856  67.689  1.00  0.00    -0.242 A  
BRANCH  11  15
HETATM   15  N   UNL     1      -9.000  11.644  65.160  1.00  0.00    -0.407 NA 
HETATM   16  H   UNL     1      -8.659  12.081  64.303  1.00  0.00     0.000 HD 
BRANCH  15  17
HETATM   17  C   UNL     1      -8.588  10.331  65.337  1.00  0.00    -0.159 A  
HETATM   18  C   UNL     1      -9.458   9.293  65.618  1.00  0.00    -0.324 A  
HETATM   19  C   UNL     1      -8.983   7.986  65.746  1.00  0.00    -0.148 A  
HETATM   20  N   UNL     1      -7.266  10.097  65.218  1.00  0.00    -0.137 NA 
HETATM   21  C   UNL     1      -7.630   7.690  65.612  1.00  0.00    -0.090 A  
HETATM   22  C   UNL     1      -6.835   8.809  65.347  1.00  0.00    -0.072 A  
BRANCH  21  23
HETATM   23  N   UNL     1      -7.136   6.406  65.700  1.00  0.00    -0.064 NA 
HETATM   24  C   UNL     1      -6.249   5.991  66.802  1.00  0.00    -0.029 C  
HETATM   25  C   UNL     1      -6.960   4.952  67.705  1.00  0.00    -0.061 C  
HETATM   26  N   UNL     1      -7.492   3.788  66.969  1.00  0.00    -0.071 NA 
HETATM   27  C   UNL     1      -8.380   4.260  65.887  1.00  0.00    -0.109 C  
HETATM   28  H   UNL     1      -7.954   3.119  67.585  1.00  0.00     0.000 HD 
HETATM   29  C   UNL     1      -7.694   5.270  64.942  1.00  0.00    -0.087 C  
ENDBRANCH  21  23
ENDBRANCH  15  17
ENDBRANCH  11  15
BRANCH  12  30
HETATM   30  C   UNL     1      -8.605  14.870  69.379  1.00  0.00    -0.054 C  
HETATM   31  C   UNL     1      -6.219  14.567  69.227  1.00  0.00    -0.112 C  
HETATM   32  C   UNL     1      -7.979  16.262  69.158  1.00  0.00    -0.221 C  
HETATM   33  C   UNL     1      -6.479  16.037  68.935  1.00  0.00    -0.126 C  
HETATM   34  C   UNL     1      -7.535  13.877  68.900  1.00  0.00    -0.080 C  
ENDBRANCH  12  30
ENDBRANCH   4   6
TORSDOF 5
ENDMDL
MODEL      111
REMARK 921   NORMALIZED FREE ENERGY PREDICTED BY IDOCK:   -4.20 KCAL/MOL
REMARK 922        TOTAL FREE ENERGY PREDICTED BY IDOCK:   -6.32 KCAL/MOL
REMARK 923 INTER-LIGAND FREE ENERGY PREDICTED BY IDOCK:   -5.86 KCAL/MOL
REMARK 924 INTRA-LIGAND FREE ENERGY PREDICTED BY IDOCK:   -0.47 KCAL/MOL
REMARK 927      BINDING AFFINITY PREDICTED BY RF-SCORE:    0.00 PKD
ROOT
HETATM    1  C   UNL     1      -8.766  20.155  66.385  1.00  0.00    -0.244 C  
HETATM    2  N   UNL     1      -8.032  18.968  66.790  1.00  0.00    -0.250 N  
HETATM    3  C   UNL     1      -6.697  18.805  66.222  1.00  0.00    -0.218 C  
HETATM    4  C   UNL     1      -8.468  18.334  67.974  1.00  0.00    -0.262 C  
HETATM    5  O   UNL     1      -9.399  18.808  68.624  1.00  0.00    -0.337 OA 
ENDROOT
BRANCH   4   6
HETATM    6  C   UNL     1      -7.818  17.086  68.364  1.00  0.00    -0.233 A  
HETATM    7  C   UNL     1      -6.536  16.960  68.885  1.00  0.00    -0.193 A  
HETATM    8  C   UNL     1      -6.284  15.615  69.177  1.00  0.00    -0.119 A  
HETATM    9  C   UNL     1      -5.249  14.903  69.758  1.00  0.00    -0.094 A  
HETATM   10  N   UNL     1      -5.302  13.560  69.789  1.00  0.00    -0.087 NA 
HETATM   11  C   UNL     1      -6.361  12.933  69.239  1.00  0.00    -0.108 A  
HETATM   12  N   UNL     1      -8.286  15.776  68.171  1.00  0.00    -0.140 NA 
HETATM   13  N   UNL     1      -7.441  13.547  68.714  1.00  0.00    -0.099 NA 
HETATM   14  C   UNL     1      -7.353  14.892  68.701  1.00  0.00    -0.120 A  
BRANCH  11  15
HETATM   15  N   UNL     1      -6.231  11.549  69.207  1.00  0.00    -0.070 NA 
HETATM   16  H   UNL     1      -5.267  11.216  69.174  1.00  0.00     0.000 HD 
BRANCH  15  17
HETATM   17  C   UNL     1      -7.185  10.542  69.213  1.00  0.00    -0.103 A  
HETATM   18  C   UNL     1      -7.882  10.149  68.084  1.00  0.00    -0.096 A  
HETATM   19  C   UNL     1      -8.802   9.100  68.149  1.00  0.00    -0.129 A  
HETATM   20  N   UNL     1      -7.413   9.939  70.397  1.00  0.00    -0.241 NA 
HETATM   21  C   UNL     1      -9.058   8.433  69.343  1.00  0.00    -0.154 A  
HETATM   22  C   UNL     1      -8.317   8.917  70.426  1.00  0.00    -0.149 A  
BRANCH  21  23
HETATM   23  N   UNL     1      -9.935   7.373  69.432  1.00  0.00    -0.173 NA 
HETATM   24  C   UNL     1     -10.088   6.401  68.335  1.00  0.00    -0.157 C  
HETATM   25  C   UNL     1      -9.572   5.007  68.775  1.00  0.00    -0.150 C  
HETATM   26  N   UNL     1     -10.181   4.514  70.026  1.00  0.00    -0.137 NA 
HETATM   27  C   UNL     1      -9.988   5.520  71.090  1.00  0.00    -0.195 C  
HETATM   28  H   UNL     1      -9.826   3.596  70.293  1.00  0.00     0.000 HD 
HETATM   29  C   UNL     1     -10.525   6.916  70.704  1.00  0.00    -0.210 C  
ENDBRANCH  21  23
ENDBRANCH  15  17
ENDBRANCH  11  15
BRANCH  12  30
HETATM   30  C   UNL     1      -9.503  15.376  67.470  1.00  0.00    -0.205 C  
HETATM   31  C   UNL     1     -10.801  13.627  66.436  1.00  0.00    -0.290 C  
HETATM   32  C   UNL     1     -10.762  15.165  68.336  1.00  0.00    -0.248 C  
HETATM   33  C   UNL     1     -11.509  13.967  67.739  1.00  0.00    -0.354 C  
HETATM   34  C   UNL     1      -9.365  14.080  66.656  1.00  0.00    -0.292 C  
ENDBRANCH  12  30
ENDBRANCH   4   6
TORSDOF 5
ENDMDL
MODEL      112
REMARK 921   NORMALIZED FREE ENERGY PREDICTED BY IDOCK:   -4.19 KCAL/MOL
REMARK 922        TOTAL FREE ENERGY PREDICTED BY IDOCK:   -6.31 KCAL/MOL
REMARK 923 INTER-LIGAND FREE ENERGY PREDICTED BY IDOCK:   -5.48 KCAL/MOL
REMARK 924 INTRA-LIGAND FREE ENERGY PREDICTED BY IDOCK:   -0.83 KCAL/MOL
REMARK 927      BINDING AFFINITY PREDICTED BY RF-SCORE:    0.00 PKD
ROOT
HETATM    1  C   UNL     1      -5.975   1.952  63.706  1.00  0.00    -0.009 C  
HETATM    2  N   UNL     1      -6.239   3.338  64.053  1.00  0.00    -0.022 N  
HETATM    3  C   UNL     1      -7.072   4.094  63.121  1.00  0.00    -0.044 C  
HETATM    4  C   UNL     1      -6.049   3.694  65.406  1.00  0.00    -0.024 C  
HETATM    5  O   UNL     1      -5.713   2.842  66.229  1.00  0.00    -0.020 OA 
ENDROOT
BRANCH   4   6
HETATM    6  C   UNL     1      -6.213   5.096  65.779  1.00  0.00    -0.034 A  
HETATM    7  C   UNL     1      -5.294   6.114  65.559  1.00  0.00    -0.013 A  
HETATM    8  C   UNL     1      -5.825   7.326  66.013  1.00  0.00    -0.036 A  
HETATM    9  C   UNL     1      -5.423   8.650  66.003  1.00  0.00    -0.034 A  
HETATM   10  N   UNL     1      -6.163   9.574  66.642  1.00  0.00    -0.064 NA 
HETATM   11  C   UNL     1      -7.277   9.184  67.294  1.00  0.00    -0.083 A  
HETATM   12  N   UNL     1      -7.245   5.668  66.541  1.00  0.00    -0.076 NA 
HETATM   13  N   UNL     1      -7.776   7.931  67.299  1.00  0.00    -0.103 NA 
HETATM   14  C   UNL     1      -7.009   7.034  66.648  1.00  0.00    -0.073 A  
BRANCH  11  15
HETATM   15  N   UNL     1      -7.873  10.201  68.030  1.00  0.00    -0.096 NA 
HETATM   16  H   UNL     1      -7.634  10.200  69.022  1.00  0.00     0.000 HD 
BRANCH  15  17
HETATM   17  C   UNL     1      -8.738  11.217  67.651  1.00  0.00    -0.131 A  
HETATM   18  C   UNL     1      -8.706  12.487  68.199  1.00  0.00    -0.190 A  
HETATM   19  C   UNL     1      -9.580  13.476  67.745  1.00  0.00    -0.219 A  
HETATM   20  N   UNL     1      -9.639  10.912  66.696  1.00  0.00    -0.182 NA 
HETATM   21  C   UNL     1     -10.514  13.217  66.746  1.00  0.00    -0.261 A  
HETATM   22  C   UNL     1     -10.477  11.902  66.272  1.00  0.00    -0.239 A  
BRANCH  21  23
HETATM   23  N   UNL     1     -11.367  14.182  66.254  1.00  0.00    -0.329 NA 
HETATM   24  C   UNL     1     -11.010  15.612  66.269  1.00  0.00    -0.201 C  
HETATM   25  C   UNL     1     -10.827  16.137  64.823  1.00  0.00    -0.262 C  
HETATM   26  N   UNL     1     -11.984  15.876  63.944  1.00  0.00    -1.249 NA 
HETATM   27  C   UNL     1     -12.289  14.431  63.957  1.00  0.00    -0.205 C  
HETATM   28  H   UNL     1     -11.839  16.232  62.999  1.00  0.00     0.000 HD 
HETATM   29  C   UNL     1     -12.516  13.877  65.381  1.00  0.00    -0.501 C  
ENDBRANCH  21  23
ENDBRANCH  15  17
ENDBRANCH  11  15
BRANCH  12  30
HETATM   30  C   UNL     1      -8.349   4.964  67.188  1.00  0.00    -0.106 C  
HETATM   31  C   UNL     1      -9.527   4.407  69.216  1.00  0.00    -0.249 C  
HETATM   32  C   UNL     1      -9.735   5.635  67.113  1.00  0.00    -0.151 C  
HETATM   33  C   UNL     1     -10.420   5.379  68.460  1.00  0.00    -0.192 C  
HETATM   34  C   UNL     1      -8.129   4.683  68.682  1.00  0.00    -0.082 C  
ENDBRANCH  12  30
ENDBRANCH   4   6
TORSDOF 5
ENDMDL
MODEL      113
REMARK 921   NORMALIZED FREE ENERGY PREDICTED BY IDOCK:   -4.15 KCAL/MOL
REMARK 922        TOTAL FREE ENERGY PREDICTED BY IDOCK:   -6.25 KCAL/MOL
REMARK 923 INTER-LIGAND FREE ENERGY PREDICTED BY IDOCK:   -5.73 KCAL/MOL
REMARK 924 INTRA-LIGAND FREE ENERGY PREDICTED BY IDOCK:   -0.52 KCAL/MOL
REMARK 927      BINDING AFFINITY PREDICTED BY RF-SCORE:    0.00 PKD
ROOT
HETATM    1  C   UNL     1      -5.202   1.830  63.987  1.00  0.00    -0.004 C  
HETATM    2  N   UNL     1      -5.892   3.038  64.407  1.00  0.00    -0.013 N  
HETATM    3  C   UNL     1      -6.219   3.998  63.357  1.00  0.00    -0.018 C  
HETATM    4  C   UNL     1      -6.546   2.983  65.657  1.00  0.00    -0.036 C  
HETATM    5  O   UNL     1      -6.543   1.942  66.314  1.00  0.00    -0.026 OA 
ENDROOT
BRANCH   4   6
HETATM    6  C   UNL     1      -7.172   4.203  66.159  1.00  0.00    -0.068 A  
HETATM    7  C   UNL     1      -6.616   5.092  67.071  1.00  0.00    -0.053 A  
HETATM    8  C   UNL     1      -7.496   6.161  67.272  1.00  0.00    -0.081 A  
HETATM    9  C   UNL     1      -7.469   7.347  67.986  1.00  0.00    -0.105 A  
HETATM   10  N   UNL     1      -8.571   8.117  68.036  1.00  0.00    -0.129 NA 
HETATM   11  C   UNL     1      -9.686   7.708  67.399  1.00  0.00    -0.161 A  
HETATM   12  N   UNL     1      -8.486   4.647  65.941  1.00  0.00    -0.114 NA 
HETATM   13  N   UNL     1      -9.780   6.605  66.628  1.00  0.00    -0.171 NA 
HETATM   14  C   UNL     1      -8.658   5.859  66.601  1.00  0.00    -0.119 A  
BRANCH  11  15
HETATM   15  N   UNL     1     -10.792   8.514  67.642  1.00  0.00    -0.494 NA 
HETATM   16  H   UNL     1     -11.614   8.012  67.980  1.00  0.00     0.000 HD 
BRANCH  15  17
HETATM   17  C   UNL     1     -10.972   9.883  67.506  1.00  0.00    -0.173 A  
HETATM   18  C   UNL     1     -11.348  10.708  68.551  1.00  0.00    -0.348 A  
HETATM   19  C   UNL     1     -11.474  12.084  68.356  1.00  0.00    -0.356 A  
HETATM   20  N   UNL     1     -10.758  10.396  66.278  1.00  0.00    -0.100 NA 
HETATM   21  C   UNL     1     -11.245  12.665  67.113  1.00  0.00    -0.300 A  
HETATM   22  C   UNL     1     -10.889  11.745  66.122  1.00  0.00    -0.291 A  
BRANCH  21  23
HETATM   23  N   UNL     1     -11.330  14.025  66.897  1.00  0.00    -0.316 NA 
HETATM   24  C   UNL     1     -10.350  14.963  67.475  1.00  0.00    -0.239 C  
HETATM   25  C   UNL     1      -9.507  15.620  66.353  1.00  0.00    -0.292 C  
HETATM   26  N   UNL     1     -10.315  16.261  65.298  1.00  0.00    -0.596 NA 
HETATM   27  C   UNL     1     -11.269  15.275  64.748  1.00  0.00    -0.396 C  
HETATM   28  H   UNL     1      -9.737  16.686  64.573  1.00  0.00     0.000 HD 
HETATM   29  C   UNL     1     -12.155  14.625  65.833  1.00  0.00    -0.205 C  
ENDBRANCH  21  23
ENDBRANCH  15  17
ENDBRANCH  11  15
BRANCH  12  30
HETATM   30  C   UNL     1      -9.539   3.943  65.213  1.00  0.00    -0.185 C  
HETATM   31  C   UNL     1     -10.455   3.229  63.101  1.00  0.00    -0.211 C  
HETATM   32  C   UNL     1      -9.436   2.406  65.165  1.00  0.00    -0.000 C  
HETATM   33  C   UNL     1      -9.902   1.979  63.768  1.00  0.00    -0.130 C  
HETATM   34  C   UNL     1      -9.687   4.373  63.745  1.00  0.00    -0.000 C  
ENDBRANCH  12  30
ENDBRANCH   4   6
TORSDOF 5
ENDMDL
MODEL      114
REMARK 921   NORMALIZED FREE ENERGY PREDICTED BY IDOCK:   -4.11 KCAL/MOL
REMARK 922        TOTAL FREE ENERGY PREDICTED BY IDOCK:   -6.20 KCAL/MOL
REMARK 923 INTER-LIGAND FREE ENERGY PREDICTED BY IDOCK:   -5.38 KCAL/MOL
REMARK 924 INTRA-LIGAND FREE ENERGY PREDICTED BY IDOCK:   -0.82 KCAL/MOL
REMARK 927      BINDING AFFINITY PREDICTED BY RF-SCORE:    0.00 PKD
ROOT
HETATM    1  C   UNL     1      -9.637   2.739  67.688  1.00  0.00     0.017 C  
HETATM    2  N   UNL     1      -9.441   4.092  68.183  1.00  0.00    -0.165 N  
HETATM    3  C   UNL     1      -8.785   4.220  69.481  1.00  0.00    -0.082 C  
HETATM    4  C   UNL     1      -9.499   5.125  67.223  1.00  0.00    -0.131 C  
HETATM    5  O   UNL     1      -9.670   4.858  66.034  1.00  0.00    -0.162 OA 
ENDROOT
BRANCH   4   6
HETATM    6  C   UNL     1      -9.401   6.505  67.692  1.00  0.00    -0.118 A  
HETATM    7  C   UNL     1     -10.453   7.294  68.137  1.00  0.00    -0.244 A  
HETATM    8  C   UNL     1      -9.961   8.539  68.543  1.00  0.00    -0.201 A  
HETATM    9  C   UNL     1     -10.497   9.677  69.122  1.00  0.00    -0.214 A  
HETATM   10  N   UNL     1      -9.723  10.765  69.289  1.00  0.00    -0.168 NA 
HETATM   11  C   UNL     1      -8.441  10.726  68.873  1.00  0.00    -0.149 A  
HETATM   12  N   UNL     1      -8.276   7.346  67.659  1.00  0.00    -0.117 NA 
HETATM   13  N   UNL     1      -7.822   9.643  68.362  1.00  0.00    -0.085 NA 
HETATM   14  C   UNL     1      -8.627   8.573  68.211  1.00  0.00    -0.139 A  
BRANCH  11  15
HETATM   15  N   UNL     1      -7.791  11.951  68.969  1.00  0.00    -0.344 NA 
HETATM   16  H   UNL     1      -6.998  11.959  69.612  1.00  0.00     0.000 HD 
BRANCH  15  17
HETATM   17  C   UNL     1      -8.031  13.165  68.342  1.00  0.00    -0.130 A  
HETATM   18  C   UNL     1      -7.613  14.381  68.853  1.00  0.00    -0.128 A  
HETATM   19  C   UNL     1      -7.854  15.564  68.152  1.00  0.00    -0.129 A  
HETATM   20  N   UNL     1      -8.707  13.114  67.177  1.00  0.00    -0.213 NA 
HETATM   21  C   UNL     1      -8.530  15.562  66.935  1.00  0.00    -0.254 A  
HETATM   22  C   UNL     1      -8.924  14.288  66.516  1.00  0.00    -0.132 A  
BRANCH  21  23
HETATM   23  N   UNL     1      -8.753  16.710  66.205  1.00  0.00    -0.427 NA 
HETATM   24  C   UNL     1     -10.115  17.171  65.885  1.00  0.00    -0.240 C  
HETATM   25  C   UNL     1     -10.419  18.503  66.616  1.00  0.00    -0.398 C  
HETATM   26  N   UNL     1      -9.417  19.559  66.370  1.00  0.00    -0.368 NA 
HETATM   27  C   UNL     1      -8.075  19.047  66.718  1.00  0.00    -0.269 C  
HETATM   28  H   UNL     1      -9.640  20.425  66.861  1.00  0.00     0.000 HD 
HETATM   29  C   UNL     1      -7.720  17.739  65.979  1.00  0.00    -0.188 C  
ENDBRANCH  21  23
ENDBRANCH  15  17
ENDBRANCH  11  15
BRANCH  12  30
HETATM   30  C   UNL     1      -6.970   7.039  67.082  1.00  0.00    -0.078 C  
HETATM   31  C   UNL     1      -5.234   5.419  66.664  1.00  0.00    -0.008 C  
HETATM   32  C   UNL     1      -6.928   6.794  65.560  1.00  0.00    -0.063 C  
HETATM   33  C   UNL     1      -5.911   5.670  65.325  1.00  0.00    -0.022 C  
HETATM   34  C   UNL     1      -6.281   5.811  67.697  1.00  0.00    -0.030 C  
ENDBRANCH  12  30
ENDBRANCH   4   6
TORSDOF 5
ENDMDL
MODEL      115
REMARK 921   NORMALIZED FREE ENERGY PREDICTED BY IDOCK:   -3.95 KCAL/MOL
REMARK 922        TOTAL FREE ENERGY PREDICTED BY IDOCK:   -6.00 KCAL/MOL
REMARK 923 INTER-LIGAND FREE ENERGY PREDICTED BY IDOCK:   -6.14 KCAL/MOL
REMARK 924 INTRA-LIGAND FREE ENERGY PREDICTED BY IDOCK:    0.14 KCAL/MOL
REMARK 927      BINDING AFFINITY PREDICTED BY RF-SCORE:    0.00 PKD
ROOT
HETATM    1  C   UNL     1     -12.291  14.449  63.628  1.00  0.00     0.249 C  
HETATM    2  N   UNL     1     -11.878  13.099  63.972  1.00  0.00    -0.425 N  
HETATM    3  C   UNL     1     -12.527  12.016  63.240  1.00  0.00    -0.425 C  
HETATM    4  C   UNL     1     -10.637  12.971  64.633  1.00  0.00    -0.378 C  
HETATM    5  O   UNL     1      -9.949  13.967  64.858  1.00  0.00    -0.311 OA 
ENDROOT
BRANCH   4   6
HETATM    6  C   UNL     1     -10.230  11.642  65.079  1.00  0.00    -0.275 A  
HETATM    7  C   UNL     1      -9.508  10.716  64.336  1.00  0.00    -0.317 A  
HETATM    8  C   UNL     1      -9.272   9.578  65.116  1.00  0.00    -0.305 A  
HETATM    9  C   UNL     1      -8.574   8.394  64.956  1.00  0.00    -0.106 A  
HETATM   10  N   UNL     1      -8.647   7.446  65.908  1.00  0.00    -0.153 NA 
HETATM   11  C   UNL     1      -9.412   7.667  66.995  1.00  0.00    -0.163 A  
HETATM   12  N   UNL     1     -10.591  10.985  66.267  1.00  0.00    -0.254 NA 
HETATM   13  N   UNL     1     -10.069   8.814  67.263  1.00  0.00    -0.214 NA 
HETATM   14  C   UNL     1      -9.973   9.740  66.288  1.00  0.00    -0.262 A  
BRANCH  11  15
HETATM   15  N   UNL     1      -9.518   6.563  67.833  1.00  0.00    -0.121 NA 
HETATM   16  H   UNL     1     -10.031   5.777  67.431  1.00  0.00     0.000 HD 
BRANCH  15  17
HETATM   17  C   UNL     1      -9.049   6.343  69.120  1.00  0.00    -0.131 A  
HETATM   18  C   UNL     1      -9.284   7.210  70.172  1.00  0.00    -0.155 A  
HETATM   19  C   UNL     1      -8.816   6.910  71.453  1.00  0.00    -0.133 A  
HETATM   20  N   UNL     1      -8.334   5.217  69.312  1.00  0.00    -0.091 NA 
HETATM   21  C   UNL     1      -8.090   5.750  71.708  1.00  0.00    -0.118 A  
HETATM   22  C   UNL     1      -7.892   4.954  70.576  1.00  0.00    -0.066 A  
BRANCH  21  23
HETATM   23  N   UNL     1      -7.644   5.412  72.968  1.00  0.00    -0.096 NA 
HETATM   24  C   UNL     1      -8.026   4.142  73.610  1.00  0.00    -0.089 C  
HETATM   25  C   UNL     1      -6.788   3.224  73.768  1.00  0.00    -0.036 C  
HETATM   26  N   UNL     1      -5.656   3.865  74.465  1.00  0.00    -0.004 NA 
HETATM   27  C   UNL     1      -5.309   5.124  73.774  1.00  0.00    -0.018 C  
HETATM   28  H   UNL     1      -4.855   3.240  74.557  1.00  0.00     0.000 HD 
HETATM   29  C   UNL     1      -6.510   6.083  73.631  1.00  0.00    -0.070 C  
ENDBRANCH  21  23
ENDBRANCH  15  17
ENDBRANCH  11  15
BRANCH  12  30
HETATM   30  C   UNL     1     -11.516  11.470  67.288  1.00  0.00    -0.263 C  
HETATM   31  C   UNL     1     -12.158  11.550  69.610  1.00  0.00    -0.363 C  
HETATM   32  C   UNL     1     -11.316  12.921  67.770  1.00  0.00    -0.343 C  
HETATM   33  C   UNL     1     -11.604  12.927  69.275  1.00  0.00    -0.368 C  
HETATM   34  C   UNL     1     -11.533  10.628  68.573  1.00  0.00    -0.333 C  
ENDBRANCH  12  30
ENDBRANCH   4   6
TORSDOF 5
ENDMDL
MODEL      116
REMARK 921   NORMALIZED FREE ENERGY PREDICTED BY IDOCK:   -3.93 KCAL/MOL
REMARK 922        TOTAL FREE ENERGY PREDICTED BY IDOCK:   -5.97 KCAL/MOL
REMARK 923 INTER-LIGAND FREE ENERGY PREDICTED BY IDOCK:   -5.09 KCAL/MOL
REMARK 924 INTRA-LIGAND FREE ENERGY PREDICTED BY IDOCK:   -0.87 KCAL/MOL
REMARK 927      BINDING AFFINITY PREDICTED BY RF-SCORE:    0.00 PKD
ROOT
HETATM    1  C   UNL     1     -12.186  14.795  64.537  1.00  0.00    -0.428 C  
HETATM    2  N   UNL     1     -11.025  14.181  65.159  1.00  0.00    -0.336 N  
HETATM    3  C   UNL     1     -10.299  13.201  64.356  1.00  0.00    -0.368 C  
HETATM    4  C   UNL     1     -10.466  14.867  66.260  1.00  0.00    -0.302 C  
HETATM    5  O   UNL     1     -10.938  15.944  66.624  1.00  0.00    -0.262 OA 
ENDROOT
BRANCH   4   6
HETATM    6  C   UNL     1      -9.357  14.237  66.971  1.00  0.00    -0.241 A  
HETATM    7  C   UNL     1      -8.035  14.664  66.967  1.00  0.00    -0.106 A  
HETATM    8  C   UNL     1      -7.276  13.834  67.799  1.00  0.00    -0.169 A  
HETATM    9  C   UNL     1      -5.963  13.801  68.236  1.00  0.00    -0.108 A  
HETATM   10  N   UNL     1      -5.536  12.764  68.978  1.00  0.00    -0.068 NA 
HETATM   11  C   UNL     1      -6.397  11.768  69.269  1.00  0.00    -0.103 A  
HETATM   12  N   UNL     1      -9.366  13.022  67.675  1.00  0.00    -0.194 NA 
HETATM   13  N   UNL     1      -7.706  11.752  68.942  1.00  0.00    -0.087 NA 
HETATM   14  C   UNL     1      -8.097  12.807  68.200  1.00  0.00    -0.158 A  
BRANCH  11  15
HETATM   15  N   UNL     1      -5.802  10.691  69.916  1.00  0.00    -0.057 NA 
HETATM   16  H   UNL     1      -4.886  10.894  70.317  1.00  0.00     0.000 HD 
BRANCH  15  17
HETATM   17  C   UNL     1      -6.237   9.388  70.112  1.00  0.00    -0.055 A  
HETATM   18  C   UNL     1      -6.912   8.975  71.246  1.00  0.00    -0.089 A  
HETATM   19  C   UNL     1      -7.358   7.657  71.363  1.00  0.00    -0.074 A  
HETATM   20  N   UNL     1      -5.970   8.513  69.122  1.00  0.00    -0.041 NA 
HETATM   21  C   UNL     1      -7.125   6.720  70.360  1.00  0.00    -0.068 A  
HETATM   22  C   UNL     1      -6.421   7.233  69.267  1.00  0.00    -0.036 A  
BRANCH  21  23
HETATM   23  N   UNL     1      -7.582   5.421  70.433  1.00  0.00    -0.074 NA 
HETATM   24  C   UNL     1      -8.995   5.111  70.714  1.00  0.00    -0.134 C  
HETATM   25  C   UNL     1      -9.659   4.457  69.477  1.00  0.00    -0.201 C  
HETATM   26  N   UNL     1      -8.936   3.276  68.966  1.00  0.00    -0.115 NA 
HETATM   27  C   UNL     1      -7.532   3.646  68.691  1.00  0.00    -0.054 C  
HETATM   28  H   UNL     1      -9.394   2.864  68.153  1.00  0.00     0.000 HD 
HETATM   29  C   UNL     1      -6.823   4.267  69.914  1.00  0.00    -0.041 C  
ENDBRANCH  21  23
ENDBRANCH  15  17
ENDBRANCH  11  15
BRANCH  12  30
HETATM   30  C   UNL     1     -10.481  12.086  67.790  1.00  0.00    -0.203 C  
HETATM   31  C   UNL     1     -11.240   9.815  68.074  1.00  0.00    -0.059 C  
HETATM   32  C   UNL     1     -11.175  12.002  69.165  1.00  0.00    -0.305 C  
HETATM   33  C   UNL     1     -11.536  10.529  69.385  1.00  0.00    -0.329 C  
HETATM   34  C   UNL     1     -10.123  10.633  67.441  1.00  0.00    -0.231 C  
ENDBRANCH  12  30
ENDBRANCH   4   6
TORSDOF 5
ENDMDL
MODEL      117
REMARK 921   NORMALIZED FREE ENERGY PREDICTED BY IDOCK:   -3.88 KCAL/MOL
REMARK 922        TOTAL FREE ENERGY PREDICTED BY IDOCK:   -5.91 KCAL/MOL
REMARK 923 INTER-LIGAND FREE ENERGY PREDICTED BY IDOCK:   -5.22 KCAL/MOL
REMARK 924 INTRA-LIGAND FREE ENERGY PREDICTED BY IDOCK:   -0.69 KCAL/MOL
REMARK 927      BINDING AFFINITY PREDICTED BY RF-SCORE:    0.00 PKD
ROOT
HETATM    1  C   UNL     1      -6.883  17.074  69.276  1.00  0.00    -0.219 C  
HETATM    2  N   UNL     1      -7.721  15.962  68.860  1.00  0.00    -0.179 N  
HETATM    3  C   UNL     1      -8.984  15.797  69.574  1.00  0.00    -0.183 C  
HETATM    4  C   UNL     1      -7.465  15.428  67.578  1.00  0.00    -0.189 C  
HETATM    5  O   UNL     1      -6.597  15.926  66.862  1.00  0.00    -0.282 OA 
ENDROOT
BRANCH   4   6
HETATM    6  C   UNL     1      -8.221  14.251  67.160  1.00  0.00    -0.160 A  
HETATM    7  C   UNL     1      -9.463  14.255  66.539  1.00  0.00    -0.306 A  
HETATM    8  C   UNL     1      -9.844  12.939  66.253  1.00  0.00    -0.273 A  
HETATM    9  C   UNL     1     -10.905  12.332  65.604  1.00  0.00    -0.285 A  
HETATM   10  N   UNL     1     -11.004  10.991  65.604  1.00  0.00    -0.093 NA 
HETATM   11  C   UNL     1     -10.071  10.265  66.251  1.00  0.00    -0.236 A  
HETATM   12  N   UNL     1      -7.923  12.903  67.417  1.00  0.00    -0.177 NA 
HETATM   13  N   UNL     1      -8.972  10.768  66.850  1.00  0.00    -0.138 NA 
HETATM   14  C   UNL     1      -8.906  12.114  66.830  1.00  0.00    -0.198 A  
BRANCH  11  15
HETATM   15  N   UNL     1     -10.360   8.906  66.300  1.00  0.00    -0.305 NA 
HETATM   16  H   UNL     1     -10.793   8.536  65.453  1.00  0.00     0.000 HD 
BRANCH  15  17
HETATM   17  C   UNL     1     -10.163   7.965  67.300  1.00  0.00    -0.273 A  
HETATM   18  C   UNL     1      -9.061   7.963  68.135  1.00  0.00    -0.133 A  
HETATM   19  C   UNL     1      -8.942   7.010  69.149  1.00  0.00    -0.134 A  
HETATM   20  N   UNL     1     -11.118   7.023  67.432  1.00  0.00    -0.249 NA 
HETATM   21  C   UNL     1      -9.911   6.030  69.340  1.00  0.00    -0.174 A  
HETATM   22  C   UNL     1     -10.973   6.107  68.434  1.00  0.00    -0.305 A  
BRANCH  21  23
HETATM   23  N   UNL     1      -9.838   5.096  70.352  1.00  0.00    -0.200 NA 
HETATM   24  C   UNL     1      -9.555   3.676  70.077  1.00  0.00    -0.173 C  
HETATM   25  C   UNL     1      -8.175   3.278  70.659  1.00  0.00    -0.056 C  
HETATM   26  N   UNL     1      -8.021   3.594  72.093  1.00  0.00    -0.070 NA 
HETATM   27  C   UNL     1      -8.304   5.028  72.309  1.00  0.00    -0.121 C  
HETATM   28  H   UNL     1      -7.106   3.322  72.452  1.00  0.00     0.000 HD 
HETATM   29  C   UNL     1      -9.688   5.456  71.775  1.00  0.00    -0.162 C  
ENDBRANCH  21  23
ENDBRANCH  15  17
ENDBRANCH  11  15
BRANCH  12  30
HETATM   30  C   UNL     1      -6.819  12.388  68.223  1.00  0.00    -0.080 C  
HETATM   31  C   UNL     1      -6.086  11.110  70.131  1.00  0.00    -0.146 C  
HETATM   32  C   UNL     1      -6.097  11.135  67.687  1.00  0.00    -0.049 C  
HETATM   33  C   UNL     1      -5.753  10.272  68.906  1.00  0.00    -0.041 C  
HETATM   34  C   UNL     1      -7.205  12.031  69.667  1.00  0.00     0.369 C  
ENDBRANCH  12  30
ENDBRANCH   4   6
TORSDOF 5
ENDMDL
MODEL      118
REMARK 921   NORMALIZED FREE ENERGY PREDICTED BY IDOCK:   -3.80 KCAL/MOL
REMARK 922        TOTAL FREE ENERGY PREDICTED BY IDOCK:   -5.81 KCAL/MOL
REMARK 923 INTER-LIGAND FREE ENERGY PREDICTED BY IDOCK:   -6.80 KCAL/MOL
REMARK 924 INTRA-LIGAND FREE ENERGY PREDICTED BY IDOCK:    0.99 KCAL/MOL
REMARK 927      BINDING AFFINITY PREDICTED BY RF-SCORE:    0.00 PKD
ROOT
HETATM    1  C   UNL     1     -13.263  15.916  73.230  1.00  0.00    -0.595 C  
HETATM    2  N   UNL     1     -13.113  14.813  72.295  1.00  0.00    -0.331 N  
HETATM    3  C   UNL     1     -14.285  13.964  72.100  1.00  0.00    -0.501 C  
HETATM    4  C   UNL     1     -12.049  14.912  71.373  1.00  0.00    -0.337 C  
HETATM    5  O   UNL     1     -11.328  15.910  71.363  1.00  0.00    -0.382 OA 
ENDROOT
BRANCH   4   6
HETATM    6  C   UNL     1     -11.807  13.784  70.479  1.00  0.00    -0.223 A  
HETATM    7  C   UNL     1     -12.175  12.464  70.709  1.00  0.00    -0.336 A  
HETATM    8  C   UNL     1     -11.812  11.682  69.607  1.00  0.00    -0.419 A  
HETATM    9  C   UNL     1     -11.974  10.358  69.235  1.00  0.00    -0.033 A  
HETATM   10  N   UNL     1     -11.388   9.909  68.111  1.00  0.00    -0.074 NA 
HETATM   11  C   UNL     1     -10.641  10.758  67.377  1.00  0.00    -0.242 A  
HETATM   12  N   UNL     1     -11.048  13.771  69.297  1.00  0.00    -0.238 NA 
HETATM   13  N   UNL     1     -10.486  12.074  67.629  1.00  0.00    -0.202 NA 
HETATM   14  C   UNL     1     -11.088  12.488  68.761  1.00  0.00    -0.270 A  
BRANCH  11  15
HETATM   15  N   UNL     1      -9.975  10.142  66.323  1.00  0.00    -0.229 NA 
HETATM   16  H   UNL     1     -10.123  10.584  65.414  1.00  0.00     0.000 HD 
BRANCH  15  17
HETATM   17  C   UNL     1      -9.145   9.032  66.291  1.00  0.00    -0.179 A  
HETATM   18  C   UNL     1      -7.765   9.115  66.262  1.00  0.00    -0.096 A  
HETATM   19  C   UNL     1      -6.985   7.957  66.270  1.00  0.00    -0.063 A  
HETATM   20  N   UNL     1      -9.753   7.829  66.292  1.00  0.00    -0.136 NA 
HETATM   21  C   UNL     1      -7.565   6.692  66.292  1.00  0.00    -0.090 A  
HETATM   22  C   UNL     1      -8.962   6.717  66.302  1.00  0.00    -0.152 A  
BRANCH  21  23
HETATM   23  N   UNL     1      -6.821   5.532  66.334  1.00  0.00    -0.058 NA 
HETATM   24  C   UNL     1      -6.139   5.094  67.565  1.00  0.00    -0.030 C  
HETATM   25  C   UNL     1      -6.778   3.788  68.100  1.00  0.00    -0.046 C  
HETATM   26  N   UNL     1      -6.843   2.703  67.101  1.00  0.00    -0.044 NA 
HETATM   27  C   UNL     1      -7.545   3.193  65.897  1.00  0.00    -0.074 C  
HETATM   28  H   UNL     1      -7.267   1.855  67.478  1.00  0.00     0.000 HD 
HETATM   29  C   UNL     1      -6.914   4.474  65.310  1.00  0.00    -0.062 C  
ENDBRANCH  21  23
ENDBRANCH  15  17
ENDBRANCH  11  15
BRANCH  12  30
HETATM   30  C   UNL     1     -10.276  14.878  68.740  1.00  0.00    -0.243 C  
HETATM   31  C   UNL     1      -8.982  15.770  66.912  1.00  0.00    -0.266 C  
HETATM   32  C   UNL     1     -11.080  16.047  68.135  1.00  0.00    -0.344 C  
HETATM   33  C   UNL     1     -10.307  16.517  66.898  1.00  0.00    -0.300 C  
HETATM   34  C   UNL     1      -9.289  14.467  67.636  1.00  0.00    -0.202 C  
ENDBRANCH  12  30
ENDBRANCH   4   6
TORSDOF 5
ENDMDL
MODEL      119
REMARK 921   NORMALIZED FREE ENERGY PREDICTED BY IDOCK:   -3.73 KCAL/MOL
REMARK 922        TOTAL FREE ENERGY PREDICTED BY IDOCK:   -5.72 KCAL/MOL
REMARK 923 INTER-LIGAND FREE ENERGY PREDICTED BY IDOCK:   -5.10 KCAL/MOL
REMARK 924 INTRA-LIGAND FREE ENERGY PREDICTED BY IDOCK:   -0.62 KCAL/MOL
REMARK 927      BINDING AFFINITY PREDICTED BY RF-SCORE:    0.00 PKD
ROOT
HETATM    1  C   UNL     1      -6.190  21.004  67.589  1.00  0.00    -0.347 C  
HETATM    2  N   UNL     1      -6.208  19.552  67.646  1.00  0.00    -0.202 N  
HETATM    3  C   UNL     1      -5.577  18.851  66.532  1.00  0.00    -0.156 C  
HETATM    4  C   UNL     1      -6.428  18.977  68.917  1.00  0.00    -0.263 C  
HETATM    5  O   UNL     1      -6.557  19.695  69.909  1.00  0.00    -0.320 OA 
ENDROOT
BRANCH   4   6
HETATM    6  C   UNL     1      -6.546  17.524  69.003  1.00  0.00    -0.243 A  
HETATM    7  C   UNL     1      -5.558  16.647  69.432  1.00  0.00    -0.151 A  
HETATM    8  C   UNL     1      -6.058  15.340  69.416  1.00  0.00    -0.117 A  
HETATM    9  C   UNL     1      -5.586  14.093  69.788  1.00  0.00    -0.101 A  
HETATM   10  N   UNL     1      -6.325  12.999  69.530  1.00  0.00    -0.115 NA 
HETATM   11  C   UNL     1      -7.508  13.142  68.900  1.00  0.00     0.011 A  
HETATM   12  N   UNL     1      -7.604  16.720  68.550  1.00  0.00    -0.205 NA 
HETATM   13  N   UNL     1      -8.073  14.320  68.564  1.00  0.00    -0.143 NA 
HETATM   14  C   UNL     1      -7.305  15.393  68.838  1.00  0.00    -0.147 A  
BRANCH  11  15
HETATM   15  N   UNL     1      -8.107  11.933  68.565  1.00  0.00    -0.202 NA 
HETATM   16  H   UNL     1      -8.788  11.995  67.806  1.00  0.00     0.000 HD 
BRANCH  15  17
HETATM   17  C   UNL     1      -7.941  10.656  69.082  1.00  0.00    -0.139 A  
HETATM   18  C   UNL     1      -6.831   9.872  68.826  1.00  0.00    -0.054 A  
HETATM   19  C   UNL     1      -6.707   8.610  69.411  1.00  0.00    -0.049 A  
HETATM   20  N   UNL     1      -8.933  10.196  69.870  1.00  0.00    -0.144 NA 
HETATM   21  C   UNL     1      -7.693   8.097  70.248  1.00  0.00    -0.085 A  
HETATM   22  C   UNL     1      -8.780   8.959  70.426  1.00  0.00    -0.180 A  
BRANCH  21  23
HETATM   23  N   UNL     1      -7.584   6.869  70.865  1.00  0.00    -0.086 NA 
HETATM   24  C   UNL     1      -6.296   6.375  71.384  1.00  0.00    -0.045 C  
HETATM   25  C   UNL     1      -6.337   6.283  72.930  1.00  0.00    -0.063 C  
HETATM   26  N   UNL     1      -7.470   5.492  73.449  1.00  0.00    -0.095 NA 
HETATM   27  C   UNL     1      -8.732   6.037  72.907  1.00  0.00    -0.123 C  
HETATM   28  H   UNL     1      -7.475   5.446  74.468  1.00  0.00     0.000 HD 
HETATM   29  C   UNL     1      -8.744   6.109  71.365  1.00  0.00    -0.135 C  
ENDBRANCH  21  23
ENDBRANCH  15  17
ENDBRANCH  11  15
BRANCH  12  30
HETATM   30  C   UNL     1      -8.794  17.163  67.828  1.00  0.00    -0.225 C  
HETATM   31  C   UNL     1     -10.173  17.028  65.855  1.00  0.00    -0.311 C  
HETATM   32  C   UNL     1     -10.134  16.526  68.247  1.00  0.00    -0.259 C  
HETATM   33  C   UNL     1     -10.948  16.329  66.963  1.00  0.00    -0.086 C  
HETATM   34  C   UNL     1      -8.722  16.959  66.307  1.00  0.00    -0.321 C  
ENDBRANCH  12  30
ENDBRANCH   4   6
TORSDOF 5
ENDMDL
MODEL      120
REMARK 921   NORMALIZED FREE ENERGY PREDICTED BY IDOCK:   -3.62 KCAL/MOL
REMARK 922        TOTAL FREE ENERGY PREDICTED BY IDOCK:   -5.57 KCAL/MOL
REMARK 923 INTER-LIGAND FREE ENERGY PREDICTED BY IDOCK:   -6.13 KCAL/MOL
REMARK 924 INTRA-LIGAND FREE ENERGY PREDICTED BY IDOCK:    0.56 KCAL/MOL
REMARK 927      BINDING AFFINITY PREDICTED BY RF-SCORE:    0.00 PKD
ROOT
HETATM    1  C   UNL     1     -10.568  18.251  66.110  1.00  0.00    -0.303 C  
HETATM    2  N   UNL     1      -9.665  17.169  66.465  1.00  0.00    -0.274 N  
HETATM    3  C   UNL     1      -8.246  17.396  66.209  1.00  0.00    -0.253 C  
HETATM    4  C   UNL     1     -10.158  16.218  67.385  1.00  0.00    -0.260 C  
HETATM    5  O   UNL     1     -11.281  16.348  67.870  1.00  0.00    -0.295 OA 
ENDROOT
BRANCH   4   6
HETATM    6  C   UNL     1      -9.318  15.064  67.697  1.00  0.00    -0.194 A  
HETATM    7  C   UNL     1      -8.161  15.079  68.466  1.00  0.00    -0.151 A  
HETATM    8  C   UNL     1      -7.661  13.777  68.576  1.00  0.00    -0.134 A  
HETATM    9  C   UNL     1      -6.613  13.171  69.249  1.00  0.00    -0.091 A  
HETATM   10  N   UNL     1      -6.356  11.867  69.039  1.00  0.00    -0.073 NA 
HETATM   11  C   UNL     1      -7.118  11.181  68.165  1.00  0.00    -0.071 A  
HETATM   12  N   UNL     1      -9.423  13.761  67.184  1.00  0.00    -0.235 NA 
HETATM   13  N   UNL     1      -8.196  11.673  67.520  1.00  0.00    -0.141 NA 
HETATM   14  C   UNL     1      -8.424  12.981  67.755  1.00  0.00    -0.188 A  
BRANCH  11  15
HETATM   15  N   UNL     1      -6.666   9.888  67.930  1.00  0.00    -0.067 NA 
HETATM   16  H   UNL     1      -5.661   9.816  67.762  1.00  0.00     0.000 HD 
BRANCH  15  17
HETATM   17  C   UNL     1      -7.342   8.677  67.884  1.00  0.00    -0.092 A  
HETATM   18  C   UNL     1      -8.122   8.203  68.923  1.00  0.00    -0.116 A  
HETATM   19  C   UNL     1      -8.809   6.993  68.797  1.00  0.00    -0.129 A  
HETATM   20  N   UNL     1      -7.207   7.959  66.751  1.00  0.00    -0.086 NA 
HETATM   21  C   UNL     1      -8.719   6.225  67.640  1.00  0.00    -0.113 A  
HETATM   22  C   UNL     1      -7.893   6.783  66.660  1.00  0.00    -0.107 A  
BRANCH  21  23
HETATM   23  N   UNL     1      -9.411   5.044  67.474  1.00  0.00    -0.120 NA 
HETATM   24  C   UNL     1     -10.203   4.774  66.262  1.00  0.00    -0.282 C  
HETATM   25  C   UNL     1      -9.569   3.617  65.449  1.00  0.00    -0.156 C  
HETATM   26  N   UNL     1      -9.347   2.388  66.237  1.00  0.00    -0.362 NA 
HETATM   27  C   UNL     1      -8.540   2.714  67.431  1.00  0.00    -0.105 C  
HETATM   28  H   UNL     1      -8.930   1.642  65.680  1.00  0.00     0.000 HD 
HETATM   29  C   UNL     1      -9.160   3.839  68.288  1.00  0.00    -0.143 C  
ENDBRANCH  21  23
ENDBRANCH  15  17
ENDBRANCH  11  15
BRANCH  12  30
HETATM   30  C   UNL     1     -10.361  13.294  66.167  1.00  0.00    -0.290 C  
HETATM   31  C   UNL     1     -11.503  13.693  64.082  1.00  0.00    -0.359 C  
HETATM   32  C   UNL     1      -9.821  12.273  65.145  1.00  0.00    -0.178 C  
HETATM   33  C   UNL     1     -10.461  12.622  63.797  1.00  0.00    -0.411 C  
HETATM   34  C   UNL     1     -10.978  14.414  65.315  1.00  0.00    -0.355 C  
ENDBRANCH  12  30
ENDBRANCH   4   6
TORSDOF 5
ENDMDL
MODEL      121
REMARK 921   NORMALIZED FREE ENERGY PREDICTED BY IDOCK:   -3.62 KCAL/MOL
REMARK 922        TOTAL FREE ENERGY PREDICTED BY IDOCK:   -5.57 KCAL/MOL
REMARK 923 INTER-LIGAND FREE ENERGY PREDICTED BY IDOCK:   -4.72 KCAL/MOL
REMARK 924 INTRA-LIGAND FREE ENERGY PREDICTED BY IDOCK:   -0.85 KCAL/MOL
REMARK 927      BINDING AFFINITY PREDICTED BY RF-SCORE:    0.00 PKD
ROOT
HETATM    1  C   UNL     1     -10.714   5.431  67.822  1.00  0.00    -0.028 C  
HETATM    2  N   UNL     1     -10.374   6.784  68.229  1.00  0.00    -0.175 N  
HETATM    3  C   UNL     1     -10.543   7.097  69.645  1.00  0.00    -0.234 C  
HETATM    4  C   UNL     1      -9.538   7.511  67.355  1.00  0.00    -0.149 C  
HETATM    5  O   UNL     1      -9.106   6.985  66.329  1.00  0.00    -0.162 OA 
ENDROOT
BRANCH   4   6
HETATM    6  C   UNL     1      -9.249   8.905  67.681  1.00  0.00    -0.136 A  
HETATM    7  C   UNL     1     -10.072   9.993  67.421  1.00  0.00    -0.256 A  
HETATM    8  C   UNL     1      -9.475  11.157  67.919  1.00  0.00    -0.178 A  
HETATM    9  C   UNL     1      -9.833  12.490  68.018  1.00  0.00    -0.214 A  
HETATM   10  N   UNL     1      -8.939  13.385  68.478  1.00  0.00    -0.125 NA 
HETATM   11  C   UNL     1      -7.706  12.962  68.820  1.00  0.00     0.007 A  
HETATM   12  N   UNL     1      -8.051   9.440  68.183  1.00  0.00    -0.109 NA 
HETATM   13  N   UNL     1      -7.296  11.677  68.818  1.00  0.00    -0.114 NA 
HETATM   14  C   UNL     1      -8.217  10.810  68.352  1.00  0.00    -0.129 A  
BRANCH  11  15
HETATM   15  N   UNL     1      -6.835  13.997  69.143  1.00  0.00    -0.111 NA 
HETATM   16  H   UNL     1      -6.139  13.757  69.850  1.00  0.00     0.000 HD 
BRANCH  15  17
HETATM   17  C   UNL     1      -6.747  15.298  68.671  1.00  0.00    -0.101 A  
HETATM   18  C   UNL     1      -6.811  16.410  69.491  1.00  0.00    -0.187 A  
HETATM   19  C   UNL     1      -6.676  17.693  68.956  1.00  0.00    -0.250 A  
HETATM   20  N   UNL     1      -6.590  15.443  67.340  1.00  0.00    -0.269 NA 
HETATM   21  C   UNL     1      -6.492  17.894  67.591  1.00  0.00    -0.179 A  
HETATM   22  C   UNL     1      -6.460  16.709  66.849  1.00  0.00    -0.188 A  
BRANCH  21  23
HETATM   23  N   UNL     1      -6.323  19.146  67.038  1.00  0.00    -0.183 NA 
HETATM   24  C   UNL     1      -5.231  19.434  66.092  1.00  0.00    -0.148 C  
HETATM   25  C   UNL     1      -5.803  19.738  64.685  1.00  0.00    -0.245 C  
HETATM   26  N   UNL     1      -6.825  20.804  64.674  1.00  0.00    -0.496 NA 
HETATM   27  C   UNL     1      -7.898  20.458  65.629  1.00  0.00     0.118 C  
HETATM   28  H   UNL     1      -7.184  20.986  63.737  1.00  0.00     0.000 HD 
HETATM   29  C   UNL     1      -7.371  20.185  67.054  1.00  0.00    -0.271 C  
ENDBRANCH  21  23
ENDBRANCH  15  17
ENDBRANCH  11  15
BRANCH  12  30
HETATM   30  C   UNL     1      -6.804   8.719  68.426  1.00  0.00    -0.065 C  
HETATM   31  C   UNL     1      -5.702   6.699  69.142  1.00  0.00    -0.017 C  
HETATM   32  C   UNL     1      -6.103   8.117  67.192  1.00  0.00    -0.054 C  
HETATM   33  C   UNL     1      -5.517   6.771  67.634  1.00  0.00    -0.012 C  
HETATM   34  C   UNL     1      -6.934   7.550  69.414  1.00  0.00    -0.057 C  
ENDBRANCH  12  30
ENDBRANCH   4   6
TORSDOF 5
ENDMDL
MODEL      122
REMARK 921   NORMALIZED FREE ENERGY PREDICTED BY IDOCK:   -3.57 KCAL/MOL
REMARK 922        TOTAL FREE ENERGY PREDICTED BY IDOCK:   -5.50 KCAL/MOL
REMARK 923 INTER-LIGAND FREE ENERGY PREDICTED BY IDOCK:   -4.92 KCAL/MOL
REMARK 924 INTRA-LIGAND FREE ENERGY PREDICTED BY IDOCK:   -0.58 KCAL/MOL
REMARK 927      BINDING AFFINITY PREDICTED BY RF-SCORE:    0.00 PKD
ROOT
HETATM    1  C   UNL     1      -6.434  18.993  67.915  1.00  0.00    -0.223 C  
HETATM    2  N   UNL     1      -6.427  17.603  67.492  1.00  0.00    -0.159 N  
HETATM    3  C   UNL     1      -5.589  17.278  66.341  1.00  0.00    -0.173 C  
HETATM    4  C   UNL     1      -6.860  16.655  68.445  1.00  0.00    -0.151 C  
HETATM    5  O   UNL     1      -7.183  17.017  69.576  1.00  0.00    -0.147 OA 
ENDROOT
BRANCH   4   6
HETATM    6  C   UNL     1      -6.958  15.259  68.030  1.00  0.00    -0.133 A  
HETATM    7  C   UNL     1      -5.893  14.392  67.820  1.00  0.00    -0.093 A  
HETATM    8  C   UNL     1      -6.384  13.128  67.475  1.00  0.00    -0.142 A  
HETATM    9  C   UNL     1      -5.832  11.884  67.224  1.00  0.00    -0.130 A  
HETATM   10  N   UNL     1      -6.622  10.878  66.807  1.00  0.00    -0.106 NA 
HETATM   11  C   UNL     1      -7.938  11.110  66.628  1.00  0.00    -0.159 A  
HETATM   12  N   UNL     1      -8.108  14.559  67.633  1.00  0.00    -0.164 NA 
HETATM   13  N   UNL     1      -8.568  12.268  66.911  1.00  0.00    -0.196 NA 
HETATM   14  C   UNL     1      -7.746  13.251  67.328  1.00  0.00    -0.088 A  
BRANCH  11  15
HETATM   15  N   UNL     1      -8.618  10.038  66.061  1.00  0.00    -0.135 NA 
HETATM   16  H   UNL     1      -9.332  10.303  65.382  1.00  0.00     0.000 HD 
BRANCH  15  17
HETATM   17  C   UNL     1      -8.494   8.671  66.258  1.00  0.00    -0.125 A  
HETATM   18  C   UNL     1      -8.569   8.072  67.502  1.00  0.00    -0.126 A  
HETATM   19  C   UNL     1      -8.476   6.685  67.628  1.00  0.00    -0.121 A  
HETATM   20  N   UNL     1      -8.293   7.923  65.155  1.00  0.00    -0.142 NA 
HETATM   21  C   UNL     1      -8.289   5.867  66.517  1.00  0.00    -0.112 A  
HETATM   22  C   UNL     1      -8.207   6.570  65.311  1.00  0.00    -0.135 A  
BRANCH  21  23
HETATM   23  N   UNL     1      -8.225   4.492  66.606  1.00  0.00    -0.103 NA 
HETATM   24  C   UNL     1      -6.944   3.786  66.782  1.00  0.00    -0.059 C  
HETATM   25  C   UNL     1      -6.890   3.105  68.173  1.00  0.00    -0.049 C  
HETATM   26  N   UNL     1      -8.040   2.220  68.448  1.00  0.00    -0.056 NA 
HETATM   27  C   UNL     1      -9.293   2.981  68.268  1.00  0.00    -0.195 C  
HETATM   28  H   UNL     1      -7.980   1.784  69.368  1.00  0.00     0.000 HD 
HETATM   29  C   UNL     1      -9.401   3.644  66.877  1.00  0.00    -0.194 C  
ENDBRANCH  21  23
ENDBRANCH  15  17
ENDBRANCH  11  15
BRANCH  12  30
HETATM   30  C   UNL     1      -9.456  15.102  67.483  1.00  0.00    -0.206 C  
HETATM   31  C   UNL     1     -11.334  16.246  68.469  1.00  0.00    -0.330 C  
HETATM   32  C   UNL     1      -9.574  16.474  66.788  1.00  0.00    -0.268 C  
HETATM   33  C   UNL     1     -10.688  17.237  67.513  1.00  0.00    -0.278 C  
HETATM   34  C   UNL     1     -10.221  15.264  68.805  1.00  0.00    -0.227 C  
ENDBRANCH  12  30
ENDBRANCH   4   6
TORSDOF 5
ENDMDL
MODEL      123
REMARK 921   NORMALIZED FREE ENERGY PREDICTED BY IDOCK:   -3.38 KCAL/MOL
REMARK 922        TOTAL FREE ENERGY PREDICTED BY IDOCK:   -5.27 KCAL/MOL
REMARK 923 INTER-LIGAND FREE ENERGY PREDICTED BY IDOCK:   -4.27 KCAL/MOL
REMARK 924 INTRA-LIGAND FREE ENERGY PREDICTED BY IDOCK:   -1.00 KCAL/MOL
REMARK 927      BINDING AFFINITY PREDICTED BY RF-SCORE:    0.00 PKD
ROOT
HETATM    1  C   UNL     1      -9.161   5.135  69.726  1.00  0.00    -0.119 C  
HETATM    2  N   UNL     1      -8.281   6.291  69.695  1.00  0.00    -0.122 N  
HETATM    3  C   UNL     1      -7.051   6.150  68.921  1.00  0.00    -0.081 C  
HETATM    4  C   UNL     1      -8.864   7.533  70.029  1.00  0.00    -0.144 C  
HETATM    5  O   UNL     1     -10.065   7.604  70.292  1.00  0.00    -0.195 OA 
ENDROOT
BRANCH   4   6
HETATM    6  C   UNL     1      -7.994   8.704  70.101  1.00  0.00    -0.103 A  
HETATM    7  C   UNL     1      -7.298   9.137  71.222  1.00  0.00    -0.054 A  
HETATM    8  C   UNL     1      -6.539  10.266  70.890  1.00  0.00     0.140 A  
HETATM    9  C   UNL     1      -5.622  11.071  71.542  1.00  0.00     0.235 A  
HETATM   10  N   UNL     1      -5.149  12.170  70.929  1.00  0.00    -0.128 NA 
HETATM   11  C   UNL     1      -5.591  12.471  69.691  1.00  0.00    -0.093 A  
HETATM   12  N   UNL     1      -7.797   9.689  69.120  1.00  0.00    -0.085 NA 
HETATM   13  N   UNL     1      -6.430  11.710  68.959  1.00  0.00    -0.074 NA 
HETATM   14  C   UNL     1      -6.882  10.617  69.606  1.00  0.00    -0.124 A  
BRANCH  11  15
HETATM   15  N   UNL     1      -5.139  13.700  69.224  1.00  0.00    -0.078 NA 
HETATM   16  H   UNL     1      -4.141  13.730  69.014  1.00  0.00     0.000 HD 
BRANCH  15  17
HETATM   17  C   UNL     1      -5.809  14.893  68.995  1.00  0.00    -0.096 A  
HETATM   18  C   UNL     1      -6.062  15.391  67.730  1.00  0.00    -0.173 A  
HETATM   19  C   UNL     1      -6.777  16.580  67.567  1.00  0.00    -0.175 A  
HETATM   20  N   UNL     1      -6.219  15.569  70.086  1.00  0.00    -0.135 NA 
HETATM   21  C   UNL     1      -7.239  17.304  68.661  1.00  0.00    -0.231 A  
HETATM   22  C   UNL     1      -6.916  16.726  69.893  1.00  0.00     0.397 A  
BRANCH  21  23
HETATM   23  N   UNL     1      -7.975  18.463  68.531  1.00  0.00    -0.309 NA 
HETATM   24  C   UNL     1      -7.415  19.780  68.881  1.00  0.00    -0.268 C  
HETATM   25  C   UNL     1      -7.258  20.654  67.611  1.00  0.00    -0.308 C  
HETATM   26  N   UNL     1      -8.499  20.785  66.821  1.00  0.00    -0.556 NA 
HETATM   27  C   UNL     1      -9.009  19.438  66.490  1.00  0.00    -0.356 C  
HETATM   28  H   UNL     1      -8.370  21.365  65.992  1.00  0.00     0.000 HD 
HETATM   29  C   UNL     1      -9.214  18.549  67.735  1.00  0.00    -0.281 C  
ENDBRANCH  21  23
ENDBRANCH  15  17
ENDBRANCH  11  15
BRANCH  12  30
HETATM   30  C   UNL     1      -8.477   9.790  67.832  1.00  0.00    -0.125 C  
HETATM   31  C   UNL     1      -9.495  11.182  66.147  1.00  0.00    -0.229 C  
HETATM   32  C   UNL     1      -7.589   9.712  66.574  1.00  0.00    -0.098 C  
HETATM   33  C   UNL     1      -8.177  10.699  65.559  1.00  0.00    -0.141 C  
HETATM   34  C   UNL     1      -9.299  11.076  67.652  1.00  0.00    -0.162 C  
ENDBRANCH  12  30
ENDBRANCH   4   6
TORSDOF 5
ENDMDL
MODEL      124
REMARK 921   NORMALIZED FREE ENERGY PREDICTED BY IDOCK:   -3.38 KCAL/MOL
REMARK 922        TOTAL FREE ENERGY PREDICTED BY IDOCK:   -5.26 KCAL/MOL
REMARK 923 INTER-LIGAND FREE ENERGY PREDICTED BY IDOCK:   -4.93 KCAL/MOL
REMARK 924 INTRA-LIGAND FREE ENERGY PREDICTED BY IDOCK:   -0.33 KCAL/MOL
REMARK 927      BINDING AFFINITY PREDICTED BY RF-SCORE:    0.00 PKD
ROOT
HETATM    1  C   UNL     1     -10.672  17.569  65.645  1.00  0.00    -0.089 C  
HETATM    2  N   UNL     1     -10.196  16.244  66.007  1.00  0.00    -0.340 N  
HETATM    3  C   UNL     1      -8.760  16.013  65.881  1.00  0.00    -0.068 C  
HETATM    4  C   UNL     1     -11.050  15.473  66.826  1.00  0.00    -0.206 C  
HETATM    5  O   UNL     1     -12.116  15.942  67.224  1.00  0.00     0.543 OA 
ENDROOT
BRANCH   4   6
HETATM    6  C   UNL     1     -10.653  14.103  67.135  1.00  0.00    -0.278 A  
HETATM    7  C   UNL     1     -10.406  13.094  66.212  1.00  0.00    -0.291 A  
HETATM    8  C   UNL     1     -10.007  11.935  66.887  1.00  0.00    -0.219 A  
HETATM    9  C   UNL     1      -9.576  10.672  66.518  1.00  0.00    -0.180 A  
HETATM   10  N   UNL     1      -9.364   9.740  67.465  1.00  0.00    -0.133 NA 
HETATM   11  C   UNL     1      -9.592  10.055  68.756  1.00  0.00    -0.168 A  
HETATM   12  N   UNL     1     -10.575  13.495  68.399  1.00  0.00    -0.242 NA 
HETATM   13  N   UNL     1      -9.948  11.275  69.208  1.00  0.00    -0.037 NA 
HETATM   14  C   UNL     1     -10.149  12.182  68.232  1.00  0.00    -0.210 A  
BRANCH  11  15
HETATM   15  N   UNL     1      -9.476   8.971  69.619  1.00  0.00    -0.166 NA 
HETATM   16  H   UNL     1      -9.464   9.220  70.609  1.00  0.00     0.000 HD 
BRANCH  15  17
HETATM   17  C   UNL     1      -9.374   7.610  69.369  1.00  0.00    -0.152 A  
HETATM   18  C   UNL     1     -10.446   6.741  69.449  1.00  0.00    -0.244 A  
HETATM   19  C   UNL     1     -10.284   5.387  69.146  1.00  0.00    -0.302 A  
HETATM   20  N   UNL     1      -8.151   7.154  69.032  1.00  0.00    -0.120 NA 
HETATM   21  C   UNL     1      -9.047   4.870  68.773  1.00  0.00    -0.112 A  
HETATM   22  C   UNL     1      -8.027   5.826  68.740  1.00  0.00    -0.101 A  
BRANCH  21  23
HETATM   23  N   UNL     1      -8.863   3.546  68.436  1.00  0.00    -0.106 NA 
HETATM   24  C   UNL     1      -9.346   2.998  67.157  1.00  0.00    -0.145 C  
HETATM   25  C   UNL     1      -8.151   2.589  66.259  1.00  0.00    -0.084 C  
HETATM   26  N   UNL     1      -7.198   1.673  66.916  1.00  0.00    -0.046 NA 
HETATM   27  C   UNL     1      -6.739   2.277  68.184  1.00  0.00    -0.036 C  
HETATM   28  H   UNL     1      -6.422   1.419  66.305  1.00  0.00     0.000 HD 
HETATM   29  C   UNL     1      -7.902   2.663  69.124  1.00  0.00    -0.045 C  
ENDBRANCH  21  23
ENDBRANCH  15  17
ENDBRANCH  11  15
BRANCH  12  30
HETATM   30  C   UNL     1     -10.943  14.090  69.681  1.00  0.00    -0.040 C  
HETATM   31  C   UNL     1     -11.155  16.065  71.047  1.00  0.00    -0.238 C  
HETATM   32  C   UNL     1     -12.448  14.317  69.931  1.00  0.00    -0.315 C  
HETATM   33  C   UNL     1     -12.572  15.643  70.689  1.00  0.00    -0.461 C  
HETATM   34  C   UNL     1     -10.291  15.454  69.954  1.00  0.00    -0.298 C  
ENDBRANCH  12  30
ENDBRANCH   4   6
TORSDOF 5
ENDMDL
MODEL      125
REMARK 921   NORMALIZED FREE ENERGY PREDICTED BY IDOCK:   -3.33 KCAL/MOL
REMARK 922        TOTAL FREE ENERGY PREDICTED BY IDOCK:   -5.19 KCAL/MOL
REMARK 923 INTER-LIGAND FREE ENERGY PREDICTED BY IDOCK:   -4.44 KCAL/MOL
REMARK 924 INTRA-LIGAND FREE ENERGY PREDICTED BY IDOCK:   -0.75 KCAL/MOL
REMARK 927      BINDING AFFINITY PREDICTED BY RF-SCORE:    0.00 PKD
ROOT
HETATM    1  C   UNL     1     -12.656  16.558  72.035  1.00  0.00     0.557 C  
HETATM    2  N   UNL     1     -12.172  15.224  71.723  1.00  0.00    -0.328 N  
HETATM    3  C   UNL     1     -10.859  14.869  72.253  1.00  0.00     1.133 C  
HETATM    4  C   UNL     1     -13.145  14.279  71.331  1.00  0.00    -0.351 C  
HETATM    5  O   UNL     1     -14.336  14.591  71.302  1.00  0.00    -0.357 OA 
ENDROOT
BRANCH   4   6
HETATM    6  C   UNL     1     -12.691  12.954  70.919  1.00  0.00    -0.207 A  
HETATM    7  C   UNL     1     -12.696  11.807  71.704  1.00  0.00    -0.357 A  
HETATM    8  C   UNL     1     -12.227  10.726  70.948  1.00  0.00    -0.487 A  
HETATM    9  C   UNL     1     -12.075   9.366  71.153  1.00  0.00    -0.328 A  
HETATM   10  N   UNL     1     -11.477   8.616  70.210  1.00  0.00    -0.149 NA 
HETATM   11  C   UNL     1     -11.025   9.211  69.089  1.00  0.00    -0.033 A  
HETATM   12  N   UNL     1     -12.041  12.601  69.725  1.00  0.00    -0.272 NA 
HETATM   13  N   UNL     1     -11.191  10.513  68.779  1.00  0.00    -0.257 NA 
HETATM   14  C   UNL     1     -11.794  11.233  69.746  1.00  0.00    -0.364 A  
BRANCH  11  15
HETATM   15  N   UNL     1     -10.303   8.359  68.261  1.00  0.00    -0.231 NA 
HETATM   16  H   UNL     1     -10.274   8.646  67.282  1.00  0.00     0.000 HD 
BRANCH  15  17
HETATM   17  C   UNL     1      -9.616   7.185  68.534  1.00  0.00    -0.139 A  
HETATM   18  C   UNL     1      -8.259   7.143  68.799  1.00  0.00    -0.122 A  
HETATM   19  C   UNL     1      -7.635   5.932  69.106  1.00  0.00    -0.090 A  
HETATM   20  N   UNL     1     -10.344   6.051  68.533  1.00  0.00    -0.184 NA 
HETATM   21  C   UNL     1      -8.347   4.737  69.138  1.00  0.00    -0.081 A  
HETATM   22  C   UNL     1      -9.705   4.885  68.838  1.00  0.00    -0.173 A  
BRANCH  21  23
HETATM   23  N   UNL     1      -7.765   3.531  69.469  1.00  0.00    -0.051 NA 
HETATM   24  C   UNL     1      -7.608   2.450  68.481  1.00  0.00    -0.050 C  
HETATM   25  C   UNL     1      -6.107   2.209  68.179  1.00  0.00    -0.024 C  
HETATM   26  N   UNL     1      -5.288   1.967  69.383  1.00  0.00    -0.012 NA 
HETATM   27  C   UNL     1      -5.475   3.084  70.331  1.00  0.00    -0.012 C  
HETATM   28  H   UNL     1      -4.306   1.811  69.157  1.00  0.00     0.000 HD 
HETATM   29  C   UNL     1      -6.957   3.331  70.687  1.00  0.00    -0.033 C  
ENDBRANCH  21  23
ENDBRANCH  15  17
ENDBRANCH  11  15
BRANCH  12  30
HETATM   30  C   UNL     1     -11.617  13.505  68.659  1.00  0.00    -0.330 C  
HETATM   31  C   UNL     1      -9.846  14.337  67.251  1.00  0.00    -0.244 C  
HETATM   32  C   UNL     1     -11.935  13.067  67.215  1.00  0.00    -0.379 C  
HETATM   33  C   UNL     1     -10.739  13.491  66.355  1.00  0.00    -0.287 C  
HETATM   34  C   UNL     1     -10.111  13.811  68.654  1.00  0.00    -0.195 C  
ENDBRANCH  12  30
ENDBRANCH   4   6
TORSDOF 5
ENDMDL
MODEL      126
REMARK 921   NORMALIZED FREE ENERGY PREDICTED BY IDOCK:   -3.05 KCAL/MOL
REMARK 922        TOTAL FREE ENERGY PREDICTED BY IDOCK:   -4.84 KCAL/MOL
REMARK 923 INTER-LIGAND FREE ENERGY PREDICTED BY IDOCK:   -4.16 KCAL/MOL
REMARK 924 INTRA-LIGAND FREE ENERGY PREDICTED BY IDOCK:   -0.67 KCAL/MOL
REMARK 927      BINDING AFFINITY PREDICTED BY RF-SCORE:    0.00 PKD
ROOT
HETATM    1  C   UNL     1      -9.407   2.876  68.738  1.00  0.00    -0.168 C  
HETATM    2  N   UNL     1      -9.064   4.282  68.869  1.00  0.00    -0.117 N  
HETATM    3  C   UNL     1     -10.100   5.155  69.412  1.00  0.00    -0.234 C  
HETATM    4  C   UNL     1      -7.687   4.594  68.875  1.00  0.00    -0.071 C  
HETATM    5  O   UNL     1      -6.847   3.696  68.809  1.00  0.00    -0.044 OA 
ENDROOT
BRANCH   4   6
HETATM    6  C   UNL     1      -7.301   6.002  68.910  1.00  0.00    -0.085 A  
HETATM    7  C   UNL     1      -7.327   6.829  70.026  1.00  0.00    -0.085 A  
HETATM    8  C   UNL     1      -6.844   8.095  69.677  1.00  0.00    -0.041 A  
HETATM    9  C   UNL     1      -6.577   9.275  70.350  1.00  0.00    -0.068 A  
HETATM   10  N   UNL     1      -6.202  10.365  69.657  1.00  0.00    -0.050 NA 
HETATM   11  C   UNL     1      -6.110  10.287  68.314  1.00  0.00    -0.044 A  
HETATM   12  N   UNL     1      -6.966   6.829  67.826  1.00  0.00    -0.080 NA 
HETATM   13  N   UNL     1      -6.287   9.165  67.586  1.00  0.00    -0.059 NA 
HETATM   14  C   UNL     1      -6.660   8.094  68.314  1.00  0.00    -0.060 A  
BRANCH  11  15
HETATM   15  N   UNL     1      -5.855  11.510  67.704  1.00  0.00    -0.049 NA 
HETATM   16  H   UNL     1      -5.040  11.514  67.090  1.00  0.00     0.000 HD 
BRANCH  15  17
HETATM   17  C   UNL     1      -6.516  12.727  67.785  1.00  0.00    -0.136 A  
HETATM   18  C   UNL     1      -7.872  12.872  67.554  1.00  0.00    -0.177 A  
HETATM   19  C   UNL     1      -8.483  14.120  67.691  1.00  0.00    -0.189 A  
HETATM   20  N   UNL     1      -5.763  13.797  68.111  1.00  0.00    -0.108 NA 
HETATM   21  C   UNL     1      -7.754  15.251  68.045  1.00  0.00    -0.126 A  
HETATM   22  C   UNL     1      -6.392  15.001  68.239  1.00  0.00    -0.119 A  
BRANCH  21  23
HETATM   23  N   UNL     1      -8.336  16.489  68.220  1.00  0.00    -0.183 NA 
HETATM   24  C   UNL     1      -8.050  17.614  67.312  1.00  0.00    -0.209 C  
HETATM   25  C   UNL     1      -9.318  17.990  66.505  1.00  0.00    -0.285 C  
HETATM   26  N   UNL     1     -10.501  18.259  67.345  1.00  0.00    -0.398 NA 
HETATM   27  C   UNL     1     -10.747  17.097  68.224  1.00  0.00    -0.363 C  
HETATM   28  H   UNL     1     -11.321  18.505  66.791  1.00  0.00     0.000 HD 
HETATM   29  C   UNL     1      -9.517  16.714  69.075  1.00  0.00    -0.236 C  
ENDBRANCH  21  23
ENDBRANCH  15  17
ENDBRANCH  11  15
BRANCH  12  30
HETATM   30  C   UNL     1      -6.997   6.472  66.410  1.00  0.00    -0.066 C  
HETATM   31  C   UNL     1      -7.604   7.061  64.153  1.00  0.00    -0.112 C  
HETATM   32  C   UNL     1      -5.688   6.666  65.619  1.00  0.00    -0.029 C  
HETATM   33  C   UNL     1      -6.088   7.165  64.226  1.00  0.00    -0.037 C  
HETATM   34  C   UNL     1      -8.064   7.219  65.595  1.00  0.00    -0.133 C  
ENDBRANCH  12  30
ENDBRANCH   4   6
TORSDOF 5
ENDMDL
MODEL      127
REMARK 921   NORMALIZED FREE ENERGY PREDICTED BY IDOCK:   -2.91 KCAL/MOL
REMARK 922        TOTAL FREE ENERGY PREDICTED BY IDOCK:   -4.65 KCAL/MOL
REMARK 923 INTER-LIGAND FREE ENERGY PREDICTED BY IDOCK:   -3.80 KCAL/MOL
REMARK 924 INTRA-LIGAND FREE ENERGY PREDICTED BY IDOCK:   -0.85 KCAL/MOL
REMARK 927      BINDING AFFINITY PREDICTED BY RF-SCORE:    0.00 PKD
ROOT
HETATM    1  C   UNL     1     -10.402   4.497  66.234  1.00  0.00    -0.191 C  
HETATM    2  N   UNL     1      -9.779   5.547  67.024  1.00  0.00    -0.135 N  
HETATM    3  C   UNL     1     -10.623   6.198  68.021  1.00  0.00    -0.268 C  
HETATM    4  C   UNL     1      -8.367   5.547  67.065  1.00  0.00    -0.107 C  
HETATM    5  O   UNL     1      -7.730   4.669  66.483  1.00  0.00    -0.090 OA 
ENDROOT
BRANCH   4   6
HETATM    6  C   UNL     1      -7.700   6.638  67.769  1.00  0.00    -0.107 A  
HETATM    7  C   UNL     1      -7.431   6.689  69.131  1.00  0.00    -0.095 A  
HETATM    8  C   UNL     1      -6.742   7.871  69.424  1.00  0.00    -0.039 A  
HETATM    9  C   UNL     1      -6.164   8.428  70.552  1.00  0.00    -0.035 A  
HETATM   10  N   UNL     1      -5.655   9.672  70.492  1.00  0.00    -0.043 NA 
HETATM   11  C   UNL     1      -5.733  10.356  69.333  1.00  0.00    -0.037 A  
HETATM   12  N   UNL     1      -7.328   7.891  67.256  1.00  0.00    -0.090 NA 
HETATM   13  N   UNL     1      -6.217   9.867  68.173  1.00  0.00    -0.054 NA 
HETATM   14  C   UNL     1      -6.716   8.619  68.271  1.00  0.00    -0.065 A  
BRANCH  11  15
HETATM   15  N   UNL     1      -5.304  11.674  69.437  1.00  0.00    -0.048 NA 
HETATM   16  H   UNL     1      -4.436  11.795  69.960  1.00  0.00     0.000 HD 
BRANCH  15  17
HETATM   17  C   UNL     1      -5.850  12.854  68.953  1.00  0.00    -0.075 A  
HETATM   18  C   UNL     1      -5.130  13.781  68.221  1.00  0.00    -0.104 A  
HETATM   19  C   UNL     1      -5.751  14.931  67.729  1.00  0.00    -0.098 A  
HETATM   20  N   UNL     1      -7.152  13.069  69.230  1.00  0.00     0.025 NA 
HETATM   21  C   UNL     1      -7.097  15.188  67.970  1.00  0.00    -0.128 A  
HETATM   22  C   UNL     1      -7.728  14.201  68.733  1.00  0.00    -0.121 A  
BRANCH  21  23
HETATM   23  N   UNL     1      -7.745  16.298  67.470  1.00  0.00    -0.138 NA 
HETATM   24  C   UNL     1      -8.410  17.271  68.355  1.00  0.00    -0.261 C  
HETATM   25  C   UNL     1      -7.677  18.635  68.306  1.00  0.00    -0.298 C  
HETATM   26  N   UNL     1      -7.507  19.171  66.941  1.00  0.00    -0.215 NA 
HETATM   27  C   UNL     1      -6.826  18.162  66.103  1.00  0.00    -0.263 C  
HETATM   28  H   UNL     1      -7.022  20.068  66.936  1.00  0.00     0.000 HD 
HETATM   29  C   UNL     1      -7.550  16.798  66.096  1.00  0.00    -0.133 C  
ENDBRANCH  21  23
ENDBRANCH  15  17
ENDBRANCH  11  15
BRANCH  12  30
HETATM   30  C   UNL     1      -7.592   8.401  65.913  1.00  0.00    -0.082 C  
HETATM   31  C   UNL     1      -8.543  10.119  64.515  1.00  0.00    -0.198 C  
HETATM   32  C   UNL     1      -6.424   9.115  65.203  1.00  0.00    -0.069 C  
HETATM   33  C   UNL     1      -7.034  10.283  64.420  1.00  0.00    -0.060 C  
HETATM   34  C   UNL     1      -8.764   9.392  65.833  1.00  0.00    -0.177 C  
ENDBRANCH  12  30
ENDBRANCH   4   6
TORSDOF 5
ENDMDL
MODEL      128
REMARK 921   NORMALIZED FREE ENERGY PREDICTED BY IDOCK:   -2.75 KCAL/MOL
REMARK 922        TOTAL FREE ENERGY PREDICTED BY IDOCK:   -4.45 KCAL/MOL
REMARK 923 INTER-LIGAND FREE ENERGY PREDICTED BY IDOCK:   -4.82 KCAL/MOL
REMARK 924 INTRA-LIGAND FREE ENERGY PREDICTED BY IDOCK:    0.37 KCAL/MOL
REMARK 927      BINDING AFFINITY PREDICTED BY RF-SCORE:    0.00 PKD
ROOT
HETATM    1  C   UNL     1      -6.446  20.199  69.637  1.00  0.00    -0.298 C  
HETATM    2  N   UNL     1      -6.990  18.887  69.330  1.00  0.00    -0.230 N  
HETATM    3  C   UNL     1      -8.419  18.705  69.567  1.00  0.00     0.562 C  
HETATM    4  C   UNL     1      -6.225  18.078  68.461  1.00  0.00    -0.197 C  
HETATM    5  O   UNL     1      -5.177  18.506  67.978  1.00  0.00    -0.161 OA 
ENDROOT
BRANCH   4   6
HETATM    6  C   UNL     1      -6.689  16.718  68.202  1.00  0.00    -0.148 A  
HETATM    7  C   UNL     1      -6.089  15.549  68.654  1.00  0.00    -0.097 A  
HETATM    8  C   UNL     1      -6.847  14.448  68.239  1.00  0.00    -0.111 A  
HETATM    9  C   UNL     1      -6.796  13.079  68.435  1.00  0.00    -0.097 A  
HETATM   10  N   UNL     1      -7.659  12.282  67.780  1.00  0.00    -0.119 NA 
HETATM   11  C   UNL     1      -8.549  12.836  66.933  1.00  0.00    -0.137 A  
HETATM   12  N   UNL     1      -7.728  16.312  67.349  1.00  0.00    -0.147 NA 
HETATM   13  N   UNL     1      -8.713  14.160  66.735  1.00  0.00    -0.174 NA 
HETATM   14  C   UNL     1      -7.832  14.927  67.407  1.00  0.00    -0.199 A  
BRANCH  11  15
HETATM   15  N   UNL     1      -9.286  11.902  66.213  1.00  0.00    -0.225 NA 
HETATM   16  H   UNL     1     -10.256  12.171  66.042  1.00  0.00     0.000 HD 
BRANCH  15  17
HETATM   17  C   UNL     1      -8.932  10.669  65.686  1.00  0.00    -0.185 A  
HETATM   18  C   UNL     1      -9.076   9.479  66.376  1.00  0.00    -0.195 A  
HETATM   19  C   UNL     1      -8.736   8.266  65.773  1.00  0.00    -0.196 A  
HETATM   20  N   UNL     1      -8.428  10.674  64.436  1.00  0.00    -0.122 NA 
HETATM   21  C   UNL     1      -8.231   8.216  64.477  1.00  0.00    -0.115 A  
HETATM   22  C   UNL     1      -8.108   9.472  63.875  1.00  0.00    -0.152 A  
BRANCH  21  23
HETATM   23  N   UNL     1      -7.918   7.032  63.844  1.00  0.00    -0.105 NA 
HETATM   24  C   UNL     1      -6.947   6.979  62.737  1.00  0.00    -0.057 C  
HETATM   25  C   UNL     1      -5.685   6.187  63.164  1.00  0.00    -0.022 C  
HETATM   26  N   UNL     1      -5.978   4.840  63.694  1.00  0.00    -0.017 NA 
HETATM   27  C   UNL     1      -6.945   4.954  64.805  1.00  0.00    -0.050 C  
HETATM   28  H   UNL     1      -5.132   4.340  63.966  1.00  0.00     0.000 HD 
HETATM   29  C   UNL     1      -8.234   5.705  64.407  1.00  0.00    -0.120 C  
ENDBRANCH  21  23
ENDBRANCH  15  17
ENDBRANCH  11  15
BRANCH  12  30
HETATM   30  C   UNL     1      -8.530  17.168  66.478  1.00  0.00    -0.274 C  
HETATM   31  C   UNL     1     -10.466  18.577  66.195  1.00  0.00    -0.447 C  
HETATM   32  C   UNL     1      -8.022  18.608  66.266  1.00  0.00    -0.276 C  
HETATM   33  C   UNL     1      -9.262  19.508  66.217  1.00  0.00    -0.416 C  
HETATM   34  C   UNL     1      -9.992  17.329  66.925  1.00  0.00    -0.294 C  
ENDBRANCH  12  30
ENDBRANCH   4   6
TORSDOF 5
ENDMDL
MODEL      129
REMARK 921   NORMALIZED FREE ENERGY PREDICTED BY IDOCK:   -2.69 KCAL/MOL
REMARK 922        TOTAL FREE ENERGY PREDICTED BY IDOCK:   -4.37 KCAL/MOL
REMARK 923 INTER-LIGAND FREE ENERGY PREDICTED BY IDOCK:   -5.11 KCAL/MOL
REMARK 924 INTRA-LIGAND FREE ENERGY PREDICTED BY IDOCK:    0.74 KCAL/MOL
REMARK 927      BINDING AFFINITY PREDICTED BY RF-SCORE:    0.00 PKD
ROOT
HETATM    1  C   UNL     1      -6.630   4.598  70.886  1.00  0.00    -0.031 C  
HETATM    2  N   UNL     1      -6.658   5.999  70.499  1.00  0.00    -0.046 N  
HETATM    3  C   UNL     1      -5.482   6.792  70.846  1.00  0.00    -0.023 C  
HETATM    4  C   UNL     1      -7.577   6.352  69.487  1.00  0.00    -0.095 C  
HETATM    5  O   UNL     1      -8.276   5.490  68.956  1.00  0.00    -0.097 OA 
ENDROOT
BRANCH   4   6
HETATM    6  C   UNL     1      -7.703   7.764  69.135  1.00  0.00    -0.101 A  
HETATM    7  C   UNL     1      -6.703   8.565  68.598  1.00  0.00    -0.059 A  
HETATM    8  C   UNL     1      -7.213   9.845  68.355  1.00  0.00    -0.073 A  
HETATM    9  C   UNL     1      -6.734  11.012  67.786  1.00  0.00    -0.064 A  
HETATM   10  N   UNL     1      -7.493  12.122  67.809  1.00  0.00    -0.111 NA 
HETATM   11  C   UNL     1      -8.703  12.076  68.402  1.00  0.00    -0.147 A  
HETATM   12  N   UNL     1      -8.787   8.620  69.389  1.00  0.00    -0.142 NA 
HETATM   13  N   UNL     1      -9.273  10.970  68.921  1.00  0.00    -0.163 NA 
HETATM   14  C   UNL     1      -8.485   9.877  68.879  1.00  0.00    -0.127 A  
BRANCH  11  15
HETATM   15  N   UNL     1      -9.326  13.316  68.487  1.00  0.00    -0.362 NA 
HETATM   16  H   UNL     1     -10.305  13.278  68.773  1.00  0.00     0.000 HD 
BRANCH  15  17
HETATM   17  C   UNL     1      -8.849  14.597  68.251  1.00  0.00    -0.176 A  
HETATM   18  C   UNL     1      -8.411  15.442  69.254  1.00  0.00    -0.258 A  
HETATM   19  C   UNL     1      -7.905  16.706  68.945  1.00  0.00    -0.240 A  
HETATM   20  N   UNL     1      -8.824  14.999  66.964  1.00  0.00    -0.219 NA 
HETATM   21  C   UNL     1      -7.839  17.160  67.630  1.00  0.00    -0.176 A  
HETATM   22  C   UNL     1      -8.322  16.239  66.695  1.00  0.00    -0.280 A  
BRANCH  21  23
HETATM   23  N   UNL     1      -7.314  18.389  67.291  1.00  0.00    -0.211 NA 
HETATM   24  C   UNL     1      -7.017  18.745  65.892  1.00  0.00    -0.268 C  
HETATM   25  C   UNL     1      -7.958  19.879  65.413  1.00  0.00     0.294 C  
HETATM   26  N   UNL     1      -7.952  21.067  66.288  1.00  0.00    -0.089 NA 
HETATM   27  C   UNL     1      -8.266  20.655  67.671  1.00  0.00    -0.132 C  
HETATM   28  H   UNL     1      -8.578  21.799  65.950  1.00  0.00     0.000 HD 
HETATM   29  C   UNL     1      -7.324  19.551  68.199  1.00  0.00    -0.299 C  
ENDBRANCH  21  23
ENDBRANCH  15  17
ENDBRANCH  11  15
BRANCH  12  30
HETATM   30  C   UNL     1     -10.005   8.295  70.126  1.00  0.00    -0.187 C  
HETATM   31  C   UNL     1     -11.027   7.411  72.123  1.00  0.00    -0.284 C  
HETATM   32  C   UNL     1     -10.718   9.465  70.833  1.00  0.00    -0.393 C  
HETATM   33  C   UNL     1     -11.251   8.916  72.161  1.00  0.00    -0.362 C  
HETATM   34  C   UNL     1      -9.816   7.232  71.220  1.00  0.00    -0.183 C  
ENDBRANCH  12  30
ENDBRANCH   4   6
TORSDOF 5
ENDMDL
MODEL      130
REMARK 921   NORMALIZED FREE ENERGY PREDICTED BY IDOCK:   -2.05 KCAL/MOL
REMARK 922        TOTAL FREE ENERGY PREDICTED BY IDOCK:   -3.53 KCAL/MOL
REMARK 923 INTER-LIGAND FREE ENERGY PREDICTED BY IDOCK:   -3.16 KCAL/MOL
REMARK 924 INTRA-LIGAND FREE ENERGY PREDICTED BY IDOCK:   -0.37 KCAL/MOL
REMARK 927      BINDING AFFINITY PREDICTED BY RF-SCORE:    0.00 PKD
ROOT
HETATM    1  C   UNL     1      -6.516  18.855  70.209  1.00  0.00     0.181 C  
HETATM    2  N   UNL     1      -6.910  17.562  69.674  1.00  0.00    -0.062 N  
HETATM    3  C   UNL     1      -6.184  16.401  70.181  1.00  0.00    -0.013 C  
HETATM    4  C   UNL     1      -8.186  17.493  69.075  1.00  0.00    -0.065 C  
HETATM    5  O   UNL     1      -8.917  18.484  69.056  1.00  0.00    -0.206 OA 
ENDROOT
BRANCH   4   6
HETATM    6  C   UNL     1      -8.582  16.238  68.443  1.00  0.00    -0.200 A  
HETATM    7  C   UNL     1      -9.236  15.180  69.064  1.00  0.00    -0.221 A  
HETATM    8  C   UNL     1      -9.485  14.173  68.125  1.00  0.00    -0.213 A  
HETATM    9  C   UNL     1     -10.140  12.954  68.129  1.00  0.00    -0.240 A  
HETATM   10  N   UNL     1     -10.095  12.172  67.035  1.00  0.00    -0.203 NA 
HETATM   11  C   UNL     1      -9.398  12.590  65.960  1.00  0.00    -0.086 A  
HETATM   12  N   UNL     1      -8.270  15.791  67.149  1.00  0.00    -0.187 NA 
HETATM   13  N   UNL     1      -8.788  13.788  65.846  1.00  0.00     0.558 NA 
HETATM   14  C   UNL     1      -8.855  14.543  66.960  1.00  0.00    -0.237 A  
BRANCH  11  15
HETATM   15  N   UNL     1      -9.309  11.637  64.952  1.00  0.00    -0.417 NA 
HETATM   16  H   UNL     1      -9.561  11.979  64.024  1.00  0.00     0.000 HD 
BRANCH  15  17
HETATM   17  C   UNL     1      -8.938  10.300  64.988  1.00  0.00    -0.196 A  
HETATM   18  C   UNL     1      -8.187   9.693  63.999  1.00  0.00    -0.159 A  
HETATM   19  C   UNL     1      -7.814   8.352  64.116  1.00  0.00    -0.145 A  
HETATM   20  N   UNL     1      -9.350   9.594  66.060  1.00  0.00    -0.190 NA 
HETATM   21  C   UNL     1      -8.196   7.586  65.213  1.00  0.00    -0.129 A  
HETATM   22  C   UNL     1      -8.967   8.287  66.145  1.00  0.00    -0.181 A  
BRANCH  21  23
HETATM   23  N   UNL     1      -7.815   6.270  65.371  1.00  0.00    -0.098 NA 
HETATM   24  C   UNL     1      -8.359   5.432  66.455  1.00  0.00    -0.110 C  
HETATM   25  C   UNL     1      -9.240   4.299  65.870  1.00  0.00    -0.145 C  
HETATM   26  N   UNL     1      -8.560   3.485  64.844  1.00  0.00    -0.107 NA 
HETATM   27  C   UNL     1      -8.046   4.372  63.780  1.00  0.00    -0.095 C  
HETATM   28  H   UNL     1      -9.159   2.747  64.476  1.00  0.00     0.000 HD 
HETATM   29  C   UNL     1      -7.132   5.493  64.320  1.00  0.00    -0.049 C  
ENDBRANCH  21  23
ENDBRANCH  15  17
ENDBRANCH  11  15
BRANCH  12  30
HETATM   30  C   UNL     1      -7.418  16.463  66.173  1.00  0.00     0.244 C  
HETATM   31  C   UNL     1      -6.599  18.526  65.231  1.00  0.00    -0.180 C  
HETATM   32  C   UNL     1      -5.918  16.561  66.517  1.00  0.00     0.325 C  
HETATM   33  C   UNL     1      -5.444  17.934  66.025  1.00  0.00    -0.238 C  
HETATM   34  C   UNL     1      -7.842  17.905  65.852  1.00  0.00    -0.097 C  
ENDBRANCH  12  30
ENDBRANCH   4   6
TORSDOF 5
ENDMDL
MODEL      131
REMARK 921   NORMALIZED FREE ENERGY PREDICTED BY IDOCK:   -1.08 KCAL/MOL
REMARK 922        TOTAL FREE ENERGY PREDICTED BY IDOCK:   -2.29 KCAL/MOL
REMARK 923 INTER-LIGAND FREE ENERGY PREDICTED BY IDOCK:   -2.17 KCAL/MOL
REMARK 924 INTRA-LIGAND FREE ENERGY PREDICTED BY IDOCK:   -0.12 KCAL/MOL
REMARK 927      BINDING AFFINITY PREDICTED BY RF-SCORE:    0.00 PKD
ROOT
HETATM    1  C   UNL     1      -9.295   4.746  64.340  1.00  0.00     0.014 C  
HETATM    2  N   UNL     1      -9.316   6.104  64.856  1.00  0.00     0.611 N  
HETATM    3  C   UNL     1      -9.192   7.175  63.872  1.00  0.00     2.034 C  
HETATM    4  C   UNL     1      -9.867   6.278  66.145  1.00  0.00     0.078 C  
HETATM    5  O   UNL     1     -10.330   5.315  66.755  1.00  0.00    -0.224 OA 
ENDROOT
BRANCH   4   6
HETATM    6  C   UNL     1      -9.821   7.611  66.738  1.00  0.00    -0.237 A  
HETATM    7  C   UNL     1     -10.884   8.501  66.833  1.00  0.00     0.030 A  
HETATM    8  C   UNL     1     -10.464   9.656  67.503  1.00  0.00    -0.321 A  
HETATM    9  C   UNL     1     -11.068  10.821  67.943  1.00  0.00    -0.308 A  
HETATM   10  N   UNL     1     -10.314  11.797  68.480  1.00  0.00    -0.213 NA 
HETATM   11  C   UNL     1      -8.980  11.622  68.565  1.00  0.00    -0.138 A  
HETATM   12  N   UNL     1      -8.693   8.309  67.198  1.00  0.00    -0.122 NA 
HETATM   13  N   UNL     1      -8.320  10.497  68.223  1.00  0.00    -0.118 NA 
HETATM   14  C   UNL     1      -9.107   9.542  67.690  1.00  0.00    -0.120 A  
BRANCH  11  15
HETATM   15  N   UNL     1      -8.299  12.753  69.004  1.00  0.00    -0.280 NA 
HETATM   16  H   UNL     1      -7.782  12.623  69.873  1.00  0.00     0.000 HD 
BRANCH  15  17
HETATM   17  C   UNL     1      -8.202  14.028  68.465  1.00  0.00    -0.136 A  
HETATM   18  C   UNL     1      -8.405  14.303  67.125  1.00  0.00    -0.202 A  
HETATM   19  C   UNL     1      -8.332  15.616  66.653  1.00  0.00    -0.310 A  
HETATM   20  N   UNL     1      -7.895  15.019  69.324  1.00  0.00    -0.188 NA 
HETATM   21  C   UNL     1      -8.038  16.677  67.504  1.00  0.00    -0.168 A  
HETATM   22  C   UNL     1      -7.832  16.290  68.831  1.00  0.00    -0.224 A  
BRANCH  21  23
HETATM   23  N   UNL     1      -7.990  17.986  67.073  1.00  0.00    -0.215 NA 
HETATM   24  C   UNL     1      -8.813  19.037  67.698  1.00  0.00    -0.289 C  
HETATM   25  C   UNL     1      -7.913  20.059  68.437  1.00  0.00    -0.139 C  
HETATM   26  N   UNL     1      -6.848  20.634  67.593  1.00  0.00    -0.314 NA 
HETATM   27  C   UNL     1      -6.049  19.540  67.003  1.00  0.00    -0.180 C  
HETATM   28  H   UNL     1      -6.270  21.304  68.102  1.00  0.00     0.000 HD 
HETATM   29  C   UNL     1      -6.908  18.520  66.225  1.00  0.00    -0.230 C  
ENDBRANCH  21  23
ENDBRANCH  15  17
ENDBRANCH  11  15
BRANCH  12  30
HETATM   30  C   UNL     1      -7.301   7.873  67.118  1.00  0.00    -0.091 C  
HETATM   31  C   UNL     1      -5.706   6.198  66.441  1.00  0.00    -0.017 C  
HETATM   32  C   UNL     1      -6.450   8.481  65.985  1.00  0.00    -0.053 C  
HETATM   33  C   UNL     1      -5.531   7.363  65.479  1.00  0.00    -0.029 C  
HETATM   34  C   UNL     1      -7.123   6.354  66.971  1.00  0.00    -0.073 C  
ENDBRANCH  12  30
ENDBRANCH   4   6
TORSDOF 5
ENDMDL
MODEL      132
REMARK 921   NORMALIZED FREE ENERGY PREDICTED BY IDOCK:   -0.78 KCAL/MOL
REMARK 922        TOTAL FREE ENERGY PREDICTED BY IDOCK:   -1.90 KCAL/MOL
REMARK 923 INTER-LIGAND FREE ENERGY PREDICTED BY IDOCK:   -2.43 KCAL/MOL
REMARK 924 INTRA-LIGAND FREE ENERGY PREDICTED BY IDOCK:    0.53 KCAL/MOL
REMARK 927      BINDING AFFINITY PREDICTED BY RF-SCORE:    0.00 PKD
ROOT
HETATM    1  C   UNL     1      -5.994  16.381  70.388  1.00  0.00     0.029 C  
HETATM    2  N   UNL     1      -6.906  15.574  69.594  1.00  0.00    -0.182 N  
HETATM    3  C   UNL     1      -8.331  15.825  69.788  1.00  0.00     0.139 C  
HETATM    4  C   UNL     1      -6.363  14.961  68.444  1.00  0.00    -0.105 C  
HETATM    5  O   UNL     1      -5.186  15.150  68.138  1.00  0.00    -0.103 OA 
ENDROOT
BRANCH   4   6
HETATM    6  C   UNL     1      -7.221  14.067  67.671  1.00  0.00    -0.176 A  
HETATM    7  C   UNL     1      -8.276  14.451  66.854  1.00  0.00    -0.048 A  
HETATM    8  C   UNL     1      -8.830  13.319  66.247  1.00  0.00     0.214 A  
HETATM    9  C   UNL     1      -9.822  13.080  65.312  1.00  0.00    -0.085 A  
HETATM   10  N   UNL     1     -10.173  11.813  65.025  1.00  0.00    -0.262 NA 
HETATM   11  C   UNL     1      -9.557  10.801  65.668  1.00  0.00    -0.216 A  
HETATM   12  N   UNL     1      -7.248  12.663  67.701  1.00  0.00    -0.128 NA 
HETATM   13  N   UNL     1      -8.538  10.941  66.541  1.00  0.00    -0.151 NA 
HETATM   14  C   UNL     1      -8.214  12.222  66.803  1.00  0.00    -0.058 A  
BRANCH  11  15
HETATM   15  N   UNL     1     -10.104   9.553  65.391  1.00  0.00    -0.337 NA 
HETATM   16  H   UNL     1     -11.003   9.584  64.909  1.00  0.00     0.000 HD 
BRANCH  15  17
HETATM   17  C   UNL     1      -9.640   8.273  65.657  1.00  0.00     0.259 A  
HETATM   18  C   UNL     1     -10.041   7.532  66.754  1.00  0.00    -0.313 A  
HETATM   19  C   UNL     1      -9.566   6.233  66.943  1.00  0.00    -0.173 A  
HETATM   20  N   UNL     1      -8.757   7.761  64.776  1.00  0.00     0.145 NA 
HETATM   21  C   UNL     1      -8.669   5.652  66.051  1.00  0.00    -0.144 A  
HETATM   22  C   UNL     1      -8.314   6.488  64.989  1.00  0.00    -0.075 A  
BRANCH  21  23
HETATM   23  N   UNL     1      -8.208   4.360  66.193  1.00  0.00    -0.102 NA 
HETATM   24  C   UNL     1      -6.774   4.063  66.356  1.00  0.00    -0.053 C  
HETATM   25  C   UNL     1      -6.498   3.494  67.771  1.00  0.00    -0.037 C  
HETATM   26  N   UNL     1      -7.336   2.330  68.119  1.00  0.00    -0.047 NA 
HETATM   27  C   UNL     1      -8.760   2.686  67.949  1.00  0.00    -0.110 C  
HETATM   28  H   UNL     1      -7.135   1.974  69.053  1.00  0.00     0.000 HD 
HETATM   29  C   UNL     1      -9.082   3.222  66.537  1.00  0.00    -0.162 C  
ENDBRANCH  21  23
ENDBRANCH  15  17
ENDBRANCH  11  15
BRANCH  12  30
HETATM   30  C   UNL     1      -6.463  11.791  68.570  1.00  0.00    -0.056 C  
HETATM   31  C   UNL     1      -5.195  11.511  70.601  1.00  0.00    -0.121 C  
HETATM   32  C   UNL     1      -7.254  10.824  69.475  1.00  0.00    -0.132 C  
HETATM   33  C   UNL     1      -6.501  10.758  70.809  1.00  0.00     0.247 C  
HETATM   34  C   UNL     1      -5.517  12.536  69.524  1.00  0.00    -0.083 C  
ENDBRANCH  12  30
ENDBRANCH   4   6
TORSDOF 5
ENDMDL
MODEL      133
REMARK 921   NORMALIZED FREE ENERGY PREDICTED BY IDOCK:    0.00 KCAL/MOL
REMARK 922        TOTAL FREE ENERGY PREDICTED BY IDOCK:   -0.88 KCAL/MOL
REMARK 923 INTER-LIGAND FREE ENERGY PREDICTED BY IDOCK:   -1.98 KCAL/MOL
REMARK 924 INTRA-LIGAND FREE ENERGY PREDICTED BY IDOCK:    1.10 KCAL/MOL
REMARK 927      BINDING AFFINITY PREDICTED BY RF-SCORE:    0.00 PKD
ROOT
HETATM    1  C   UNL     1      -9.023   4.684  64.472  1.00  0.00    -0.147 C  
HETATM    2  N   UNL     1      -8.828   5.940  65.177  1.00  0.00    -0.043 N  
HETATM    3  C   UNL     1      -9.070   7.159  64.412  1.00  0.00     1.300 C  
HETATM    4  C   UNL     1      -8.849   5.878  66.588  1.00  0.00    -0.123 C  
HETATM    5  O   UNL     1      -9.061   4.807  67.158  1.00  0.00    -0.113 OA 
ENDROOT
BRANCH   4   6
HETATM    6  C   UNL     1      -8.564   7.099  67.334  1.00  0.00    -0.121 A  
HETATM    7  C   UNL     1      -9.478   7.837  68.076  1.00  0.00    -0.153 A  
HETATM    8  C   UNL     1      -8.823   8.915  68.682  1.00  0.00    -0.137 A  
HETATM    9  C   UNL     1      -9.177   9.921  69.564  1.00  0.00    -0.223 A  
HETATM   10  N   UNL     1      -8.286  10.882  69.867  1.00  0.00     0.418 NA 
HETATM   11  C   UNL     1      -7.067  10.850  69.291  1.00  0.00    -0.124 A  
HETATM   12  N   UNL     1      -7.372   7.842  67.344  1.00  0.00    -0.090 NA 
HETATM   13  N   UNL     1      -6.618   9.874  68.476  1.00  0.00    -0.054 NA 
HETATM   14  C   UNL     1      -7.537   8.929  68.196  1.00  0.00    -0.093 A  
BRANCH  11  15
HETATM   15  N   UNL     1      -6.292  11.970  69.572  1.00  0.00    -0.117 NA 
HETATM   16  H   UNL     1      -5.462  11.778  70.134  1.00  0.00     0.000 HD 
BRANCH  15  17
HETATM   17  C   UNL     1      -6.450  13.303  69.221  1.00  0.00    -0.107 A  
HETATM   18  C   UNL     1      -5.527  14.005  68.468  1.00  0.00    -0.096 A  
HETATM   19  C   UNL     1      -5.766  15.335  68.116  1.00  0.00    -0.140 A  
HETATM   20  N   UNL     1      -7.575  13.906  69.654  1.00  0.00     0.358 NA 
HETATM   21  C   UNL     1      -6.922  15.997  68.521  1.00  0.00    -0.131 A  
HETATM   22  C   UNL     1      -7.779  15.205  69.291  1.00  0.00    -0.204 A  
BRANCH  21  23
HETATM   23  N   UNL     1      -7.200  17.298  68.162  1.00  0.00    -0.190 NA 
HETATM   24  C   UNL     1      -6.305  18.066  67.278  1.00  0.00    -0.164 C  
HETATM   25  C   UNL     1      -7.005  18.360  65.926  1.00  0.00    -0.271 C  
HETATM   26  N   UNL     1      -8.321  19.013  66.066  1.00  0.00    -0.473 NA 
HETATM   27  C   UNL     1      -9.178  18.197  66.950  1.00  0.00    -0.278 C  
HETATM   28  H   UNL     1      -8.759  19.197  65.164  1.00  0.00     0.000 HD 
HETATM   29  C   UNL     1      -8.530  17.915  68.324  1.00  0.00    -0.278 C  
ENDBRANCH  21  23
ENDBRANCH  15  17
ENDBRANCH  11  15
BRANCH  12  30
HETATM   30  C   UNL     1      -6.174   7.586  66.550  1.00  0.00    -0.045 C  
HETATM   31  C   UNL     1      -5.138   6.434  64.702  1.00  0.00    -0.021 C  
HETATM   32  C   UNL     1      -5.803   8.649  65.496  1.00  0.00    -0.048 C  
HETATM   33  C   UNL     1      -5.265   7.890  64.278  1.00  0.00    -0.036 C  
HETATM   34  C   UNL     1      -6.203   6.259  65.775  1.00  0.00    -0.037 C  
ENDBRANCH  12  30
ENDBRANCH   4   6
TORSDOF 5
ENDMDL
MODEL      134
REMARK 921   NORMALIZED FREE ENERGY PREDICTED BY IDOCK:    0.45 KCAL/MOL
REMARK 922        TOTAL FREE ENERGY PREDICTED BY IDOCK:   -0.32 KCAL/MOL
REMARK 923 INTER-LIGAND FREE ENERGY PREDICTED BY IDOCK:   -2.49 KCAL/MOL
REMARK 924 INTRA-LIGAND FREE ENERGY PREDICTED BY IDOCK:    2.17 KCAL/MOL
REMARK 927      BINDING AFFINITY PREDICTED BY RF-SCORE:    0.00 PKD
ROOT
HETATM    1  C   UNL     1     -11.136  17.346  65.204  1.00  0.00     0.354 C  
HETATM    2  N   UNL     1     -10.476  16.152  65.704  1.00  0.00    -0.374 N  
HETATM    3  C   UNL     1      -9.061  16.005  65.376  1.00  0.00     0.622 C  
HETATM    4  C   UNL     1     -11.109  15.489  66.779  1.00  0.00    -0.206 C  
HETATM    5  O   UNL     1     -12.143  15.946  67.266  1.00  0.00     0.543 OA 
ENDROOT
BRANCH   4   6
HETATM    6  C   UNL     1     -10.530  14.234  67.249  1.00  0.00    -0.269 A  
HETATM    7  C   UNL     1     -10.021  13.218  66.450  1.00  0.00    -0.288 A  
HETATM    8  C   UNL     1      -9.514  12.198  67.263  1.00  0.00    -0.184 A  
HETATM    9  C   UNL     1      -8.844  11.005  67.055  1.00  0.00    -0.143 A  
HETATM   10  N   UNL     1      -8.590  10.195  68.099  1.00  0.00    -0.117 NA 
HETATM   11  C   UNL     1      -9.009  10.559  69.327  1.00  0.00    -0.134 A  
HETATM   12  N   UNL     1     -10.495  13.744  68.565  1.00  0.00    -0.241 NA 
HETATM   13  N   UNL     1      -9.607  11.730  69.629  1.00  0.00     1.001 NA 
HETATM   14  C   UNL     1      -9.844  12.515  68.560  1.00  0.00    -0.149 A  
BRANCH  11  15
HETATM   15  N   UNL     1      -8.814   9.578  70.293  1.00  0.00    -0.233 NA 
HETATM   16  H   UNL     1      -8.840   9.921  71.254  1.00  0.00     0.000 HD 
BRANCH  15  17
HETATM   17  C   UNL     1      -8.589   8.214  70.177  1.00  0.00    -0.129 A  
HETATM   18  C   UNL     1      -7.326   7.656  70.096  1.00  0.00    -0.076 A  
HETATM   19  C   UNL     1      -7.167   6.271  70.021  1.00  0.00    -0.077 A  
HETATM   20  N   UNL     1      -9.683   7.427  70.148  1.00  0.00    -0.175 NA 
HETATM   21  C   UNL     1      -8.264   5.415  70.008  1.00  0.00    -0.095 A  
HETATM   22  C   UNL     1      -9.493   6.078  70.075  1.00  0.00    -0.156 A  
BRANCH  21  23
HETATM   23  N   UNL     1      -8.138   4.042  69.967  1.00  0.00    -0.057 NA 
HETATM   24  C   UNL     1      -6.957   3.356  70.521  1.00  0.00    -0.034 C  
HETATM   25  C   UNL     1      -7.355   2.509  71.755  1.00  0.00    -0.040 C  
HETATM   26  N   UNL     1      -8.460   1.564  71.498  1.00  0.00    -0.050 NA 
HETATM   27  C   UNL     1      -9.618   2.305  70.956  1.00  0.00    -0.131 C  
HETATM   28  H   UNL     1      -8.702   1.018  72.325  1.00  0.00     0.000 HD 
HETATM   29  C   UNL     1      -9.269   3.134  69.701  1.00  0.00    -0.151 C  
ENDBRANCH  21  23
ENDBRANCH  15  17
ENDBRANCH  11  15
BRANCH  12  30
HETATM   30  C   UNL     1     -11.096  14.359  69.745  1.00  0.00    -0.159 C  
HETATM   31  C   UNL     1     -12.739  15.860  70.670  1.00  0.00    -0.150 C  
HETATM   32  C   UNL     1     -12.110  13.502  70.530  1.00  0.00    -0.409 C  
HETATM   33  C   UNL     1     -13.216  14.454  71.002  1.00  0.00    -0.395 C  
HETATM   34  C   UNL     1     -11.832  15.678  69.463  1.00  0.00    -0.387 C  
ENDBRANCH  12  30
ENDBRANCH   4   6
TORSDOF 5
ENDMDL
MODEL      135
REMARK 921   NORMALIZED FREE ENERGY PREDICTED BY IDOCK:    1.28 KCAL/MOL
REMARK 922        TOTAL FREE ENERGY PREDICTED BY IDOCK:    0.77 KCAL/MOL
REMARK 923 INTER-LIGAND FREE ENERGY PREDICTED BY IDOCK:   -0.36 KCAL/MOL
REMARK 924 INTRA-LIGAND FREE ENERGY PREDICTED BY IDOCK:    1.12 KCAL/MOL
REMARK 927      BINDING AFFINITY PREDICTED BY RF-SCORE:    0.00 PKD
ROOT
HETATM    1  C   UNL     1     -11.398   5.029  67.955  1.00  0.00     2.441 C  
HETATM    2  N   UNL     1     -10.624   6.250  68.103  1.00  0.00    -0.227 N  
HETATM    3  C   UNL     1      -9.462   6.180  68.983  1.00  0.00    -0.127 C  
HETATM    4  C   UNL     1     -10.793   7.225  67.095  1.00  0.00    -0.308 C  
HETATM    5  O   UNL     1     -11.534   7.005  66.137  1.00  0.00     1.620 OA 
ENDROOT
BRANCH   4   6
HETATM    6  C   UNL     1     -10.105   8.503  67.254  1.00  0.00    -0.251 A  
HETATM    7  C   UNL     1     -10.679   9.762  67.122  1.00  0.00    -0.273 A  
HETATM    8  C   UNL     1      -9.716  10.741  67.390  1.00  0.00    -0.194 A  
HETATM    9  C   UNL     1      -9.705  12.122  67.483  1.00  0.00    -0.185 A  
HETATM   10  N   UNL     1      -8.539  12.766  67.665  1.00  0.00    -0.169 NA 
HETATM   11  C   UNL     1      -7.399  12.050  67.738  1.00  0.00    -0.113 A  
HETATM   12  N   UNL     1      -8.729   8.723  67.429  1.00  0.00    -0.129 NA 
HETATM   13  N   UNL     1      -7.325  10.703  67.724  1.00  0.00    -0.089 NA 
HETATM   14  C   UNL     1      -8.513  10.092  67.542  1.00  0.00    -0.118 A  
BRANCH  11  15
HETATM   15  N   UNL     1      -6.252  12.835  67.782  1.00  0.00    -0.121 NA 
HETATM   16  H   UNL     1      -5.381  12.316  67.664  1.00  0.00     0.000 HD 
BRANCH  15  17
HETATM   17  C   UNL     1      -6.086  14.201  67.958  1.00  0.00    -0.145 A  
HETATM   18  C   UNL     1      -5.290  14.748  68.948  1.00  0.00    -0.088 A  
HETATM   19  C   UNL     1      -5.135  16.132  69.046  1.00  0.00    -0.108 A  
HETATM   20  N   UNL     1      -6.750  15.000  67.099  1.00  0.00    -0.231 NA 
HETATM   21  C   UNL     1      -5.782  16.999  68.171  1.00  0.00    -0.120 A  
HETATM   22  C   UNL     1      -6.575  16.348  67.222  1.00  0.00    -0.187 A  
BRANCH  21  23
HETATM   23  N   UNL     1      -5.622  18.368  68.224  1.00  0.00    -0.173 NA 
HETATM   24  C   UNL     1      -6.158  19.251  67.172  1.00  0.00    -0.182 C  
HETATM   25  C   UNL     1      -7.294  20.138  67.741  1.00  0.00    -0.298 C  
HETATM   26  N   UNL     1      -6.908  20.900  68.945  1.00  0.00     0.261 NA 
HETATM   27  C   UNL     1      -6.391  19.967  69.967  1.00  0.00    -0.346 C  
HETATM   28  H   UNL     1      -7.672  21.477  69.299  1.00  0.00     0.000 HD 
HETATM   29  C   UNL     1      -5.230  19.090  69.448  1.00  0.00    -0.192 C  
ENDBRANCH  21  23
ENDBRANCH  15  17
ENDBRANCH  11  15
BRANCH  12  30
HETATM   30  C   UNL     1      -7.673   7.715  67.422  1.00  0.00    -0.117 C  
HETATM   31  C   UNL     1      -5.954   6.545  66.203  1.00  0.00    -0.029 C  
HETATM   32  C   UNL     1      -6.318   8.129  68.029  1.00  0.00    -0.055 C  
HETATM   33  C   UNL     1      -5.233   7.479  67.163  1.00  0.00    -0.029 C  
HETATM   34  C   UNL     1      -7.329   7.171  66.026  1.00  0.00    -0.075 C  
ENDBRANCH  12  30
ENDBRANCH   4   6
TORSDOF 5
ENDMDL
MODEL      136
REMARK 921   NORMALIZED FREE ENERGY PREDICTED BY IDOCK:    2.04 KCAL/MOL
REMARK 922        TOTAL FREE ENERGY PREDICTED BY IDOCK:    1.74 KCAL/MOL
REMARK 923 INTER-LIGAND FREE ENERGY PREDICTED BY IDOCK:   -3.20 KCAL/MOL
REMARK 924 INTRA-LIGAND FREE ENERGY PREDICTED BY IDOCK:    4.94 KCAL/MOL
REMARK 927      BINDING AFFINITY PREDICTED BY RF-SCORE:    0.00 PKD
ROOT
HETATM    1  C   UNL     1      -6.352  21.297  69.606  1.00  0.00     1.717 C  
HETATM    2  N   UNL     1      -6.632  19.906  69.292  1.00  0.00    -0.341 N  
HETATM    3  C   UNL     1      -7.212  19.640  67.979  1.00  0.00    -0.286 C  
HETATM    4  C   UNL     1      -5.948  18.940  70.062  1.00  0.00    -0.219 C  
HETATM    5  O   UNL     1      -5.138  19.290  70.919  1.00  0.00    -0.200 OA 
ENDROOT
BRANCH   4   6
HETATM    6  C   UNL     1      -6.270  17.532  69.842  1.00  0.00    -0.116 A  
HETATM    7  C   UNL     1      -5.446  16.451  70.129  1.00  0.00    -0.188 A  
HETATM    8  C   UNL     1      -6.118  15.262  69.822  1.00  0.00    -0.144 A  
HETATM    9  C   UNL     1      -5.850  13.910  69.953  1.00  0.00    -0.124 A  
HETATM   10  N   UNL     1      -6.709  13.011  69.441  1.00  0.00    -0.065 NA 
HETATM   11  C   UNL     1      -7.810  13.449  68.797  1.00  0.00    -0.009 A  
HETATM   12  N   UNL     1      -7.389  16.999  69.183  1.00  0.00    -0.225 NA 
HETATM   13  N   UNL     1      -8.181  14.741  68.682  1.00  0.00    -0.152 NA 
HETATM   14  C   UNL     1      -7.297  15.612  69.208  1.00  0.00    -0.207 A  
BRANCH  11  15
HETATM   15  N   UNL     1      -8.540  12.433  68.192  1.00  0.00    -0.180 NA 
HETATM   16  H   UNL     1      -9.543  12.611  68.133  1.00  0.00     0.000 HD 
BRANCH  15  17
HETATM   17  C   UNL     1      -8.143  11.217  67.655  1.00  0.00    -0.117 A  
HETATM   18  C   UNL     1      -8.430  10.828  66.359  1.00  0.00    -0.158 A  
HETATM   19  C   UNL     1      -7.966   9.606  65.867  1.00  0.00    -0.112 A  
HETATM   20  N   UNL     1      -7.441  10.403  68.469  1.00  0.00    -0.086 NA 
HETATM   21  C   UNL     1      -7.220   8.740  66.662  1.00  0.00    -0.081 A  
HETATM   22  C   UNL     1      -7.001   9.217  67.957  1.00  0.00    -0.076 A  
BRANCH  21  23
HETATM   23  N   UNL     1      -6.721   7.543  66.194  1.00  0.00    -0.052 NA 
HETATM   24  C   UNL     1      -6.106   6.555  67.097  1.00  0.00    -0.028 C  
HETATM   25  C   UNL     1      -6.976   5.275  67.171  1.00  0.00    -0.065 C  
HETATM   26  N   UNL     1      -7.284   4.687  65.852  1.00  0.00    -0.074 NA 
HETATM   27  C   UNL     1      -7.908   5.715  64.994  1.00  0.00    -0.101 C  
HETATM   28  H   UNL     1      -7.857   3.847  65.928  1.00  0.00     0.000 HD 
HETATM   29  C   UNL     1      -7.050   6.993  64.865  1.00  0.00    -0.064 C  
ENDBRANCH  21  23
ENDBRANCH  15  17
ENDBRANCH  11  15
BRANCH  12  30
HETATM   30  C   UNL     1      -8.448  17.748  68.511  1.00  0.00    -0.296 C  
HETATM   31  C   UNL     1      -9.632  18.258  66.474  1.00  0.00    -0.320 C  
HETATM   32  C   UNL     1      -9.883  17.206  68.666  1.00  0.00    -0.300 C  
HETATM   33  C   UNL     1     -10.582  17.423  67.318  1.00  0.00    -0.284 C  
HETATM   34  C   UNL     1      -8.247  17.901  66.995  1.00  0.00    -0.241 C  
ENDBRANCH  12  30
ENDBRANCH   4   6
TORSDOF 5
ENDMDL
MODEL      137
REMARK 921   NORMALIZED FREE ENERGY PREDICTED BY IDOCK:    3.46 KCAL/MOL
REMARK 922        TOTAL FREE ENERGY PREDICTED BY IDOCK:    3.58 KCAL/MOL
REMARK 923 INTER-LIGAND FREE ENERGY PREDICTED BY IDOCK:    3.33 KCAL/MOL
REMARK 924 INTRA-LIGAND FREE ENERGY PREDICTED BY IDOCK:    0.25 KCAL/MOL
REMARK 927      BINDING AFFINITY PREDICTED BY RF-SCORE:    0.00 PKD
ROOT
HETATM    1  C   UNL     1     -11.262   3.371  70.224  1.00  0.00     5.747 C  
HETATM    2  N   UNL     1     -10.230   4.394  70.257  1.00  0.00    -0.101 N  
HETATM    3  C   UNL     1      -8.954   4.049  69.638  1.00  0.00    -0.101 C  
HETATM    4  C   UNL     1     -10.667   5.718  70.479  1.00  0.00    -0.291 C  
HETATM    5  O   UNL     1     -11.867   5.964  70.597  1.00  0.00     0.036 OA 
ENDROOT
BRANCH   4   6
HETATM    6  C   UNL     1      -9.655   6.762  70.613  1.00  0.00    -0.169 A  
HETATM    7  C   UNL     1      -9.393   7.505  71.757  1.00  0.00    -0.168 A  
HETATM    8  C   UNL     1      -8.325   8.376  71.510  1.00  0.00    -0.196 A  
HETATM    9  C   UNL     1      -7.592   9.281  72.257  1.00  0.00     0.825 A  
HETATM   10  N   UNL     1      -6.668  10.049  71.651  1.00  0.00     0.072 NA 
HETATM   11  C   UNL     1      -6.488   9.928  70.320  1.00  0.00    -0.103 A  
HETATM   12  N   UNL     1      -8.853   7.316  69.602  1.00  0.00    -0.141 NA 
HETATM   13  N   UNL     1      -7.109   9.029  69.530  1.00  0.00    -0.057 NA 
HETATM   14  C   UNL     1      -8.025   8.277  70.172  1.00  0.00    -0.106 A  
BRANCH  11  15
HETATM   15  N   UNL     1      -5.613  10.870  69.791  1.00  0.00    -0.042 NA 
HETATM   16  H   UNL     1      -4.666  10.524  69.632  1.00  0.00     0.000 HD 
BRANCH  15  17
HETATM   17  C   UNL     1      -5.803  12.200  69.443  1.00  0.00    -0.087 A  
HETATM   18  C   UNL     1      -6.498  13.099  70.230  1.00  0.00     0.212 A  
HETATM   19  C   UNL     1      -6.620  14.435  69.840  1.00  0.00    -0.133 A  
HETATM   20  N   UNL     1      -5.265  12.594  68.271  1.00  0.00    -0.060 NA 
HETATM   21  C   UNL     1      -6.066  14.896  68.650  1.00  0.00    -0.087 A  
HETATM   22  C   UNL     1      -5.401  13.906  67.920  1.00  0.00    -0.078 A  
BRANCH  21  23
HETATM   23  N   UNL     1      -6.141  16.215  68.254  1.00  0.00    -0.105 NA 
HETATM   24  C   UNL     1      -6.050  16.604  66.836  1.00  0.00    -0.134 C  
HETATM   25  C   UNL     1      -7.401  17.187  66.349  1.00  0.00    -0.299 C  
HETATM   26  N   UNL     1      -7.909  18.293  67.184  1.00  0.00    -0.216 NA 
HETATM   27  C   UNL     1      -7.990  17.845  68.589  1.00  0.00    -0.281 C  
HETATM   28  H   UNL     1      -8.797  18.659  66.842  1.00  0.00     0.000 HD 
HETATM   29  C   UNL     1      -6.651  17.292  69.123  1.00  0.00    -0.239 C  
ENDBRANCH  21  23
ENDBRANCH  15  17
ENDBRANCH  11  15
BRANCH  12  30
HETATM   30  C   UNL     1      -8.908   7.011  68.175  1.00  0.00    -0.129 C  
HETATM   31  C   UNL     1     -10.031   7.269  66.057  1.00  0.00     0.363 C  
HETATM   32  C   UNL     1      -7.976   7.827  67.257  1.00  0.00    -0.118 C  
HETATM   33  C   UNL     1      -8.755   8.092  65.964  1.00  0.00    -0.183 C  
HETATM   34  C   UNL     1     -10.304   7.162  67.550  1.00  0.00    -0.303 C  
ENDBRANCH  12  30
ENDBRANCH   4   6
TORSDOF 5
ENDMDL
MODEL      138
REMARK 921   NORMALIZED FREE ENERGY PREDICTED BY IDOCK:   10.37 KCAL/MOL
REMARK 922        TOTAL FREE ENERGY PREDICTED BY IDOCK:   12.51 KCAL/MOL
REMARK 923 INTER-LIGAND FREE ENERGY PREDICTED BY IDOCK:   13.35 KCAL/MOL
REMARK 924 INTRA-LIGAND FREE ENERGY PREDICTED BY IDOCK:   -0.84 KCAL/MOL
REMARK 927      BINDING AFFINITY PREDICTED BY RF-SCORE:    0.00 PKD
ROOT
HETATM    1  C   UNL     1      -9.293   5.075  63.525  1.00  0.00     0.292 C  
HETATM    2  N   UNL     1      -9.831   6.308  64.073  1.00  0.00     2.859 N  
HETATM    3  C   UNL     1     -10.744   6.173  65.204  1.00  0.00     3.121 C  
HETATM    4  C   UNL     1      -9.123   7.492  63.768  1.00  0.00     1.640 C  
HETATM    5  O   UNL     1      -8.089   7.441  63.103  1.00  0.00    -0.116 OA 
ENDROOT
BRANCH   4   6
HETATM    6  C   UNL     1      -9.682   8.763  64.220  1.00  0.00     1.844 A  
HETATM    7  C   UNL     1     -10.658   9.505  63.567  1.00  0.00     4.049 A  
HETATM    8  C   UNL     1     -10.966  10.638  64.328  1.00  0.00     0.488 A  
HETATM    9  C   UNL     1     -11.875  11.678  64.235  1.00  0.00    -0.130 A  
HETATM   10  N   UNL     1     -11.822  12.687  65.123  1.00  0.00    -0.374 NA 
HETATM   11  C   UNL     1     -10.872  12.669  66.079  1.00  0.00    -0.277 A  
HETATM   12  N   UNL     1      -9.262   9.549  65.305  1.00  0.00    -0.234 NA 
HETATM   13  N   UNL     1      -9.994  11.667  66.283  1.00  0.00    -0.211 NA 
HETATM   14  C   UNL     1     -10.076  10.674  65.375  1.00  0.00    -0.291 A  
BRANCH  11  15
HETATM   15  N   UNL     1     -10.832  13.830  66.843  1.00  0.00    -0.283 NA 
HETATM   16  H   UNL     1     -11.724  14.323  66.909  1.00  0.00     0.000 HD 
BRANCH  15  17
HETATM   17  C   UNL     1      -9.791  14.436  67.531  1.00  0.00    -0.220 A  
HETATM   18  C   UNL     1      -9.937  15.006  68.783  1.00  0.00    -0.228 A  
HETATM   19  C   UNL     1      -8.839  15.565  69.439  1.00  0.00    -0.257 A  
HETATM   20  N   UNL     1      -8.592  14.445  66.916  1.00  0.00    -0.199 NA 
HETATM   21  C   UNL     1      -7.576  15.581  68.855  1.00  0.00    -0.166 A  
HETATM   22  C   UNL     1      -7.539  14.997  67.585  1.00  0.00    -0.178 A  
BRANCH  21  23
HETATM   23  N   UNL     1      -6.466  16.096  69.491  1.00  0.00    -0.191 NA 
HETATM   24  C   UNL     1      -5.342  16.678  68.738  1.00  0.00    -0.122 C  
HETATM   25  C   UNL     1      -5.244  18.201  69.005  1.00  0.00    -0.183 C  
HETATM   26  N   UNL     1      -5.176  18.552  70.437  1.00  0.00    -0.226 NA 
HETATM   27  C   UNL     1      -6.331  17.954  71.139  1.00  0.00     1.888 C  
HETATM   28  H   UNL     1      -5.112  19.559  70.586  1.00  0.00     0.000 HD 
HETATM   29  C   UNL     1      -6.440  16.428  70.928  1.00  0.00     1.462 C  
ENDBRANCH  21  23
ENDBRANCH  15  17
ENDBRANCH  11  15
BRANCH  12  30
HETATM   30  C   UNL     1      -8.122   9.294  66.181  1.00  0.00    -0.110 C  
HETATM   31  C   UNL     1      -6.665   7.698  67.249  1.00  0.00    -0.068 C  
HETATM   32  C   UNL     1      -6.721   9.464  65.560  1.00  0.00    -0.075 C  
HETATM   33  C   UNL     1      -5.840   8.359  66.155  1.00  0.00    -0.044 C  
HETATM   34  C   UNL     1      -8.108   7.889  66.805  1.00  0.00    -0.108 C  
ENDBRANCH  12  30
ENDBRANCH   4   6
TORSDOF 5
ENDMDL
MODEL      139
REMARK 921   NORMALIZED FREE ENERGY PREDICTED BY IDOCK:   11.83 KCAL/MOL
REMARK 922        TOTAL FREE ENERGY PREDICTED BY IDOCK:   14.40 KCAL/MOL
REMARK 923 INTER-LIGAND FREE ENERGY PREDICTED BY IDOCK:   13.25 KCAL/MOL
REMARK 924 INTRA-LIGAND FREE ENERGY PREDICTED BY IDOCK:    1.15 KCAL/MOL
REMARK 927      BINDING AFFINITY PREDICTED BY RF-SCORE:    0.00 PKD
ROOT
HETATM    1  C   UNL     1     -14.180  11.406  63.239  1.00  0.00     4.017 C  
HETATM    2  N   UNL     1     -13.263  12.020  64.185  1.00  0.00    -0.030 N  
HETATM    3  C   UNL     1     -13.695  13.278  64.785  1.00  0.00     2.085 C  
HETATM    4  C   UNL     1     -12.282  11.174  64.747  1.00  0.00     1.495 C  
HETATM    5  O   UNL     1     -12.256   9.977  64.459  1.00  0.00     5.649 OA 
ENDROOT
BRANCH   4   6
HETATM    6  C   UNL     1     -11.283  11.771  65.629  1.00  0.00    -0.267 A  
HETATM    7  C   UNL     1     -11.534  12.403  66.840  1.00  0.00    -0.423 A  
HETATM    8  C   UNL     1     -10.324  12.805  67.415  1.00  0.00    -0.222 A  
HETATM    9  C   UNL     1      -9.939  13.398  68.605  1.00  0.00    -0.135 A  
HETATM   10  N   UNL     1      -8.653  13.745  68.788  1.00  0.00    -0.043 NA 
HETATM   11  C   UNL     1      -7.766  13.519  67.799  1.00  0.00    -0.163 A  
HETATM   12  N   UNL     1      -9.913  11.951  65.378  1.00  0.00    -0.249 NA 
HETATM   13  N   UNL     1      -8.039  12.888  66.639  1.00  0.00     0.165 NA 
HETATM   14  C   UNL     1      -9.337  12.555  66.490  1.00  0.00    -0.233 A  
BRANCH  11  15
HETATM   15  N   UNL     1      -6.505  14.049  68.052  1.00  0.00    -0.132 NA 
HETATM   16  H   UNL     1      -5.731  13.464  67.739  1.00  0.00     0.000 HD 
BRANCH  15  17
HETATM   17  C   UNL     1      -6.118  15.236  68.657  1.00  0.00    -0.089 A  
HETATM   18  C   UNL     1      -5.466  16.254  67.985  1.00  0.00    -0.119 A  
HETATM   19  C   UNL     1      -5.138  17.441  68.644  1.00  0.00    -0.143 A  
HETATM   20  N   UNL     1      -6.413  15.365  69.966  1.00  0.00    -0.152 NA 
HETATM   21  C   UNL     1      -5.440  17.631  69.989  1.00  0.00    -0.239 A  
HETATM   22  C   UNL     1      -6.081  16.538  70.579  1.00  0.00     0.291 A  
BRANCH  21  23
HETATM   23  N   UNL     1      -5.159  18.804  70.658  1.00  0.00    -0.217 NA 
HETATM   24  C   UNL     1      -5.127  20.103  69.962  1.00  0.00    -0.211 C  
HETATM   25  C   UNL     1      -6.286  21.006  70.455  1.00  0.00     1.211 C  
HETATM   26  N   UNL     1      -6.327  21.176  71.921  1.00  0.00     0.361 NA 
HETATM   27  C   UNL     1      -6.369  19.847  72.564  1.00  0.00     1.129 C  
HETATM   28  H   UNL     1      -7.097  21.775  72.219  1.00  0.00     0.000 HD 
HETATM   29  C   UNL     1      -5.207  18.929  72.126  1.00  0.00     0.320 C  
ENDBRANCH  21  23
ENDBRANCH  15  17
ENDBRANCH  11  15
BRANCH  12  30
HETATM   30  C   UNL     1      -9.200  11.638  64.142  1.00  0.00     0.172 C  
HETATM   31  C   UNL     1      -7.665  10.205  62.959  1.00  0.00    -0.149 C  
HETATM   32  C   UNL     1     -10.004  10.909  63.047  1.00  0.00    -0.317 C  
HETATM   33  C   UNL     1      -9.045   9.910  62.390  1.00  0.00    -0.308 C  
HETATM   34  C   UNL     1      -7.940  10.782  64.340  1.00  0.00     0.195 C  
ENDBRANCH  12  30
ENDBRANCH   4   6
TORSDOF 5
ENDMDL
MODEL      140
REMARK 921   NORMALIZED FREE ENERGY PREDICTED BY IDOCK:   11.95 KCAL/MOL
REMARK 922        TOTAL FREE ENERGY PREDICTED BY IDOCK:   14.56 KCAL/MOL
REMARK 923 INTER-LIGAND FREE ENERGY PREDICTED BY IDOCK:   13.75 KCAL/MOL
REMARK 924 INTRA-LIGAND FREE ENERGY PREDICTED BY IDOCK:    0.80 KCAL/MOL
REMARK 927      BINDING AFFINITY PREDICTED BY RF-SCORE:    0.00 PKD
ROOT
HETATM    1  C   UNL     1      -7.222   4.722  67.639  1.00  0.00    -0.070 C  
HETATM    2  N   UNL     1      -7.841   6.032  67.751  1.00  0.00    -0.104 N  
HETATM    3  C   UNL     1      -7.830   6.861  66.549  1.00  0.00    -0.106 C  
HETATM    4  C   UNL     1      -8.742   6.211  68.823  1.00  0.00    -0.119 C  
HETATM    5  O   UNL     1      -8.996   5.275  69.582  1.00  0.00    -0.105 OA 
ENDROOT
BRANCH   4   6
HETATM    6  C   UNL     1      -9.314   7.539  69.027  1.00  0.00    -0.146 A  
HETATM    7  C   UNL     1      -8.805   8.733  68.532  1.00  0.00    -0.138 A  
HETATM    8  C   UNL     1      -9.651   9.786  68.899  1.00  0.00    -0.167 A  
HETATM    9  C   UNL     1      -9.706  11.146  68.650  1.00  0.00    -0.198 A  
HETATM   10  N   UNL     1     -10.635  11.897  69.269  1.00  0.00    -0.057 NA 
HETATM   11  C   UNL     1     -11.485  11.307  70.133  1.00  0.00    -0.247 A  
HETATM   12  N   UNL     1     -10.388   7.893  69.859  1.00  0.00    -0.218 NA 
HETATM   13  N   UNL     1     -11.545   9.983  70.383  1.00  0.00    -0.284 NA 
HETATM   14  C   UNL     1     -10.601   9.263  69.745  1.00  0.00    -0.231 A  
BRANCH  11  15
HETATM   15  N   UNL     1     -12.299  12.207  70.812  1.00  0.00    -0.358 NA 
HETATM   16  H   UNL     1     -13.183  11.814  71.137  1.00  0.00     0.000 HD 
BRANCH  15  17
HETATM   17  C   UNL     1     -12.118  13.546  71.125  1.00  0.00    -0.066 A  
HETATM   18  C   UNL     1     -11.707  14.493  70.203  1.00  0.00    -0.357 A  
HETATM   19  C   UNL     1     -11.582  15.833  70.573  1.00  0.00    -0.396 A  
HETATM   20  N   UNL     1     -12.367  13.902  72.400  1.00  0.00     0.045 NA 
HETATM   21  C   UNL     1     -11.848  16.255  71.873  1.00  0.00    -0.462 A  
HETATM   22  C   UNL     1     -12.237  15.220  72.729  1.00  0.00    -0.408 A  
BRANCH  21  23
HETATM   23  N   UNL     1     -11.765  17.576  72.260  1.00  0.00     1.460 NA 
HETATM   24  C   UNL     1     -12.032  17.995  73.647  1.00  0.00     1.767 C  
HETATM   25  C   UNL     1     -10.735  18.524  74.310  1.00  0.00     3.164 C  
HETATM   26  N   UNL     1     -10.065  19.591  73.541  1.00  0.00     2.393 NA 
HETATM   27  C   UNL     1      -9.812  19.113  72.166  1.00  0.00     4.566 C  
HETATM   28  H   UNL     1      -9.216  19.922  73.998  1.00  0.00     0.000 HD 
HETATM   29  C   UNL     1     -11.089  18.613  71.457  1.00  0.00     4.105 C  
ENDBRANCH  21  23
ENDBRANCH  15  17
ENDBRANCH  11  15
BRANCH  12  30
HETATM   30  C   UNL     1     -11.127   7.012  70.758  1.00  0.00    -0.273 C  
HETATM   31  C   UNL     1     -12.539   6.765  72.696  1.00  0.00     0.460 C  
HETATM   32  C   UNL     1     -12.502   6.515  70.265  1.00  0.00     0.467 C  
HETATM   33  C   UNL     1     -13.423   6.487  71.490  1.00  0.00     0.179 C  
HETATM   34  C   UNL     1     -11.401   7.612  72.146  1.00  0.00    -0.341 C  
ENDBRANCH  12  30
ENDBRANCH   4   6
TORSDOF 5
ENDMDL
MODEL      141
REMARK 921   NORMALIZED FREE ENERGY PREDICTED BY IDOCK:   16.58 KCAL/MOL
REMARK 922        TOTAL FREE ENERGY PREDICTED BY IDOCK:   20.54 KCAL/MOL
REMARK 923 INTER-LIGAND FREE ENERGY PREDICTED BY IDOCK:   20.33 KCAL/MOL
REMARK 924 INTRA-LIGAND FREE ENERGY PREDICTED BY IDOCK:    0.20 KCAL/MOL
REMARK 927      BINDING AFFINITY PREDICTED BY RF-SCORE:    0.00 PKD
ROOT
HETATM    1  C   UNL     1      -8.397  20.868  72.440  1.00  0.00     3.492 C  
HETATM    2  N   UNL     1      -8.748  19.780  71.543  1.00  0.00     2.685 N  
HETATM    3  C   UNL     1     -10.007  19.917  70.818  1.00  0.00     1.553 C  
HETATM    4  C   UNL     1      -7.690  18.938  71.135  1.00  0.00     4.274 C  
HETATM    5  O   UNL     1      -6.539  19.163  71.507  1.00  0.00     0.964 OA 
ENDROOT
BRANCH   4   6
HETATM    6  C   UNL     1      -8.015  17.779  70.309  1.00  0.00     2.852 A  
HETATM    7  C   UNL     1      -8.244  16.487  70.766  1.00  0.00     4.180 A  
HETATM    8  C   UNL     1      -8.568  15.662  69.684  1.00  0.00    -0.079 A  
HETATM    9  C   UNL     1      -8.953  14.342  69.524  1.00  0.00     0.575 A  
HETATM   10  N   UNL     1      -9.091  13.836  68.285  1.00  0.00    -0.194 NA 
HETATM   11  C   UNL     1      -8.837  14.626  67.223  1.00  0.00    -0.207 A  
HETATM   12  N   UNL     1      -8.025  17.698  68.907  1.00  0.00    -0.229 NA 
HETATM   13  N   UNL     1      -8.524  15.936  67.286  1.00  0.00    -0.173 NA 
HETATM   14  C   UNL     1      -8.395  16.408  68.542  1.00  0.00    -0.202 A  
BRANCH  11  15
HETATM   15  N   UNL     1      -8.876  13.952  66.008  1.00  0.00    -0.214 NA 
HETATM   16  H   UNL     1      -8.959  14.558  65.191  1.00  0.00     0.000 HD 
BRANCH  15  17
HETATM   17  C   UNL     1      -8.822  12.597  65.713  1.00  0.00     0.573 A  
HETATM   18  C   UNL     1      -9.888  11.736  65.897  1.00  0.00    -0.265 A  
HETATM   19  C   UNL     1      -9.780  10.390  65.542  1.00  0.00    -0.307 A  
HETATM   20  N   UNL     1      -7.653  12.138  65.222  1.00  0.00     2.270 NA 
HETATM   21  C   UNL     1      -8.603   9.871  65.013  1.00  0.00    -0.161 A  
HETATM   22  C   UNL     1      -7.582  10.817  64.884  1.00  0.00     0.200 A  
BRANCH  21  23
HETATM   23  N   UNL     1      -8.477   8.554  64.623  1.00  0.00    -0.147 NA 
HETATM   24  C   UNL     1      -7.437   8.124  63.672  1.00  0.00    -0.120 C  
HETATM   25  C   UNL     1      -6.406   7.207  64.377  1.00  0.00    -0.037 C  
HETATM   26  N   UNL     1      -7.012   6.056  65.075  1.00  0.00    -0.057 NA 
HETATM   27  C   UNL     1      -8.036   6.545  66.022  1.00  0.00    -0.112 C  
HETATM   28  H   UNL     1      -6.314   5.468  65.530  1.00  0.00     0.000 HD 
HETATM   29  C   UNL     1      -9.104   7.433  65.348  1.00  0.00     0.309 C  
ENDBRANCH  21  23
ENDBRANCH  15  17
ENDBRANCH  11  15
BRANCH  12  30
HETATM   30  C   UNL     1      -7.643  18.748  67.967  1.00  0.00    -0.261 C  
HETATM   31  C   UNL     1      -6.910  21.015  67.601  1.00  0.00    -0.370 C  
HETATM   32  C   UNL     1      -6.211  18.682  67.400  1.00  0.00    -0.187 C  
HETATM   33  C   UNL     1      -5.713  20.128  67.295  1.00  0.00    -0.184 C  
HETATM   34  C   UNL     1      -7.779  20.174  68.524  1.00  0.00    -0.091 C  
ENDBRANCH  12  30
ENDBRANCH   4   6
TORSDOF 5
ENDMDL
MODEL      142
REMARK 921   NORMALIZED FREE ENERGY PREDICTED BY IDOCK:   19.48 KCAL/MOL
REMARK 922        TOTAL FREE ENERGY PREDICTED BY IDOCK:   24.28 KCAL/MOL
REMARK 923 INTER-LIGAND FREE ENERGY PREDICTED BY IDOCK:   23.77 KCAL/MOL
REMARK 924 INTRA-LIGAND FREE ENERGY PREDICTED BY IDOCK:    0.51 KCAL/MOL
REMARK 927      BINDING AFFINITY PREDICTED BY RF-SCORE:    0.00 PKD
ROOT
HETATM    1  C   UNL     1      -6.499  16.572  71.250  1.00  0.00     2.383 C  
HETATM    2  N   UNL     1      -7.359  15.668  70.505  1.00  0.00     0.808 N  
HETATM    3  C   UNL     1      -8.638  15.331  71.123  1.00  0.00     3.246 C  
HETATM    4  C   UNL     1      -7.095  15.547  69.123  1.00  0.00    -0.164 C  
HETATM    5  O   UNL     1      -6.201  16.214  68.602  1.00  0.00    -0.113 OA 
ENDROOT
BRANCH   4   6
HETATM    6  C   UNL     1      -7.875  14.580  68.356  1.00  0.00    -0.135 A  
HETATM    7  C   UNL     1      -8.769  14.875  67.335  1.00  0.00    -0.208 A  
HETATM    8  C   UNL     1      -9.287  13.685  66.812  1.00  0.00    -0.269 A  
HETATM    9  C   UNL     1     -10.137  13.346  65.773  1.00  0.00    -0.288 A  
HETATM   10  N   UNL     1     -10.512  12.064  65.615  1.00  0.00    -0.247 NA 
HETATM   11  C   UNL     1     -10.061  11.137  66.484  1.00  0.00    -0.223 A  
HETATM   12  N   UNL     1      -7.987  13.197  68.578  1.00  0.00    -0.126 NA 
HETATM   13  N   UNL     1      -9.182  11.368  67.480  1.00  0.00    -0.159 NA 
HETATM   14  C   UNL     1      -8.828  12.662  67.608  1.00  0.00    -0.184 A  
BRANCH  11  15
HETATM   15  N   UNL     1     -10.630   9.882  66.301  1.00  0.00    -0.087 NA 
HETATM   16  H   UNL     1     -11.650   9.872  66.332  1.00  0.00     0.000 HD 
BRANCH  15  17
HETATM   17  C   UNL     1     -10.052   8.639  66.084  1.00  0.00    -0.035 A  
HETATM   18  C   UNL     1     -10.360   7.517  66.831  1.00  0.00    -0.379 A  
HETATM   19  C   UNL     1      -9.771   6.286  66.535  1.00  0.00    -0.180 A  
HETATM   20  N   UNL     1      -9.151   8.565  65.084  1.00  0.00    -0.015 NA 
HETATM   21  C   UNL     1      -8.851   6.152  65.500  1.00  0.00    -0.051 A  
HETATM   22  C   UNL     1      -8.595   7.347  64.820  1.00  0.00     0.209 A  
BRANCH  21  23
HETATM   23  N   UNL     1      -8.277   4.944  65.163  1.00  0.00    -0.119 NA 
HETATM   24  C   UNL     1      -9.022   3.677  65.270  1.00  0.00    -0.135 C  
HETATM   25  C   UNL     1      -9.265   3.074  63.863  1.00  0.00    -0.105 C  
HETATM   26  N   UNL     1      -8.035   2.915  63.063  1.00  0.00    -0.068 NA 
HETATM   27  C   UNL     1      -7.337   4.214  62.979  1.00  0.00    -0.049 C  
HETATM   28  H   UNL     1      -8.221   2.515  62.143  1.00  0.00     0.000 HD 
HETATM   29  C   UNL     1      -7.042   4.830  64.364  1.00  0.00    -0.050 C  
ENDBRANCH  21  23
ENDBRANCH  15  17
ENDBRANCH  11  15
BRANCH  12  30
HETATM   30  C   UNL     1      -7.396  12.436  69.675  1.00  0.00     0.626 C  
HETATM   31  C   UNL     1      -5.928  12.383  71.586  1.00  0.00     1.268 C  
HETATM   32  C   UNL     1      -8.276  12.226  70.923  1.00  0.00     8.202 C  
HETATM   33  C   UNL     1      -7.345  12.324  72.137  1.00  0.00    10.484 C  
HETATM   34  C   UNL     1      -6.082  13.022  70.214  1.00  0.00    -0.071 C  
ENDBRANCH  12  30
ENDBRANCH   4   6
TORSDOF 5
ENDMDL
MODEL      143
REMARK 921   NORMALIZED FREE ENERGY PREDICTED BY IDOCK:   37.99 KCAL/MOL
REMARK 922        TOTAL FREE ENERGY PREDICTED BY IDOCK:   48.20 KCAL/MOL
REMARK 923 INTER-LIGAND FREE ENERGY PREDICTED BY IDOCK:   47.47 KCAL/MOL
REMARK 924 INTRA-LIGAND FREE ENERGY PREDICTED BY IDOCK:    0.74 KCAL/MOL
REMARK 927      BINDING AFFINITY PREDICTED BY RF-SCORE:    0.00 PKD
ROOT
HETATM    1  C   UNL     1      -6.616   5.511  66.931  1.00  0.00    -0.056 C  
HETATM    2  N   UNL     1      -6.939   6.918  67.107  1.00  0.00    -0.072 N  
HETATM    3  C   UNL     1      -6.872   7.754  65.912  1.00  0.00    -0.057 C  
HETATM    4  C   UNL     1      -7.677   7.252  68.263  1.00  0.00    -0.120 C  
HETATM    5  O   UNL     1      -8.044   6.371  69.041  1.00  0.00    -0.109 OA 
ENDROOT
BRANCH   4   6
HETATM    6  C   UNL     1      -7.941   8.664  68.526  1.00  0.00    -0.116 A  
HETATM    7  C   UNL     1      -7.160   9.734  68.108  1.00  0.00    -0.078 A  
HETATM    8  C   UNL     1      -7.758  10.932  68.512  1.00  0.00    -0.119 A  
HETATM    9  C   UNL     1      -7.496  12.280  68.336  1.00  0.00    -0.122 A  
HETATM   10  N   UNL     1      -8.251  13.192  68.974  1.00  0.00     0.247 NA 
HETATM   11  C   UNL     1      -9.241  12.770  69.786  1.00  0.00     2.479 A  
HETATM   12  N   UNL     1      -8.935   9.213  69.352  1.00  0.00    -0.143 NA 
HETATM   13  N   UNL     1      -9.607  11.484  69.963  1.00  0.00     1.656 NA 
HETATM   14  C   UNL     1      -8.829  10.599  69.308  1.00  0.00    -0.077 A  
BRANCH  11  15
HETATM   15  N   UNL     1      -9.853  13.797  70.495  1.00  0.00     2.324 NA 
HETATM   16  H   UNL     1     -10.722  13.531  70.959  1.00  0.00     0.000 HD 
BRANCH  15  17
HETATM   17  C   UNL     1      -9.488  15.123  70.681  1.00  0.00     1.224 A  
HETATM   18  C   UNL     1      -9.122  15.963  69.645  1.00  0.00    -0.049 A  
HETATM   19  C   UNL     1      -8.802  17.299  69.896  1.00  0.00     1.564 A  
HETATM   20  N   UNL     1      -9.505  15.576  71.951  1.00  0.00     3.878 NA 
HETATM   21  C   UNL     1      -8.825  17.820  71.186  1.00  0.00     7.808 A  
HETATM   22  C   UNL     1      -9.189  16.887  72.162  1.00  0.00    11.357 A  
BRANCH  21  23
HETATM   23  N   UNL     1      -8.547  19.142  71.461  1.00  0.00     5.168 NA 
HETATM   24  C   UNL     1      -8.525  19.659  72.841  1.00  0.00     4.435 C  
HETATM   25  C   UNL     1      -7.087  20.077  73.238  1.00  0.00     5.168 C  
HETATM   26  N   UNL     1      -6.460  21.024  72.294  1.00  0.00     0.468 NA 
HETATM   27  C   UNL     1      -6.499  20.452  70.933  1.00  0.00     0.142 C  
HETATM   28  H   UNL     1      -5.516  21.284  72.578  1.00  0.00     0.000 HD 
HETATM   29  C   UNL     1      -7.923  20.057  70.486  1.00  0.00     1.348 C  
ENDBRANCH  21  23
ENDBRANCH  15  17
ENDBRANCH  11  15
BRANCH  12  30
HETATM   30  C   UNL     1      -9.883   8.481  70.186  1.00  0.00    -0.178 C  
HETATM   31  C   UNL     1     -11.490   8.506  71.984  1.00  0.00    -0.431 C  
HETATM   32  C   UNL     1     -11.267   8.192  69.570  1.00  0.00     0.149 C  
HETATM   33  C   UNL     1     -12.291   8.339  70.701  1.00  0.00     0.181 C  
HETATM   34  C   UNL     1     -10.187   9.152  71.535  1.00  0.00    -0.403 C  
ENDBRANCH  12  30
ENDBRANCH   4   6
TORSDOF 5
ENDMDL
MODEL      144
REMARK 921   NORMALIZED FREE ENERGY PREDICTED BY IDOCK:   56.02 KCAL/MOL
REMARK 922        TOTAL FREE ENERGY PREDICTED BY IDOCK:   71.50 KCAL/MOL
REMARK 923 INTER-LIGAND FREE ENERGY PREDICTED BY IDOCK:   71.95 KCAL/MOL
REMARK 924 INTRA-LIGAND FREE ENERGY PREDICTED BY IDOCK:   -0.45 KCAL/MOL
REMARK 927      BINDING AFFINITY PREDICTED BY RF-SCORE:    0.00 PKD
ROOT
HETATM    1  C   UNL     1      -7.111  21.372  74.382  1.00  0.00    20.191 C  
HETATM    2  N   UNL     1      -7.469  20.226  73.564  1.00  0.00     5.784 N  
HETATM    3  C   UNL     1      -8.730  20.317  72.835  1.00  0.00     3.549 C  
HETATM    4  C   UNL     1      -6.416  19.353  73.212  1.00  0.00     4.954 C  
HETATM    5  O   UNL     1      -5.263  19.598  73.565  1.00  0.00     4.764 OA 
ENDROOT
BRANCH   4   6
HETATM    6  C   UNL     1      -6.748  18.140  72.470  1.00  0.00     5.212 A  
HETATM    7  C   UNL     1      -6.916  16.871  73.010  1.00  0.00     9.349 A  
HETATM    8  C   UNL     1      -7.271  15.977  71.993  1.00  0.00     6.265 A  
HETATM    9  C   UNL     1      -7.625  14.640  71.927  1.00  0.00     4.023 A  
HETATM   10  N   UNL     1      -7.811  14.061  70.727  1.00  0.00     2.376 NA 
HETATM   11  C   UNL     1      -7.634  14.796  69.611  1.00  0.00    -0.047 A  
HETATM   12  N   UNL     1      -6.827  17.979  71.077  1.00  0.00     2.569 NA 
HETATM   13  N   UNL     1      -7.356  16.116  69.585  1.00  0.00    -0.105 NA 
HETATM   14  C   UNL     1      -7.178  16.661  70.804  1.00  0.00     2.994 A  
BRANCH  11  15
HETATM   15  N   UNL     1      -7.715  14.053  68.439  1.00  0.00    -0.130 NA 
HETATM   16  H   UNL     1      -7.481  14.573  67.592  1.00  0.00     0.000 HD 
BRANCH  15  17
HETATM   17  C   UNL     1      -8.058  12.726  68.220  1.00  0.00    -0.154 A  
HETATM   18  C   UNL     1      -7.128  11.709  68.108  1.00  0.00    -0.078 A  
HETATM   19  C   UNL     1      -7.542  10.388  67.927  1.00  0.00    -0.088 A  
HETATM   20  N   UNL     1      -9.375  12.458  68.120  1.00  0.00    -0.206 NA 
HETATM   21  C   UNL     1      -8.890  10.056  67.838  1.00  0.00    -0.125 A  
HETATM   22  C   UNL     1      -9.746  11.156  67.945  1.00  0.00    -0.174 A  
BRANCH  21  23
HETATM   23  N   UNL     1      -9.330   8.757  67.693  1.00  0.00    -0.136 NA 
HETATM   24  C   UNL     1      -9.462   8.128  66.366  1.00  0.00    -0.218 C  
HETATM   25  C   UNL     1      -8.434   6.979  66.210  1.00  0.00    -0.134 C  
HETATM   26  N   UNL     1      -8.490   5.978  67.293  1.00  0.00    -0.105 NA 
HETATM   27  C   UNL     1      -8.342   6.661  68.595  1.00  0.00    -0.123 C  
HETATM   28  H   UNL     1      -7.805   5.233  67.167  1.00  0.00     0.000 HD 
HETATM   29  C   UNL     1      -9.375   7.789  68.805  1.00  0.00    -0.146 C  
ENDBRANCH  21  23
ENDBRANCH  15  17
ENDBRANCH  11  15
BRANCH  12  30
HETATM   30  C   UNL     1      -6.524  18.984  70.061  1.00  0.00    -0.032 C  
HETATM   31  C   UNL     1      -6.759  21.251  69.275  1.00  0.00     1.867 C  
HETATM   32  C   UNL     1      -5.131  19.642  70.133  1.00  0.00    -0.211 C  
HETATM   33  C   UNL     1      -5.322  21.115  69.754  1.00  0.00    -0.239 C  
HETATM   34  C   UNL     1      -7.512  20.160  70.023  1.00  0.00     0.503 C  
ENDBRANCH  12  30
ENDBRANCH   4   6
TORSDOF 5
ENDMDL
MODEL      145
REMARK 921   NORMALIZED FREE ENERGY PREDICTED BY IDOCK:   69.01 KCAL/MOL
REMARK 922        TOTAL FREE ENERGY PREDICTED BY IDOCK:   88.29 KCAL/MOL
REMARK 923 INTER-LIGAND FREE ENERGY PREDICTED BY IDOCK:   69.31 KCAL/MOL
REMARK 924 INTRA-LIGAND FREE ENERGY PREDICTED BY IDOCK:   18.98 KCAL/MOL
REMARK 927      BINDING AFFINITY PREDICTED BY RF-SCORE:    0.00 PKD
ROOT
HETATM    1  C   UNL     1      -6.781   1.474  71.244  1.00  0.00    -0.023 C  
HETATM    2  N   UNL     1      -6.970   2.900  71.453  1.00  0.00    -0.031 N  
HETATM    3  C   UNL     1      -7.426   3.308  72.778  1.00  0.00    -0.051 C  
HETATM    4  C   UNL     1      -6.309   3.759  70.547  1.00  0.00    -0.027 C  
HETATM    5  O   UNL     1      -5.591   3.294  69.663  1.00  0.00    -0.016 OA 
ENDROOT
BRANCH   4   6
HETATM    6  C   UNL     1      -6.547   5.195  70.664  1.00  0.00    -0.035 A  
HETATM    7  C   UNL     1      -5.923   6.190  69.923  1.00  0.00    -0.025 A  
HETATM    8  C   UNL     1      -6.444   7.437  70.287  1.00  0.00    -0.035 A  
HETATM    9  C   UNL     1      -6.275   8.744  69.865  1.00  0.00    -0.034 A  
HETATM   10  N   UNL     1      -6.883   9.741  70.532  1.00  0.00    -0.127 NA 
HETATM   11  C   UNL     1      -7.636   9.444  71.610  1.00  0.00     0.516 A  
HETATM   12  N   UNL     1      -7.331   5.862  71.620  1.00  0.00    -0.090 NA 
HETATM   13  N   UNL     1      -7.907   8.198  72.049  1.00  0.00    -0.109 NA 
HETATM   14  C   UNL     1      -7.282   7.226  71.357  1.00  0.00    -0.076 A  
BRANCH  11  15
HETATM   15  N   UNL     1      -8.092  10.566  72.294  1.00  0.00     5.513 NA 
HETATM   16  H   UNL     1      -7.700  10.678  73.230  1.00  0.00     0.000 HD 
BRANCH  15  17
HETATM   17  C   UNL     1      -8.987  11.560  71.925  1.00  0.00    15.297 A  
HETATM   18  C   UNL     1      -9.135  12.003  70.624  1.00  0.00     7.007 A  
HETATM   19  C   UNL     1     -10.083  12.980  70.313  1.00  0.00     3.165 A  
HETATM   20  N   UNL     1      -9.732  12.092  72.914  1.00  0.00    20.539 NA 
HETATM   21  C   UNL     1     -10.891  13.546  71.295  1.00  0.00     3.654 A  
HETATM   22  C   UNL     1     -10.650  13.043  72.577  1.00  0.00    11.383 A  
BRANCH  21  23
HETATM   23  N   UNL     1     -11.858  14.488  71.013  1.00  0.00    -0.310 NA 
HETATM   24  C   UNL     1     -12.831  14.927  72.029  1.00  0.00    -0.325 C  
HETATM   25  C   UNL     1     -12.590  16.412  72.400  1.00  0.00    -0.029 C  
HETATM   26  N   UNL     1     -12.574  17.321  71.237  1.00  0.00     3.826 NA 
HETATM   27  C   UNL     1     -11.576  16.841  70.259  1.00  0.00     0.621 C  
HETATM   28  H   UNL     1     -12.415  18.292  71.507  1.00  0.00     0.000 HD 
HETATM   29  C   UNL     1     -11.805  15.374  69.835  1.00  0.00    -0.350 C  
ENDBRANCH  21  23
ENDBRANCH  15  17
ENDBRANCH  11  15
BRANCH  12  30
HETATM   30  C   UNL     1      -8.028   5.260  72.754  1.00  0.00    -0.102 C  
HETATM   31  C   UNL     1      -9.502   3.545  73.588  1.00  0.00    -0.123 C  
HETATM   32  C   UNL     1      -7.193   4.344  73.671  1.00  0.00    -0.072 C  
HETATM   33  C   UNL     1      -8.110   3.189  74.089  1.00  0.00    -0.070 C  
HETATM   34  C   UNL     1      -9.253   4.418  72.366  1.00  0.00    -0.150 C  
ENDBRANCH  12  30
ENDBRANCH   4   6
TORSDOF 5
ENDMDL
MODEL      146
REMARK 921   NORMALIZED FREE ENERGY PREDICTED BY IDOCK:   84.71 KCAL/MOL
REMARK 922        TOTAL FREE ENERGY PREDICTED BY IDOCK:  108.58 KCAL/MOL
REMARK 923 INTER-LIGAND FREE ENERGY PREDICTED BY IDOCK:  109.26 KCAL/MOL
REMARK 924 INTRA-LIGAND FREE ENERGY PREDICTED BY IDOCK:   -0.67 KCAL/MOL
REMARK 927      BINDING AFFINITY PREDICTED BY RF-SCORE:    0.00 PKD
ROOT
HETATM    1  C   UNL     1     -12.480  19.729  68.002  1.00  0.00     4.778 C  
HETATM    2  N   UNL     1     -11.824  18.870  68.974  1.00  0.00     4.434 N  
HETATM    3  C   UNL     1     -12.512  18.688  70.249  1.00  0.00    15.520 C  
HETATM    4  C   UNL     1     -10.851  17.980  68.469  1.00  0.00     0.133 C  
HETATM    5  O   UNL     1     -10.621  17.933  67.261  1.00  0.00    -0.373 OA 
ENDROOT
BRANCH   4   6
HETATM    6  C   UNL     1     -10.102  17.167  69.423  1.00  0.00    -0.116 A  
HETATM    7  C   UNL     1      -8.763  17.324  69.757  1.00  0.00     1.232 A  
HETATM    8  C   UNL     1      -8.416  16.387  70.737  1.00  0.00     3.930 A  
HETATM    9  C   UNL     1      -7.286  16.109  71.487  1.00  0.00     5.159 A  
HETATM   10  N   UNL     1      -7.273  15.032  72.294  1.00  0.00     3.046 NA 
HETATM   11  C   UNL     1      -8.361  14.237  72.342  1.00  0.00     8.280 A  
HETATM   12  N   UNL     1     -10.529  16.002  70.080  1.00  0.00    -0.253 NA 
HETATM   13  N   UNL     1      -9.523  14.470  71.698  1.00  0.00     4.222 NA 
HETATM   14  C   UNL     1      -9.499  15.556  70.902  1.00  0.00     1.813 A  
BRANCH  11  15
HETATM   15  N   UNL     1      -8.173  13.085  73.097  1.00  0.00    13.488 NA 
HETATM   16  H   UNL     1      -7.956  13.256  74.080  1.00  0.00     0.000 HD 
BRANCH  15  17
HETATM   17  C   UNL     1      -8.227  11.744  72.748  1.00  0.00    20.436 A  
HETATM   18  C   UNL     1      -8.518  11.303  71.469  1.00  0.00     9.813 A  
HETATM   19  C   UNL     1      -8.518   9.938  71.174  1.00  0.00     1.167 A  
HETATM   20  N   UNL     1      -7.977  10.858  73.732  1.00  0.00    10.241 NA 
HETATM   21  C   UNL     1      -8.246   8.985  72.150  1.00  0.00     0.365 A  
HETATM   22  C   UNL     1      -7.983   9.532  73.410  1.00  0.00     2.698 A  
BRANCH  21  23
HETATM   23  N   UNL     1      -8.207   7.633  71.881  1.00  0.00    -0.104 NA 
HETATM   24  C   UNL     1      -7.444   6.697  72.726  1.00  0.00    -0.092 C  
HETATM   25  C   UNL     1      -8.405   5.735  73.470  1.00  0.00    -0.111 C  
HETATM   26  N   UNL     1      -9.341   5.022  72.579  1.00  0.00    -0.132 NA 
HETATM   27  C   UNL     1     -10.085   6.006  71.766  1.00  0.00    -0.188 C  
HETATM   28  H   UNL     1      -9.961   4.396  73.092  1.00  0.00     0.000 HD 
HETATM   29  C   UNL     1      -9.160   6.960  70.979  1.00  0.00    -0.155 C  
ENDBRANCH  21  23
ENDBRANCH  15  17
ENDBRANCH  11  15
BRANCH  12  30
HETATM   30  C   UNL     1     -11.801  15.309  69.896  1.00  0.00    -0.335 C  
HETATM   31  C   UNL     1     -12.979  13.253  69.451  1.00  0.00     1.204 C  
HETATM   32  C   UNL     1     -12.578  14.939  71.175  1.00  0.00    -0.404 C  
HETATM   33  C   UNL     1     -13.216  13.569  70.921  1.00  0.00    -0.065 C  
HETATM   34  C   UNL     1     -11.696  13.995  69.107  1.00  0.00    -0.375 C  
ENDBRANCH  12  30
ENDBRANCH   4   6
TORSDOF 5
ENDMDL
