MODEL        1
REMARK 921   NORMALIZED FREE ENERGY PREDICTED BY IDOCK:   -7.18 KCAL/MOL
REMARK 922        TOTAL FREE ENERGY PREDICTED BY IDOCK:   -9.08 KCAL/MOL
REMARK 923 INTER-LIGAND FREE ENERGY PREDICTED BY IDOCK:   -8.44 KCAL/MOL
REMARK 924 INTRA-LIGAND FREE ENERGY PREDICTED BY IDOCK:   -0.64 KCAL/MOL
REMARK 927      BINDING AFFINITY PREDICTED BY RF-SCORE:    0.00 PKD
ROOT
HETATM    1  C   UNL     1     -13.512   9.677  72.076  1.00  0.00    -0.514 C  
HETATM    2  O   UNL     1     -12.175   9.393  70.873  1.00  0.00    -0.286 OA 
ENDROOT
BRANCH   2   3
HETATM    3  C   UNL     1     -10.686  10.412  70.178  1.00  0.00    -0.233 C  
HETATM    4  C   UNL     1     -10.133   8.483  70.710  1.00  0.00    -0.237 C  
HETATM    5  C   UNL     1     -10.238   6.990  70.649  1.00  0.00    -0.205 C  
HETATM    6  O   UNL     1      -9.561   5.648  71.438  1.00  0.00    -0.150 OA 
HETATM    7  C   UNL     1      -8.681   4.531  70.505  1.00  0.00    -0.093 C  
HETATM    8  C   UNL     1      -7.811   3.135  70.316  1.00  0.00    -0.046 C  
HETATM    9  O   UNL     1      -9.056   4.695  69.171  1.00  0.00    -0.103 OA 
HETATM   10  C   UNL     1      -8.509   5.923  68.942  1.00  0.00    -0.105 A  
HETATM   11  C   UNL     1      -7.564   6.395  69.901  1.00  0.00    -0.100 A  
HETATM   12  C   UNL     1      -7.574   5.403  70.970  1.00  0.00    -0.090 C  
HETATM   13  C   UNL     1      -7.244   7.727  70.003  1.00  0.00    -0.067 A  
HETATM   14  O   UNL     1      -7.048   5.333  72.070  1.00  0.00    -0.078 OA 
HETATM   15  C   UNL     1      -7.907   8.563  69.050  1.00  0.00    -0.104 A  
HETATM   16  C   UNL     1      -8.936   8.047  68.155  1.00  0.00    -0.135 A  
HETATM   17  C   UNL     1      -7.566   9.902  69.102  1.00  0.00    -0.090 A  
HETATM   18  O   UNL     1      -7.944  10.644  68.006  1.00  0.00    -0.104 OA 
HETATM   19  C   UNL     1      -6.687  10.415  70.079  1.00  0.00    -0.145 A  
HETATM   20  C   UNL     1      -9.261   6.714  68.105  1.00  0.00    -0.117 A  
HETATM   21  O   UNL     1      -9.839   8.827  67.470  1.00  0.00    -0.159 OA 
HETATM   22  N   UNL     1      -6.305  11.749  70.095  1.00  0.00    -0.316 N  
HETATM   23  C   UNL     1     -10.541   6.190  67.498  1.00  0.00    -0.344 C  
HETATM   24  H   UNL     1      -7.711  11.564  68.042  1.00  0.00     0.000 HD 
HETATM   25  H   UNL     1     -10.509   8.491  66.887  1.00  0.00     0.000 HD 
HETATM   26  C   UNL     1      -6.065   9.583  71.007  1.00  0.00    -0.080 A  
HETATM   27  C   UNL     1      -6.358   8.241  70.978  1.00  0.00    -0.038 A  
HETATM   28  H   UNL     1      -5.414  11.995  70.527  1.00  0.00     0.000 HD 
HETATM   29  C   UNL     1      -7.058  12.740  69.564  1.00  0.00     0.280 C  
HETATM   30  O   UNL     1      -5.680   7.396  71.805  1.00  0.00    -0.036 OA 
HETATM   31  O   UNL     1      -8.269  12.706  69.362  1.00  0.00     0.630 OA 
HETATM   32  C   UNL     1      -6.308  13.959  69.343  1.00  0.00    -0.110 C  
HETATM   33  C   UNL     1      -6.849  14.737  68.416  1.00  0.00    -0.104 C  
HETATM   34  C   UNL     1      -5.213  14.479  70.203  1.00  0.00    -0.093 C  
HETATM   35  H   UNL     1      -5.085   7.741  72.461  1.00  0.00     0.000 HD 
HETATM   36  C   UNL     1      -6.450  16.086  68.549  1.00  0.00    -0.115 C  
HETATM   37  C   UNL     1      -7.034  16.947  67.797  1.00  0.00    -0.156 C  
HETATM   38  C   UNL     1      -6.423  18.255  67.729  1.00  0.00    -0.193 C  
HETATM   39  C   UNL     1      -6.971  19.519  68.712  1.00  0.00    -0.371 C  
HETATM   40  C   UNL     1      -6.533  18.185  66.184  1.00  0.00    -0.235 C  
HETATM   41  C   UNL     1      -7.451  19.249  65.875  1.00  0.00    -0.282 C  
HETATM   42  O   UNL     1      -5.532  17.649  65.336  1.00  0.00    -0.113 OA 
HETATM   43  H   UNL     1      -5.600  17.605  64.390  1.00  0.00     0.000 HD 
HETATM   44  C   UNL     1      -8.986  17.799  65.987  1.00  0.00    -0.023 C  
HETATM   45  C   UNL     1      -5.743  20.057  66.096  1.00  0.00    -0.179 C  
HETATM   46  O   UNL     1     -10.533  18.766  65.696  1.00  0.00    -0.594 OA 
HETATM   47  C   UNL     1      -9.641  16.441  67.380  1.00  0.00    -0.231 C  
HETATM   48  H   UNL     1     -11.223  18.114  65.746  1.00  0.00     0.000 HD 
HETATM   49  C   UNL     1     -10.397  14.331  67.837  1.00  0.00    -0.233 C  
HETATM   50  C   UNL     1      -9.294  18.443  67.432  1.00  0.00    -0.275 C  
HETATM   51  C   UNL     1     -12.258  11.164  68.869  1.00  0.00    -0.144 C  
HETATM   52  C   UNL     1     -10.800  12.312  68.895  1.00  0.00    -0.238 C  
BRANCH  49  53
HETATM   53  O   UNL     1     -11.003  15.199  66.128  1.00  0.00    -0.333 OA 
BRANCH  53  54
HETATM   54  C   UNL     1     -11.707  15.003  64.510  1.00  0.00    -0.368 C  
HETATM   55  C   UNL     1     -12.410  13.687  63.239  1.00  0.00    -0.037 C  
HETATM   56  O   UNL     1     -11.948  16.093  63.951  1.00  0.00    -0.947 OA 
ENDBRANCH  53  54
ENDBRANCH  49  53
ENDBRANCH   2   3
TORSDOF 3
ENDMDL
MODEL        2
REMARK 921   NORMALIZED FREE ENERGY PREDICTED BY IDOCK:   -5.22 KCAL/MOL
REMARK 922        TOTAL FREE ENERGY PREDICTED BY IDOCK:   -6.77 KCAL/MOL
REMARK 923 INTER-LIGAND FREE ENERGY PREDICTED BY IDOCK:   -6.35 KCAL/MOL
REMARK 924 INTRA-LIGAND FREE ENERGY PREDICTED BY IDOCK:   -0.42 KCAL/MOL
REMARK 927      BINDING AFFINITY PREDICTED BY RF-SCORE:    0.00 PKD
ROOT
HETATM    1  C   UNL     1     -12.943  11.586  71.466  1.00  0.00    -0.485 C  
HETATM    2  O   UNL     1     -12.163  12.284  69.977  1.00  0.00    -0.271 OA 
ENDROOT
BRANCH   2   3
HETATM    3  C   UNL     1     -11.054  11.616  68.541  1.00  0.00    -0.235 C  
HETATM    4  C   UNL     1     -11.245  13.683  68.484  1.00  0.00    -0.310 C  
HETATM    5  C   UNL     1     -11.136  15.058  69.067  1.00  0.00    -0.270 C  
HETATM    6  O   UNL     1     -11.559  16.644  68.635  1.00  0.00    -0.190 OA 
HETATM    7  C   UNL     1     -10.314  17.793  68.491  1.00  0.00    -0.364 C  
HETATM    8  C   UNL     1      -9.752  19.326  68.210  1.00  0.00    -0.459 C  
HETATM    9  O   UNL     1      -9.206  17.318  69.194  1.00  0.00    -0.164 OA 
HETATM   10  C   UNL     1      -8.874  16.268  68.390  1.00  0.00    -0.202 A  
HETATM   11  C   UNL     1      -9.470  16.237  67.094  1.00  0.00    -0.231 A  
HETATM   12  C   UNL     1     -10.415  17.348  67.079  1.00  0.00    -0.284 C  
HETATM   13  C   UNL     1      -9.532  15.080  66.356  1.00  0.00    -0.325 A  
HETATM   14  O   UNL     1     -11.256  17.738  66.284  1.00  0.00     0.386 OA 
HETATM   15  C   UNL     1      -8.921  13.951  66.987  1.00  0.00    -0.251 A  
HETATM   16  C   UNL     1      -8.413  14.010  68.352  1.00  0.00    -0.166 A  
HETATM   17  C   UNL     1      -8.930  12.784  66.244  1.00  0.00     0.054 A  
HETATM   18  O   UNL     1      -8.080  11.799  66.694  1.00  0.00    -0.250 OA 
HETATM   19  C   UNL     1      -9.568  12.699  64.988  1.00  0.00     0.151 A  
HETATM   20  C   UNL     1      -8.400  15.175  69.078  1.00  0.00    -0.209 A  
HETATM   21  O   UNL     1      -8.132  12.911  69.130  1.00  0.00    -0.305 OA 
HETATM   22  N   UNL     1      -9.528  11.543  64.221  1.00  0.00    -0.413 N  
HETATM   23  C   UNL     1      -8.248  15.220  70.580  1.00  0.00     1.352 C  
HETATM   24  H   UNL     1      -8.087  10.997  66.184  1.00  0.00     0.000 HD 
HETATM   25  H   UNL     1      -7.801  12.950  70.020  1.00  0.00     0.000 HD 
HETATM   26  C   UNL     1     -10.170  13.809  64.401  1.00  0.00    -0.024 A  
HETATM   27  C   UNL     1     -10.165  14.996  65.095  1.00  0.00    -0.365 A  
HETATM   28  H   UNL     1      -9.636  11.626  63.211  1.00  0.00     0.000 HD 
HETATM   29  C   UNL     1      -9.352  10.310  64.752  1.00  0.00    -0.260 C  
HETATM   30  O   UNL     1     -10.653  16.118  64.494  1.00  0.00    -0.758 OA 
HETATM   31  O   UNL     1      -9.583   9.976  65.910  1.00  0.00    -0.190 OA 
HETATM   32  C   UNL     1      -8.956   9.326  63.765  1.00  0.00    -0.080 C  
HETATM   33  C   UNL     1      -8.324   8.289  64.297  1.00  0.00    -0.068 C  
HETATM   34  C   UNL     1      -9.410   9.275  62.351  1.00  0.00     0.191 C  
HETATM   35  H   UNL     1     -11.079  16.061  63.646  1.00  0.00     0.000 HD 
HETATM   36  C   UNL     1      -8.388   7.143  63.474  1.00  0.00     0.203 C  
HETATM   37  C   UNL     1      -7.939   6.044  63.962  1.00  0.00    -0.117 C  
HETATM   38  C   UNL     1      -7.740   4.962  63.025  1.00  0.00    -0.066 C  
HETATM   39  C   UNL     1      -8.924   3.773  62.810  1.00  0.00    -0.099 C  
HETATM   40  C   UNL     1      -6.329   4.747  63.630  1.00  0.00    -0.026 C  
HETATM   41  C   UNL     1      -6.423   3.435  64.215  1.00  0.00    -0.031 C  
HETATM   42  O   UNL     1      -5.155   5.393  63.169  1.00  0.00    -0.009 OA 
HETATM   43  H   UNL     1      -4.291   5.262  63.540  1.00  0.00     0.000 HD 
HETATM   44  C   UNL     1      -6.977   4.405  66.012  1.00  0.00    -0.066 C  
HETATM   45  C   UNL     1      -6.081   3.177  62.362  1.00  0.00    -0.013 C  
HETATM   46  O   UNL     1      -7.301   3.015  67.185  1.00  0.00    -0.060 OA 
HETATM   47  C   UNL     1      -8.428   5.737  66.588  1.00  0.00    -0.113 C  
HETATM   48  H   UNL     1      -7.550   3.450  67.992  1.00  0.00     0.000 HD 
HETATM   49  C   UNL     1      -8.995   7.602  67.785  1.00  0.00    -0.131 C  
HETATM   50  C   UNL     1      -8.474   3.945  65.631  1.00  0.00    -0.110 C  
HETATM   51  C   UNL     1     -10.422  10.258  70.124  1.00  0.00    -0.259 C  
HETATM   52  C   UNL     1     -10.006   9.576  68.448  1.00  0.00    -0.184 C  
BRANCH  49  53
HETATM   53  O   UNL     1      -7.658   6.335  68.592  1.00  0.00    -0.089 OA 
BRANCH  53  54
HETATM   54  C   UNL     1      -7.205   5.300  69.961  1.00  0.00    -0.063 C  
HETATM   55  C   UNL     1      -7.647   4.846  71.816  1.00  0.00    -0.096 C  
HETATM   56  O   UNL     1      -6.329   4.461  69.665  1.00  0.00    -0.026 OA 
ENDBRANCH  53  54
ENDBRANCH  49  53
ENDBRANCH   2   3
TORSDOF 3
ENDMDL
MODEL        3
REMARK 921   NORMALIZED FREE ENERGY PREDICTED BY IDOCK:   -5.08 KCAL/MOL
REMARK 922        TOTAL FREE ENERGY PREDICTED BY IDOCK:   -6.61 KCAL/MOL
REMARK 923 INTER-LIGAND FREE ENERGY PREDICTED BY IDOCK:   -6.14 KCAL/MOL
REMARK 924 INTRA-LIGAND FREE ENERGY PREDICTED BY IDOCK:   -0.48 KCAL/MOL
REMARK 927      BINDING AFFINITY PREDICTED BY RF-SCORE:    0.00 PKD
ROOT
HETATM    1  C   UNL     1     -12.904  14.212  64.496  1.00  0.00     0.092 C  
HETATM    2  O   UNL     1     -11.674  14.634  65.771  1.00  0.00    -0.352 OA 
ENDROOT
BRANCH   2   3
HETATM    3  C   UNL     1     -10.421  13.660  66.875  1.00  0.00    -0.272 C  
HETATM    4  C   UNL     1      -9.750  15.575  66.433  1.00  0.00    -0.306 C  
HETATM    5  C   UNL     1      -9.870  17.068  66.406  1.00  0.00    -0.312 C  
HETATM    6  O   UNL     1      -9.011  18.387  65.772  1.00  0.00    -0.429 OA 
HETATM    7  C   UNL     1      -8.412  19.549  66.860  1.00  0.00    -0.297 C  
HETATM    8  C   UNL     1      -7.626  20.962  67.217  1.00  0.00    -0.312 C  
HETATM    9  O   UNL     1      -9.127  19.430  68.052  1.00  0.00    -0.309 OA 
HETATM   10  C   UNL     1      -8.658  18.218  68.466  1.00  0.00    -0.306 A  
HETATM   11  C   UNL     1      -7.492  17.722  67.811  1.00  0.00    -0.206 A  
HETATM   12  C   UNL     1      -7.219  18.673  66.739  1.00  0.00    -0.214 C  
HETATM   13  C   UNL     1      -7.154  16.391  67.850  1.00  0.00    -0.149 A  
HETATM   14  O   UNL     1      -6.420  18.709  65.816  1.00  0.00    -0.217 OA 
HETATM   15  C   UNL     1      -8.044  15.584  68.625  1.00  0.00    -0.159 A  
HETATM   16  C   UNL     1      -9.275  16.120  69.194  1.00  0.00    -0.246 A  
HETATM   17  C   UNL     1      -7.699  14.248  68.718  1.00  0.00    -0.134 A  
HETATM   18  O   UNL     1      -8.353  13.543  69.703  1.00  0.00     0.327 OA 
HETATM   19  C   UNL     1      -6.591  13.710  68.029  1.00  0.00    -0.136 A  
HETATM   20  C   UNL     1      -9.604  17.450  69.104  1.00  0.00    -0.069 A  
HETATM   21  O   UNL     1     -10.325  15.356  69.646  1.00  0.00    -0.245 OA 
HETATM   22  N   UNL     1      -6.216  12.380  68.168  1.00  0.00    -0.059 N  
HETATM   23  C   UNL     1     -11.000  17.981  69.329  1.00  0.00     1.053 C  
HETATM   24  H   UNL     1      -8.116  12.625  69.766  1.00  0.00     0.000 HD 
HETATM   25  H   UNL     1     -11.127  15.705  70.017  1.00  0.00     0.000 HD 
HETATM   26  C   UNL     1      -5.747  14.514  67.268  1.00  0.00     0.558 A  
HETATM   27  C   UNL     1      -6.040  15.852  67.165  1.00  0.00     0.057 A  
HETATM   28  H   UNL     1      -5.242  12.130  67.998  1.00  0.00     0.000 HD 
HETATM   29  C   UNL     1      -7.082  11.401  68.519  1.00  0.00    -0.085 C  
HETATM   30  O   UNL     1      -5.168  16.674  66.515  1.00  0.00    -0.356 OA 
HETATM   31  O   UNL     1      -8.302  11.428  68.392  1.00  0.00    -0.141 OA 
HETATM   32  C   UNL     1      -6.414  10.200  68.978  1.00  0.00    -0.044 C  
HETATM   33  C   UNL     1      -7.180   9.451  69.759  1.00  0.00    -0.076 C  
HETATM   34  C   UNL     1      -5.129   9.662  68.460  1.00  0.00    -0.033 C  
HETATM   35  H   UNL     1      -4.420  16.312  66.054  1.00  0.00     0.000 HD 
HETATM   36  C   UNL     1      -6.758   8.103  69.790  1.00  0.00    -0.040 C  
HETATM   37  C   UNL     1      -7.519   7.264  70.394  1.00  0.00    -0.083 C  
HETATM   38  C   UNL     1      -6.945   5.967  70.672  1.00  0.00    -0.062 C  
HETATM   39  C   UNL     1      -7.211   4.661  69.630  1.00  0.00    -0.051 C  
HETATM   40  C   UNL     1      -7.461   6.093  72.129  1.00  0.00    -0.095 C  
HETATM   41  C   UNL     1      -8.426   5.030  72.225  1.00  0.00    -0.124 C  
HETATM   42  O   UNL     1      -6.722   6.673  73.190  1.00  0.00    -0.067 OA 
HETATM   43  H   UNL     1      -7.038   6.751  74.082  1.00  0.00     0.000 HD 
HETATM   44  C   UNL     1      -9.879   6.457  71.653  1.00  0.00    -0.184 C  
HETATM   45  C   UNL     1      -6.720   4.236  72.497  1.00  0.00    -0.045 C  
HETATM   46  O   UNL     1     -11.447   5.482  71.563  1.00  0.00    -0.069 OA 
HETATM   47  C   UNL     1     -10.144   7.753  70.084  1.00  0.00    -0.197 C  
HETATM   48  H   UNL     1     -12.100   6.123  71.306  1.00  0.00     0.000 HD 
HETATM   49  C   UNL     1     -10.756   9.835  69.361  1.00  0.00    -0.228 C  
HETATM   50  C   UNL     1      -9.792   5.756  70.205  1.00  0.00    -0.240 C  
HETATM   51  C   UNL     1     -12.282  12.939  67.749  1.00  0.00    -0.042 C  
HETATM   52  C   UNL     1     -10.868  11.808  68.155  1.00  0.00    -0.258 C  
BRANCH  49  53
HETATM   53  O   UNL     1     -11.792   9.024  70.881  1.00  0.00    -0.282 OA 
BRANCH  53  54
HETATM   54  C   UNL     1     -13.360   8.479  71.509  1.00  0.00    -0.293 C  
HETATM   55  C   UNL     1     -14.336   6.924  72.196  1.00  0.00    -0.232 C  
HETATM   56  O   UNL     1     -14.167   9.417  71.680  1.00  0.00    -0.168 OA 
ENDBRANCH  53  54
ENDBRANCH  49  53
ENDBRANCH   2   3
TORSDOF 3
ENDMDL
MODEL        4
REMARK 921   NORMALIZED FREE ENERGY PREDICTED BY IDOCK:   -3.89 KCAL/MOL
REMARK 922        TOTAL FREE ENERGY PREDICTED BY IDOCK:   -5.21 KCAL/MOL
REMARK 923 INTER-LIGAND FREE ENERGY PREDICTED BY IDOCK:   -4.61 KCAL/MOL
REMARK 924 INTRA-LIGAND FREE ENERGY PREDICTED BY IDOCK:   -0.60 KCAL/MOL
REMARK 927      BINDING AFFINITY PREDICTED BY RF-SCORE:    0.00 PKD
ROOT
HETATM    1  C   UNL     1      -5.128  14.818  71.484  1.00  0.00    -0.152 C  
HETATM    2  O   UNL     1      -5.814  14.115  69.951  1.00  0.00    -0.108 OA 
ENDROOT
BRANCH   2   3
HETATM    3  C   UNL     1      -7.017  12.672  69.495  1.00  0.00     0.181 C  
HETATM    4  C   UNL     1      -7.976  14.513  69.513  1.00  0.00     0.137 C  
HETATM    5  C   UNL     1      -8.161  15.936  69.082  1.00  0.00    -0.239 C  
HETATM    6  O   UNL     1      -9.146  17.256  69.491  1.00  0.00     0.208 OA 
HETATM    7  C   UNL     1     -10.153  17.907  68.286  1.00  0.00    -0.375 C  
HETATM    8  C   UNL     1     -11.262  19.005  67.732  1.00  0.00     0.156 C  
HETATM    9  O   UNL     1      -9.653  17.510  67.046  1.00  0.00    -0.253 OA 
HETATM   10  C   UNL     1      -9.930  16.176  67.119  1.00  0.00    -0.251 A  
HETATM   11  C   UNL     1     -10.834  15.762  68.141  1.00  0.00    -0.307 A  
HETATM   12  C   UNL     1     -11.100  16.962  68.928  1.00  0.00    -0.128 C  
HETATM   13  C   UNL     1     -10.895  14.457  68.566  1.00  0.00    -0.260 A  
HETATM   14  O   UNL     1     -11.713  17.183  69.961  1.00  0.00     1.059 OA 
HETATM   15  C   UNL     1     -10.011  13.574  67.870  1.00  0.00    -0.245 A  
HETATM   16  C   UNL     1      -9.036  14.063  66.901  1.00  0.00    -0.248 A  
HETATM   17  C   UNL     1     -10.085  12.246  68.248  1.00  0.00    -0.218 A  
HETATM   18  O   UNL     1      -9.487  11.358  67.383  1.00  0.00    -0.165 OA 
HETATM   19  C   UNL     1     -10.919  11.812  69.300  1.00  0.00    -0.175 A  
HETATM   20  C   UNL     1      -8.976  15.382  66.526  1.00  0.00    -0.344 A  
HETATM   21  O   UNL     1      -7.950  13.347  66.456  1.00  0.00    -0.183 OA 
HETATM   22  N   UNL     1     -11.033  10.470  69.640  1.00  0.00    -0.264 N  
HETATM   23  C   UNL     1      -7.780  16.000  65.840  1.00  0.00     1.208 C  
HETATM   24  H   UNL     1      -9.538  10.446  67.643  1.00  0.00     0.000 HD 
HETATM   25  H   UNL     1      -7.315  13.665  65.825  1.00  0.00     0.000 HD 
HETATM   26  C   UNL     1     -11.761  12.693  69.973  1.00  0.00    -0.289 A  
HETATM   27  C   UNL     1     -11.735  14.020  69.616  1.00  0.00    -0.311 A  
HETATM   28  H   UNL     1     -11.889  10.156  70.097  1.00  0.00     0.000 HD 
HETATM   29  C   UNL     1     -10.062   9.560  69.394  1.00  0.00    -0.198 C  
HETATM   30  O   UNL     1     -12.626  14.879  70.187  1.00  0.00    -0.455 OA 
HETATM   31  O   UNL     1      -8.870   9.796  69.221  1.00  0.00    -0.145 OA 
HETATM   32  C   UNL     1     -10.541   8.195  69.467  1.00  0.00    -0.215 C  
HETATM   33  C   UNL     1      -9.788   7.348  68.779  1.00  0.00    -0.164 C  
HETATM   34  C   UNL     1     -11.575   7.681  70.402  1.00  0.00    -0.138 C  
HETATM   35  H   UNL     1     -13.190  14.585  70.893  1.00  0.00     0.000 HD 
HETATM   36  C   UNL     1      -9.925   6.018  69.235  1.00  0.00    -0.207 C  
HETATM   37  C   UNL     1      -9.128   5.143  68.738  1.00  0.00    -0.140 C  
HETATM   38  C   UNL     1      -9.465   3.758  68.985  1.00  0.00    -0.233 C  
HETATM   39  C   UNL     1      -8.756   2.911  70.267  1.00  0.00    -0.132 C  
HETATM   40  C   UNL     1      -9.253   3.477  67.476  1.00  0.00    -0.188 C  
HETATM   41  C   UNL     1      -8.124   2.585  67.467  1.00  0.00    -0.071 C  
HETATM   42  O   UNL     1     -10.271   3.573  66.495  1.00  0.00    -0.246 OA 
HETATM   43  H   UNL     1     -10.142   3.401  65.570  1.00  0.00     0.000 HD 
HETATM   44  C   UNL     1      -6.915   4.307  67.250  1.00  0.00    -0.063 C  
HETATM   45  C   UNL     1      -9.652   1.517  67.839  1.00  0.00    -0.100 C  
HETATM   46  O   UNL     1      -5.191   3.643  67.250  1.00  0.00    -0.010 OA 
HETATM   47  C   UNL     1      -6.646   6.066  68.274  1.00  0.00    -0.055 C  
HETATM   48  H   UNL     1      -4.647   4.416  67.153  1.00  0.00     0.000 HD 
HETATM   49  C   UNL     1      -6.354   8.333  68.207  1.00  0.00    -0.051 C  
HETATM   50  C   UNL     1      -6.598   4.108  68.818  1.00  0.00    -0.045 C  
HETATM   51  C   UNL     1      -5.234  11.972  68.457  1.00  0.00    -0.049 C  
HETATM   52  C   UNL     1      -6.436  10.586  68.734  1.00  0.00    -0.051 C  
BRANCH  49  53
HETATM   53  O   UNL     1      -5.462   7.226  66.785  1.00  0.00    -0.022 OA 
BRANCH  53  54
HETATM   54  C   UNL     1      -5.332   6.810  65.065  1.00  0.00    -0.027 C  
HETATM   55  C   UNL     1      -5.223   7.564  63.258  1.00  0.00    -0.034 C  
HETATM   56  O   UNL     1      -5.158   5.589  64.872  1.00  0.00    -0.009 OA 
ENDBRANCH  53  54
ENDBRANCH  49  53
ENDBRANCH   2   3
TORSDOF 3
ENDMDL
MODEL        5
REMARK 921   NORMALIZED FREE ENERGY PREDICTED BY IDOCK:   -3.60 KCAL/MOL
REMARK 922        TOTAL FREE ENERGY PREDICTED BY IDOCK:   -4.88 KCAL/MOL
REMARK 923 INTER-LIGAND FREE ENERGY PREDICTED BY IDOCK:   -4.58 KCAL/MOL
REMARK 924 INTRA-LIGAND FREE ENERGY PREDICTED BY IDOCK:   -0.30 KCAL/MOL
REMARK 927      BINDING AFFINITY PREDICTED BY RF-SCORE:    0.00 PKD
ROOT
HETATM    1  C   UNL     1     -12.930  13.564  71.422  1.00  0.00    -0.421 C  
HETATM    2  O   UNL     1     -12.893  12.610  69.872  1.00  0.00     0.305 OA 
ENDROOT
BRANCH   2   3
HETATM    3  C   UNL     1     -11.607  11.499  68.950  1.00  0.00    -0.320 C  
HETATM    4  C   UNL     1     -11.737  13.398  68.120  1.00  0.00    -0.397 C  
HETATM    5  C   UNL     1     -11.678  14.894  68.173  1.00  0.00    -0.344 C  
HETATM    6  O   UNL     1     -11.995  16.202  67.139  1.00  0.00     0.640 OA 
HETATM    7  C   UNL     1     -10.713  17.256  66.766  1.00  0.00    -0.095 C  
HETATM    8  C   UNL     1     -10.079  18.597  66.031  1.00  0.00    -0.326 C  
HETATM    9  O   UNL     1      -9.730  17.100  67.743  1.00  0.00    -0.260 OA 
HETATM   10  C   UNL     1      -9.313  15.839  67.431  1.00  0.00    -0.210 A  
HETATM   11  C   UNL     1      -9.718  15.323  66.164  1.00  0.00    -0.343 A  
HETATM   12  C   UNL     1     -10.623  16.326  65.613  1.00  0.00    -0.346 C  
HETATM   13  C   UNL     1      -9.703  13.976  65.896  1.00  0.00    -0.250 A  
HETATM   14  O   UNL     1     -11.333  16.377  64.620  1.00  0.00    -0.482 OA 
HETATM   15  C   UNL     1      -9.217  13.171  66.973  1.00  0.00    -0.233 A  
HETATM   16  C   UNL     1      -8.907  13.736  68.281  1.00  0.00    -0.185 A  
HETATM   17  C   UNL     1      -9.149  11.815  66.711  1.00  0.00    -0.194 A  
HETATM   18  O   UNL     1      -8.397  11.084  67.604  1.00  0.00    -0.115 OA 
HETATM   19  C   UNL     1      -9.604  11.262  65.495  1.00  0.00    -0.228 A  
HETATM   20  C   UNL     1      -8.969  15.085  68.528  1.00  0.00    -0.186 A  
HETATM   21  O   UNL     1      -8.768  13.003  69.436  1.00  0.00     0.197 OA 
HETATM   22  N   UNL     1      -9.484   9.907  65.214  1.00  0.00    -0.249 N  
HETATM   23  C   UNL     1      -9.032  15.676  69.917  1.00  0.00     0.164 C  
HETATM   24  H   UNL     1      -8.351  10.152  67.424  1.00  0.00     0.000 HD 
HETATM   25  H   UNL     1      -8.566  13.371  70.288  1.00  0.00     0.000 HD 
HETATM   26  C   UNL     1     -10.088  12.065  64.466  1.00  0.00    -0.293 A  
HETATM   27  C   UNL     1     -10.153  13.422  64.675  1.00  0.00    -0.229 A  
HETATM   28  H   UNL     1      -9.444   9.615  64.238  1.00  0.00     0.000 HD 
HETATM   29  C   UNL     1      -9.416   8.956  66.175  1.00  0.00    -0.251 C  
HETATM   30  O   UNL     1     -10.521  14.235  63.645  1.00  0.00     0.546 OA 
HETATM   31  O   UNL     1      -9.819   9.059  67.330  1.00  0.00    -0.168 OA 
HETATM   32  C   UNL     1      -8.909   7.693  65.680  1.00  0.00    -0.086 C  
HETATM   33  C   UNL     1      -8.384   6.939  66.636  1.00  0.00    -0.118 C  
HETATM   34  C   UNL     1      -9.157   7.120  64.332  1.00  0.00     1.252 C  
HETATM   35  H   UNL     1     -10.824  13.863  62.824  1.00  0.00     0.000 HD 
HETATM   36  C   UNL     1      -8.359   5.571  66.285  1.00  0.00    -0.112 C  
HETATM   37  C   UNL     1      -8.012   4.737  67.197  1.00  0.00    -0.102 C  
HETATM   38  C   UNL     1      -7.708   3.395  66.755  1.00  0.00    -0.080 C  
HETATM   39  C   UNL     1      -8.880   2.176  66.820  1.00  0.00    -0.141 C  
HETATM   40  C   UNL     1      -6.404   3.455  67.591  1.00  0.00    -0.036 C  
HETATM   41  C   UNL     1      -6.613   2.443  68.592  1.00  0.00    -0.029 C  
HETATM   42  O   UNL     1      -5.161   3.923  67.098  1.00  0.00    -0.007 OA 
HETATM   43  H   UNL     1      -4.362   3.960  67.610  1.00  0.00     0.000 HD 
HETATM   44  C   UNL     1      -7.394   3.982  69.816  1.00  0.00    -0.049 C  
HETATM   45  C   UNL     1      -6.018   1.540  67.028  1.00  0.00    -0.019 C  
HETATM   46  O   UNL     1      -7.916   3.103  71.355  1.00  0.00    -0.057 OA 
HETATM   47  C   UNL     1      -8.878   5.390  69.657  1.00  0.00    -0.123 C  
HETATM   48  H   UNL     1      -8.267   3.794  71.905  1.00  0.00     0.000 HD 
HETATM   49  C   UNL     1      -9.563   7.545  70.002  1.00  0.00    -0.164 C  
HETATM   50  C   UNL     1      -8.832   3.372  69.420  1.00  0.00    -0.154 C  
HETATM   51  C   UNL     1     -11.242  10.826  70.990  1.00  0.00     0.417 C  
HETATM   52  C   UNL     1     -10.609   9.595  69.753  1.00  0.00    -0.267 C  
BRANCH  49  53
HETATM   53  O   UNL     1      -8.387   6.695  71.395  1.00  0.00    -0.119 OA 
BRANCH  53  54
HETATM   54  C   UNL     1      -7.912   6.595  73.102  1.00  0.00    -0.105 C  
HETATM   55  C   UNL     1      -7.016   5.467  74.432  1.00  0.00    -0.078 C  
HETATM   56  O   UNL     1      -8.132   7.652  73.729  1.00  0.00    -0.128 OA 
ENDBRANCH  53  54
ENDBRANCH  49  53
ENDBRANCH   2   3
TORSDOF 3
ENDMDL
MODEL        6
REMARK 921   NORMALIZED FREE ENERGY PREDICTED BY IDOCK:   -3.11 KCAL/MOL
REMARK 922        TOTAL FREE ENERGY PREDICTED BY IDOCK:   -4.30 KCAL/MOL
REMARK 923 INTER-LIGAND FREE ENERGY PREDICTED BY IDOCK:   -5.08 KCAL/MOL
REMARK 924 INTRA-LIGAND FREE ENERGY PREDICTED BY IDOCK:    0.78 KCAL/MOL
REMARK 927      BINDING AFFINITY PREDICTED BY RF-SCORE:    0.00 PKD
ROOT
HETATM    1  C   UNL     1      -7.957   3.324  67.420  1.00  0.00    -0.077 C  
HETATM    2  O   UNL     1      -7.419   5.004  67.875  1.00  0.00    -0.077 OA 
ENDROOT
BRANCH   2   3
HETATM    3  C   UNL     1      -8.248   6.573  68.640  1.00  0.00    -0.118 C  
HETATM    4  C   UNL     1      -8.513   4.892  69.828  1.00  0.00    -0.091 C  
HETATM    5  C   UNL     1      -8.028   3.719  70.624  1.00  0.00    -0.055 C  
HETATM    6  O   UNL     1      -8.697   2.389  71.440  1.00  0.00    -0.062 OA 
HETATM    7  C   UNL     1      -8.411   2.249  73.110  1.00  0.00    -0.066 C  
HETATM    8  C   UNL     1      -8.548   1.470  74.565  1.00  0.00    -0.053 C  
HETATM    9  O   UNL     1      -7.297   3.027  73.423  1.00  0.00    -0.047 OA 
HETATM   10  C   UNL     1      -7.832   4.265  73.213  1.00  0.00    -0.086 A  
HETATM   11  C   UNL     1      -9.252   4.342  73.108  1.00  0.00    -0.122 A  
HETATM   12  C   UNL     1      -9.715   2.959  73.132  1.00  0.00    -0.102 C  
HETATM   13  C   UNL     1      -9.875   5.419  72.527  1.00  0.00    -0.192 A  
HETATM   14  O   UNL     1     -10.802   2.423  72.983  1.00  0.00    -0.157 OA 
HETATM   15  C   UNL     1      -8.980   6.443  72.084  1.00  0.00    -0.136 A  
HETATM   16  C   UNL     1      -7.533   6.274  72.124  1.00  0.00    -0.094 A  
HETATM   17  C   UNL     1      -9.586   7.559  71.536  1.00  0.00    -0.154 A  
HETATM   18  O   UNL     1      -8.772   8.662  71.407  1.00  0.00    -0.169 OA 
HETATM   19  C   UNL     1     -10.983   7.642  71.357  1.00  0.00    -0.231 A  
HETATM   20  C   UNL     1      -6.941   5.167  72.679  1.00  0.00    -0.084 A  
HETATM   21  O   UNL     1      -6.636   7.045  71.422  1.00  0.00    -0.047 OA 
HETATM   22  N   UNL     1     -11.593   8.785  70.857  1.00  0.00    -0.282 N  
HETATM   23  C   UNL     1      -5.508   4.767  72.415  1.00  0.00    -0.008 C  
HETATM   24  H   UNL     1      -9.188   9.428  71.030  1.00  0.00     0.000 HD 
HETATM   25  H   UNL     1      -5.693   6.935  71.448  1.00  0.00     0.000 HD 
HETATM   26  C   UNL     1     -11.834   6.625  71.782  1.00  0.00    -0.380 A  
HETATM   27  C   UNL     1     -11.276   5.505  72.352  1.00  0.00    -0.247 A  
HETATM   28  H   UNL     1     -12.567   8.963  71.103  1.00  0.00     0.000 HD 
HETATM   29  C   UNL     1     -10.956   9.674  70.060  1.00  0.00    -0.260 C  
HETATM   30  O   UNL     1     -12.094   4.547  72.872  1.00  0.00     0.088 OA 
HETATM   31  O   UNL     1      -9.965   9.454  69.370  1.00  0.00    -0.170 OA 
HETATM   32  C   UNL     1     -11.636  10.951  69.987  1.00  0.00    -0.424 C  
HETATM   33  C   UNL     1     -10.830  11.946  69.645  1.00  0.00     0.099 C  
HETATM   34  C   UNL     1     -13.108  11.159  70.005  1.00  0.00     0.303 C  
HETATM   35  H   UNL     1     -13.035   4.605  72.754  1.00  0.00     0.000 HD 
HETATM   36  C   UNL     1     -11.532  13.039  69.092  1.00  0.00    -0.353 C  
HETATM   37  C   UNL     1     -10.834  13.991  68.589  1.00  0.00    -0.272 C  
HETATM   38  C   UNL     1     -11.541  15.218  68.298  1.00  0.00    -0.357 C  
HETATM   39  C   UNL     1     -12.129  15.531  66.742  1.00  0.00     0.732 C  
HETATM   40  C   UNL     1     -10.412  15.997  69.022  1.00  0.00    -0.246 C  
HETATM   41  C   UNL     1      -9.827  16.778  67.965  1.00  0.00    -0.265 C  
HETATM   42  O   UNL     1     -10.412  16.298  70.407  1.00  0.00    -0.098 OA 
HETATM   43  H   UNL     1      -9.721  16.775  70.850  1.00  0.00     0.000 HD 
HETATM   44  C   UNL     1      -8.467  15.180  67.697  1.00  0.00    -0.171 C  
HETATM   45  C   UNL     1     -11.371  17.725  68.545  1.00  0.00     0.880 C  
HETATM   46  O   UNL     1      -7.428  15.716  66.266  1.00  0.00    -0.110 OA 
HETATM   47  C   UNL     1      -8.604  13.164  67.336  1.00  0.00    -0.204 C  
HETATM   48  H   UNL     1      -6.817  14.999  66.145  1.00  0.00     0.000 HD 
HETATM   49  C   UNL     1      -7.857  11.050  67.788  1.00  0.00    -0.110 C  
HETATM   50  C   UNL     1      -9.379  14.806  66.422  1.00  0.00    -0.320 C  
HETATM   51  C   UNL     1      -6.458   7.500  67.812  1.00  0.00    -0.054 C  
HETATM   52  C   UNL     1      -7.782   8.762  68.129  1.00  0.00    -0.101 C  
BRANCH  49  53
HETATM   53  O   UNL     1      -6.503  12.537  67.736  1.00  0.00    -0.089 OA 
BRANCH  53  54
HETATM   54  C   UNL     1      -5.717  13.883  68.585  1.00  0.00    -0.085 C  
HETATM   55  C   UNL     1      -5.166  14.536  70.350  1.00  0.00    -0.106 C  
HETATM   56  O   UNL     1      -5.235  14.732  67.806  1.00  0.00    -0.252 OA 
ENDBRANCH  53  54
ENDBRANCH  49  53
ENDBRANCH   2   3
TORSDOF 3
ENDMDL
MODEL        7
REMARK 921   NORMALIZED FREE ENERGY PREDICTED BY IDOCK:   -2.73 KCAL/MOL
REMARK 922        TOTAL FREE ENERGY PREDICTED BY IDOCK:   -3.85 KCAL/MOL
REMARK 923 INTER-LIGAND FREE ENERGY PREDICTED BY IDOCK:   -4.39 KCAL/MOL
REMARK 924 INTRA-LIGAND FREE ENERGY PREDICTED BY IDOCK:    0.53 KCAL/MOL
REMARK 927      BINDING AFFINITY PREDICTED BY RF-SCORE:    0.00 PKD
ROOT
HETATM    1  C   UNL     1      -8.867   6.880  66.074  1.00  0.00    -0.154 C  
HETATM    2  O   UNL     1     -10.220   7.976  66.609  1.00  0.00    -0.285 OA 
ENDROOT
BRANCH   2   3
HETATM    3  C   UNL     1     -10.362   9.642  67.579  1.00  0.00    -0.241 C  
HETATM    4  C   UNL     1     -10.889   8.009  68.748  1.00  0.00     0.019 C  
HETATM    5  C   UNL     1     -10.639   6.677  69.386  1.00  0.00    -0.279 C  
HETATM    6  O   UNL     1     -11.508   5.533  70.289  1.00  0.00     0.113 OA 
HETATM    7  C   UNL     1     -10.955   5.161  71.854  1.00  0.00    -0.042 C  
HETATM    8  C   UNL     1     -11.034   4.325  73.281  1.00  0.00    -0.334 C  
HETATM    9  O   UNL     1      -9.617   5.547  71.941  1.00  0.00    -0.154 OA 
HETATM   10  C   UNL     1      -9.779   6.901  71.887  1.00  0.00    -0.161 A  
HETATM   11  C   UNL     1     -11.100   7.399  72.093  1.00  0.00    -0.291 A  
HETATM   12  C   UNL     1     -11.948   6.216  72.177  1.00  0.00    -0.260 C  
HETATM   13  C   UNL     1     -11.466   8.661  71.690  1.00  0.00    -0.375 A  
HETATM   14  O   UNL     1     -13.154   6.037  72.251  1.00  0.00     0.099 OA 
HETATM   15  C   UNL     1     -10.406   9.415  71.095  1.00  0.00    -0.377 A  
HETATM   16  C   UNL     1      -9.101   8.827  70.817  1.00  0.00    -0.192 A  
HETATM   17  C   UNL     1     -10.738  10.704  70.722  1.00  0.00     0.664 A  
HETATM   18  O   UNL     1      -9.668  11.528  70.452  1.00  0.00     1.698 OA 
HETATM   19  C   UNL     1     -12.050  11.208  70.851  1.00  0.00    -0.322 A  
HETATM   20  C   UNL     1      -8.779   7.548  71.199  1.00  0.00    -0.136 A  
HETATM   21  O   UNL     1      -8.168   9.362  69.960  1.00  0.00    -0.124 OA 
HETATM   22  N   UNL     1     -12.367  12.521  70.527  1.00  0.00    -0.308 N  
HETATM   23  C   UNL     1      -7.619   6.773  70.621  1.00  0.00    -0.095 C  
HETATM   24  H   UNL     1      -9.896  12.414  70.195  1.00  0.00     0.000 HD 
HETATM   25  H   UNL     1      -7.319   8.979  69.779  1.00  0.00     0.000 HD 
HETATM   26  C   UNL     1     -13.069  10.449  71.420  1.00  0.00    -0.512 A  
HETATM   27  C   UNL     1     -12.779   9.168  71.825  1.00  0.00    -0.373 A  
HETATM   28  H   UNL     1     -13.171  12.953  70.982  1.00  0.00     0.000 HD 
HETATM   29  C   UNL     1     -11.658  13.254  69.637  1.00  0.00    -0.261 C  
HETATM   30  O   UNL     1     -13.731   8.448  72.481  1.00  0.00    -0.583 OA 
HETATM   31  O   UNL     1     -10.938  12.818  68.743  1.00  0.00    -0.240 OA 
HETATM   32  C   UNL     1     -11.917  14.675  69.749  1.00  0.00    -0.378 C  
HETATM   33  C   UNL     1     -10.929  15.418  69.269  1.00  0.00    -0.261 C  
HETATM   34  C   UNL     1     -13.221  15.302  70.089  1.00  0.00     0.078 C  
HETATM   35  H   UNL     1     -14.614   8.789  72.571  1.00  0.00     0.000 HD 
HETATM   36  C   UNL     1     -11.359  16.715  68.912  1.00  0.00    -0.123 C  
HETATM   37  C   UNL     1     -10.516  17.464  68.298  1.00  0.00    -0.385 C  
HETATM   38  C   UNL     1     -10.858  18.865  68.201  1.00  0.00    -0.043 C  
HETATM   39  C   UNL     1     -11.616  19.478  66.818  1.00  0.00     0.898 C  
HETATM   40  C   UNL     1      -9.426  19.209  68.686  1.00  0.00    -0.405 C  
HETATM   41  C   UNL     1      -8.851  19.879  67.551  1.00  0.00    -0.411 C  
HETATM   42  O   UNL     1      -9.061  19.368  70.046  1.00  0.00     0.546 OA 
HETATM   43  H   UNL     1      -8.185  19.579  70.344  1.00  0.00     0.000 HD 
HETATM   44  C   UNL     1      -8.124  17.985  66.950  1.00  0.00    -0.255 C  
HETATM   45  C   UNL     1      -9.885  21.179  68.477  1.00  0.00     0.836 C  
HETATM   46  O   UNL     1      -7.274  18.324  65.345  1.00  0.00    -0.541 OA 
HETATM   47  C   UNL     1      -8.938  16.140  66.570  1.00  0.00    -0.322 C  
HETATM   48  H   UNL     1      -6.948  17.474  65.075  1.00  0.00     0.000 HD 
HETATM   49  C   UNL     1      -8.799  13.868  66.790  1.00  0.00    -0.149 C  
HETATM   50  C   UNL     1      -9.339  18.013  65.892  1.00  0.00     0.123 C  
HETATM   51  C   UNL     1      -8.575  10.078  66.411  1.00  0.00    -0.136 C  
HETATM   52  C   UNL     1      -9.360  11.636  67.042  1.00  0.00    -0.186 C  
BRANCH  49  53
HETATM   53  O   UNL     1      -7.094  14.892  66.490  1.00  0.00     0.536 OA 
BRANCH  53  54
HETATM   54  C   UNL     1      -5.899  16.039  67.127  1.00  0.00     0.051 C  
HETATM   55  C   UNL     1      -5.194  16.841  68.771  1.00  0.00    -0.120 C  
HETATM   56  O   UNL     1      -5.127  16.473  66.247  1.00  0.00    -0.236 OA 
ENDBRANCH  53  54
ENDBRANCH  49  53
ENDBRANCH   2   3
TORSDOF 3
ENDMDL
MODEL        8
REMARK 921   NORMALIZED FREE ENERGY PREDICTED BY IDOCK:   -2.56 KCAL/MOL
REMARK 922        TOTAL FREE ENERGY PREDICTED BY IDOCK:   -3.65 KCAL/MOL
REMARK 923 INTER-LIGAND FREE ENERGY PREDICTED BY IDOCK:   -3.52 KCAL/MOL
REMARK 924 INTRA-LIGAND FREE ENERGY PREDICTED BY IDOCK:   -0.14 KCAL/MOL
REMARK 927      BINDING AFFINITY PREDICTED BY RF-SCORE:    0.00 PKD
ROOT
HETATM    1  C   UNL     1     -13.198  13.707  64.967  1.00  0.00     0.154 C  
HETATM    2  O   UNL     1     -12.659  13.102  66.598  1.00  0.00    -0.263 OA 
ENDROOT
BRANCH   2   3
HETATM    3  C   UNL     1     -11.100  12.203  67.305  1.00  0.00    -0.287 C  
HETATM    4  C   UNL     1     -10.781  14.239  67.052  1.00  0.00    -0.290 C  
HETATM    5  C   UNL     1     -11.097  15.686  67.276  1.00  0.00    -0.238 C  
HETATM    6  O   UNL     1     -10.556  17.193  66.713  1.00  0.00    -0.286 OA 
HETATM    7  C   UNL     1      -9.913  18.287  67.846  1.00  0.00    -0.345 C  
HETATM    8  C   UNL     1      -9.263  19.748  68.273  1.00  0.00    -0.388 C  
HETATM    9  O   UNL     1     -10.361  17.908  69.111  1.00  0.00    -0.340 OA 
HETATM   10  C   UNL     1      -9.667  16.741  69.246  1.00  0.00    -0.139 A  
HETATM   11  C   UNL     1      -8.597  16.520  68.330  1.00  0.00    -0.213 A  
HETATM   12  C   UNL     1      -8.663  17.631  67.386  1.00  0.00    -0.234 C  
HETATM   13  C   UNL     1      -8.087  15.264  68.105  1.00  0.00    -0.136 A  
HETATM   14  O   UNL     1      -8.070  17.907  66.355  1.00  0.00    -0.255 OA 
HETATM   15  C   UNL     1      -8.698  14.237  68.890  1.00  0.00    -0.027 A  
HETATM   16  C   UNL     1      -9.854  14.497  69.739  1.00  0.00     0.390 A  
HETATM   17  C   UNL     1      -8.171  12.970  68.715  1.00  0.00     0.111 A  
HETATM   18  O   UNL     1      -8.524  12.052  69.678  1.00  0.00     0.442 OA 
HETATM   19  C   UNL     1      -7.158  12.703  67.770  1.00  0.00    -0.126 A  
HETATM   20  C   UNL     1     -10.364  15.760  69.914  1.00  0.00    -0.313 A  
HETATM   21  O   UNL     1     -10.688  13.528  70.244  1.00  0.00     0.138 OA 
HETATM   22  N   UNL     1      -6.594  11.441  67.636  1.00  0.00    -0.069 N  
HETATM   23  C   UNL     1     -11.746  16.034  70.456  1.00  0.00    -0.350 C  
HETATM   24  H   UNL     1      -8.163  11.182  69.558  1.00  0.00     0.000 HD 
HETATM   25  H   UNL     1     -11.441  13.697  70.797  1.00  0.00     0.000 HD 
HETATM   26  C   UNL     1      -6.589  13.719  67.006  1.00  0.00     0.864 A  
HETATM   27  C   UNL     1      -7.067  14.997  67.163  1.00  0.00     0.045 A  
HETATM   28  H   UNL     1      -5.647  11.370  67.262  1.00  0.00     0.000 HD 
HETATM   29  C   UNL     1      -7.240  10.302  67.977  1.00  0.00    -0.085 C  
HETATM   30  O   UNL     1      -6.453  16.021  66.505  1.00  0.00    -0.115 OA 
HETATM   31  O   UNL     1      -8.455  10.154  68.069  1.00  0.00    -0.116 OA 
HETATM   32  C   UNL     1      -6.346   9.172  68.123  1.00  0.00    -0.055 C  
HETATM   33  C   UNL     1      -6.843   8.220  68.900  1.00  0.00    -0.061 C  
HETATM   34  C   UNL     1      -5.128   8.911  67.313  1.00  0.00    -0.033 C  
HETATM   35  H   UNL     1      -5.768  15.841  65.871  1.00  0.00     0.000 HD 
HETATM   36  C   UNL     1      -6.251   6.961  68.650  1.00  0.00    -0.027 C  
HETATM   37  C   UNL     1      -6.765   5.944  69.241  1.00  0.00    -0.060 C  
HETATM   38  C   UNL     1      -5.984   4.727  69.213  1.00  0.00    -0.018 C  
HETATM   39  C   UNL     1      -6.276   3.539  68.044  1.00  0.00    -0.032 C  
HETATM   40  C   UNL     1      -6.220   4.586  70.739  1.00  0.00    -0.018 C  
HETATM   41  C   UNL     1      -7.001   3.382  70.836  1.00  0.00    -0.033 C  
HETATM   42  O   UNL     1      -5.371   5.135  71.732  1.00  0.00    -0.005 OA 
HETATM   43  H   UNL     1      -5.515   5.049  72.666  1.00  0.00     0.000 HD 
HETATM   44  C   UNL     1      -8.711   4.625  70.752  1.00  0.00    -0.133 C  
HETATM   45  C   UNL     1      -5.186   2.836  70.683  1.00  0.00    -0.004 C  
HETATM   46  O   UNL     1     -10.126   3.438  70.786  1.00  0.00     0.022 OA 
HETATM   47  C   UNL     1      -9.441   6.053  69.471  1.00  0.00    -0.161 C  
HETATM   48  H   UNL     1     -10.894   3.996  70.748  1.00  0.00     0.000 HD 
HETATM   49  C   UNL     1     -10.447   8.089  69.193  1.00  0.00    -0.208 C  
HETATM   50  C   UNL     1      -8.816   4.136  69.220  1.00  0.00    -0.142 C  
HETATM   51  C   UNL     1     -12.646  11.095  68.368  1.00  0.00     1.309 C  
HETATM   52  C   UNL     1     -11.045  10.157  68.343  1.00  0.00    -0.273 C  
BRANCH  49  53
HETATM   53  O   UNL     1     -11.053   6.940  70.728  1.00  0.00    -0.250 OA 
BRANCH  53  54
HETATM   54  C   UNL     1     -10.909   6.534  72.450  1.00  0.00    -0.233 C  
HETATM   55  C   UNL     1     -11.026   5.067  73.745  1.00  0.00    -0.336 C  
HETATM   56  O   UNL     1     -10.497   7.489  73.140  1.00  0.00    -0.299 OA 
ENDBRANCH  53  54
ENDBRANCH  49  53
ENDBRANCH   2   3
TORSDOF 3
ENDMDL
MODEL        9
REMARK 921   NORMALIZED FREE ENERGY PREDICTED BY IDOCK:   -2.35 KCAL/MOL
REMARK 922        TOTAL FREE ENERGY PREDICTED BY IDOCK:   -3.40 KCAL/MOL
REMARK 923 INTER-LIGAND FREE ENERGY PREDICTED BY IDOCK:   -5.82 KCAL/MOL
REMARK 924 INTRA-LIGAND FREE ENERGY PREDICTED BY IDOCK:    2.42 KCAL/MOL
REMARK 927      BINDING AFFINITY PREDICTED BY RF-SCORE:    0.00 PKD
ROOT
HETATM    1  C   UNL     1      -6.592   5.008  68.513  1.00  0.00    -0.049 C  
HETATM    2  O   UNL     1      -6.409   6.816  68.397  1.00  0.00    -0.029 OA 
ENDROOT
BRANCH   2   3
HETATM    3  C   UNL     1      -7.504   8.356  68.807  1.00  0.00    -0.092 C  
HETATM    4  C   UNL     1      -8.067   6.684  69.901  1.00  0.00    -0.125 C  
HETATM    5  C   UNL     1      -7.814   5.550  70.847  1.00  0.00    -0.104 C  
HETATM    6  O   UNL     1      -8.655   4.204  71.448  1.00  0.00    -0.097 OA 
HETATM    7  C   UNL     1      -8.914   4.107  73.126  1.00  0.00    -0.107 C  
HETATM    8  C   UNL     1      -9.477   3.347  74.485  1.00  0.00    -0.127 C  
HETATM    9  O   UNL     1      -7.991   4.944  73.754  1.00  0.00    -0.101 OA 
HETATM   10  C   UNL     1      -8.481   6.150  73.344  1.00  0.00    -0.119 A  
HETATM   11  C   UNL     1      -9.795   6.155  72.789  1.00  0.00    -0.176 A  
HETATM   12  C   UNL     1     -10.184   4.751  72.708  1.00  0.00    -0.182 C  
HETATM   13  C   UNL     1     -10.242   7.190  72.005  1.00  0.00    -0.209 A  
HETATM   14  O   UNL     1     -11.143   4.160  72.237  1.00  0.00     0.173 OA 
HETATM   15  C   UNL     1      -9.296   8.250  71.839  1.00  0.00    -0.282 A  
HETATM   16  C   UNL     1      -7.932   8.153  72.345  1.00  0.00    -0.138 A  
HETATM   17  C   UNL     1      -9.740   9.324  71.091  1.00  0.00    -0.257 A  
HETATM   18  O   UNL     1      -8.973  10.463  71.193  1.00  0.00     0.824 OA 
HETATM   19  C   UNL     1     -11.008   9.335  70.471  1.00  0.00    -0.265 A  
HETATM   20  C   UNL     1      -7.504   7.085  73.094  1.00  0.00    -0.076 A  
HETATM   21  O   UNL     1      -6.890   8.954  71.941  1.00  0.00    -0.202 OA 
HETATM   22  N   UNL     1     -11.471  10.438  69.767  1.00  0.00    -0.267 N  
HETATM   23  C   UNL     1      -6.047   6.752  73.314  1.00  0.00    -0.058 C  
HETATM   24  H   UNL     1      -9.277  11.202  70.678  1.00  0.00     0.000 HD 
HETATM   25  H   UNL     1      -6.001   8.891  72.271  1.00  0.00     0.000 HD 
HETATM   26  C   UNL     1     -11.907   8.285  70.635  1.00  0.00    -0.092 A  
HETATM   27  C   UNL     1     -11.516   7.205  71.389  1.00  0.00    -0.272 A  
HETATM   28  H   UNL     1     -12.479  10.573  69.683  1.00  0.00     0.000 HD 
HETATM   29  C   UNL     1     -10.649  11.344  69.187  1.00  0.00    -0.160 C  
HETATM   30  O   UNL     1     -12.417   6.216  71.651  1.00  0.00    -0.077 OA 
HETATM   31  O   UNL     1      -9.481  11.161  68.857  1.00  0.00    -0.188 OA 
HETATM   32  C   UNL     1     -11.323  12.584  68.860  1.00  0.00    -0.346 C  
HETATM   33  C   UNL     1     -10.491  13.612  68.762  1.00  0.00    -0.214 C  
HETATM   34  C   UNL     1     -12.729  12.720  68.400  1.00  0.00     1.331 C  
HETATM   35  H   UNL     1     -13.273   6.226  71.237  1.00  0.00     0.000 HD 
HETATM   36  C   UNL     1     -11.023  14.659  67.978  1.00  0.00    -0.274 C  
HETATM   37  C   UNL     1     -10.240  15.636  67.695  1.00  0.00    -0.261 C  
HETATM   38  C   UNL     1     -10.867  16.822  67.154  1.00  0.00    -0.102 C  
HETATM   39  C   UNL     1     -10.937  17.078  65.483  1.00  0.00     0.025 C  
HETATM   40  C   UNL     1     -10.063  17.667  68.175  1.00  0.00    -0.347 C  
HETATM   41  C   UNL     1      -9.202  18.458  67.336  1.00  0.00    -0.275 C  
HETATM   42  O   UNL     1     -10.519  17.992  69.477  1.00  0.00    -0.351 OA 
HETATM   43  H   UNL     1     -10.027  18.509  70.103  1.00  0.00     0.000 HD 
HETATM   44  C   UNL     1      -7.763  16.925  67.568  1.00  0.00    -0.187 C  
HETATM   45  C   UNL     1     -10.888  19.338  67.362  1.00  0.00    -0.554 C  
HETATM   46  O   UNL     1      -6.344  17.487  66.527  1.00  0.00    -0.182 OA 
HETATM   47  C   UNL     1      -7.694  14.899  67.247  1.00  0.00    -0.227 C  
HETATM   48  H   UNL     1      -5.697  16.798  66.631  1.00  0.00     0.000 HD 
HETATM   49  C   UNL     1      -7.045  12.832  67.981  1.00  0.00    -0.111 C  
HETATM   50  C   UNL     1      -8.202  16.484  66.081  1.00  0.00    -0.279 C  
HETATM   51  C   UNL     1      -5.583   9.356  68.564  1.00  0.00    -0.040 C  
HETATM   52  C   UNL     1      -6.989  10.556  68.402  1.00  0.00    -0.066 C  
BRANCH  49  53
HETATM   53  O   UNL     1      -5.809  14.382  68.317  1.00  0.00    -0.098 OA 
BRANCH  53  54
HETATM   54  C   UNL     1      -5.356  15.743  69.362  1.00  0.00    -0.108 C  
HETATM   55  C   UNL     1      -5.176  17.694  69.432  1.00  0.00    -0.177 C  
HETATM   56  O   UNL     1      -5.136  15.396  70.541  1.00  0.00    -0.121 OA 
ENDBRANCH  53  54
ENDBRANCH  49  53
ENDBRANCH   2   3
TORSDOF 3
ENDMDL
MODEL       10
REMARK 921   NORMALIZED FREE ENERGY PREDICTED BY IDOCK:   -0.06 KCAL/MOL
REMARK 922        TOTAL FREE ENERGY PREDICTED BY IDOCK:   -0.72 KCAL/MOL
REMARK 923 INTER-LIGAND FREE ENERGY PREDICTED BY IDOCK:   -2.81 KCAL/MOL
REMARK 924 INTRA-LIGAND FREE ENERGY PREDICTED BY IDOCK:    2.10 KCAL/MOL
REMARK 927      BINDING AFFINITY PREDICTED BY RF-SCORE:    0.00 PKD
ROOT
HETATM    1  C   UNL     1      -5.129   7.050  71.883  1.00  0.00    -0.028 C  
HETATM    2  O   UNL     1      -5.225   8.195  70.470  1.00  0.00    -0.023 OA 
ENDROOT
BRANCH   2   3
HETATM    3  C   UNL     1      -6.513   9.468  69.792  1.00  0.00    -0.046 C  
HETATM    4  C   UNL     1      -7.306   7.555  69.938  1.00  0.00    -0.082 C  
HETATM    5  C   UNL     1      -7.664   6.301  70.676  1.00  0.00    -0.105 C  
HETATM    6  O   UNL     1      -8.288   4.765  70.316  1.00  0.00    -0.078 OA 
HETATM    7  C   UNL     1      -9.758   4.308  71.041  1.00  0.00    -0.190 C  
HETATM    8  C   UNL     1     -10.980   3.230  71.334  1.00  0.00     1.908 C  
HETATM    9  O   UNL     1      -9.958   5.121  72.157  1.00  0.00    -0.175 OA 
HETATM   10  C   UNL     1     -10.179   6.308  71.522  1.00  0.00    -0.200 A  
HETATM   11  C   UNL     1     -10.448   6.249  70.122  1.00  0.00    -0.278 A  
HETATM   12  C   UNL     1     -10.264   4.849  69.754  1.00  0.00    -0.214 C  
HETATM   13  C   UNL     1     -10.303   7.349  69.313  1.00  0.00    -0.204 A  
HETATM   14  O   UNL     1     -10.267   4.240  68.696  1.00  0.00     0.063 OA 
HETATM   15  C   UNL     1      -9.904   8.536  70.005  1.00  0.00    -0.181 A  
HETATM   16  C   UNL     1      -9.547   8.522  71.418  1.00  0.00    -0.215 A  
HETATM   17  C   UNL     1      -9.796   9.668  69.218  1.00  0.00    -0.189 A  
HETATM   18  O   UNL     1      -9.729  10.856  69.911  1.00  0.00    -0.337 OA 
HETATM   19  C   UNL     1      -9.990   9.633  67.821  1.00  0.00    -0.171 A  
HETATM   20  C   UNL     1      -9.666   7.395  72.192  1.00  0.00    -0.182 A  
HETATM   21  O   UNL     1      -8.844   9.517  72.056  1.00  0.00     0.066 OA 
HETATM   22  N   UNL     1      -9.935  10.782  67.043  1.00  0.00    -0.191 N  
HETATM   23  C   UNL     1      -8.973   7.219  73.522  1.00  0.00    -0.215 C  
HETATM   24  H   UNL     1      -9.654  11.634  69.371  1.00  0.00     0.000 HD 
HETATM   25  H   UNL     1      -8.611   9.508  72.977  1.00  0.00     0.000 HD 
HETATM   26  C   UNL     1     -10.364   8.462  67.167  1.00  0.00    -0.381 A  
HETATM   27  C   UNL     1     -10.504   7.316  67.913  1.00  0.00    -0.209 A  
HETATM   28  H   UNL     1     -10.447  10.796  66.161  1.00  0.00     0.000 HD 
HETATM   29  C   UNL     1      -9.234  11.883  67.400  1.00  0.00    -0.177 C  
HETATM   30  O   UNL     1     -10.972   6.186  67.312  1.00  0.00    -0.380 OA 
HETATM   31  O   UNL     1      -8.289  11.923  68.183  1.00  0.00    -0.146 OA 
HETATM   32  C   UNL     1      -9.628  13.064  66.659  1.00  0.00    -0.259 C  
HETATM   33  C   UNL     1      -9.339  14.191  67.294  1.00  0.00    -0.225 C  
HETATM   34  C   UNL     1     -10.055  13.100  65.236  1.00  0.00    -0.250 C  
HETATM   35  H   UNL     1     -11.106   6.163  66.372  1.00  0.00     0.000 HD 
HETATM   36  C   UNL     1      -9.244  15.292  66.414  1.00  0.00    -0.342 C  
HETATM   37  C   UNL     1      -8.820  16.400  66.905  1.00  0.00    -0.232 C  
HETATM   38  C   UNL     1      -9.004  17.575  66.083  1.00  0.00    -0.156 C  
HETATM   39  C   UNL     1      -7.757  18.141  65.090  1.00  0.00     1.710 C  
HETATM   40  C   UNL     1      -9.589  18.303  67.321  1.00  0.00    -0.281 C  
HETATM   41  C   UNL     1      -8.631  19.349  67.565  1.00  0.00    -0.338 C  
HETATM   42  O   UNL     1     -10.962  18.305  67.672  1.00  0.00    -0.333 OA 
HETATM   43  H   UNL     1     -11.320  18.750  68.430  1.00  0.00     0.000 HD 
HETATM   44  C   UNL     1      -7.674  18.003  68.887  1.00  0.00    -0.213 C  
HETATM   45  C   UNL     1      -9.776  19.977  66.183  1.00  0.00    -0.517 C  
HETATM   46  O   UNL     1      -6.195  18.939  69.481  1.00  0.00    -0.259 OA 
HETATM   47  C   UNL     1      -6.900  16.106  68.764  1.00  0.00    -0.144 C  
HETATM   48  H   UNL     1      -5.765  18.335  70.075  1.00  0.00     0.000 HD 
HETATM   49  C   UNL     1      -6.652  14.039  69.712  1.00  0.00    -0.081 C  
HETATM   50  C   UNL     1      -6.611  17.807  67.691  1.00  0.00    -0.191 C  
HETATM   51  C   UNL     1      -5.508  10.739  71.249  1.00  0.00    -0.007 C  
HETATM   52  C   UNL     1      -6.425  11.752  69.993  1.00  0.00    -0.022 C  
BRANCH  49  53
HETATM   53  O   UNL     1      -6.615  15.643  70.925  1.00  0.00     0.521 OA 
BRANCH  53  54
HETATM   54  C   UNL     1      -5.650  16.896  71.729  1.00  0.00     0.860 C  
HETATM   55  C   UNL     1      -5.133  18.786  71.656  1.00  0.00    -0.205 C  
HETATM   56  O   UNL     1      -5.151  16.508  72.805  1.00  0.00     0.710 OA 
ENDBRANCH  53  54
ENDBRANCH  49  53
ENDBRANCH   2   3
TORSDOF 3
ENDMDL
MODEL       11
REMARK 921   NORMALIZED FREE ENERGY PREDICTED BY IDOCK:    0.94 KCAL/MOL
REMARK 922        TOTAL FREE ENERGY PREDICTED BY IDOCK:    0.47 KCAL/MOL
REMARK 923 INTER-LIGAND FREE ENERGY PREDICTED BY IDOCK:   -0.23 KCAL/MOL
REMARK 924 INTRA-LIGAND FREE ENERGY PREDICTED BY IDOCK:    0.69 KCAL/MOL
REMARK 927      BINDING AFFINITY PREDICTED BY RF-SCORE:    0.00 PKD
ROOT
HETATM    1  C   UNL     1     -11.772   6.528  67.083  1.00  0.00     0.988 C  
HETATM    2  O   UNL     1     -11.440   8.031  68.055  1.00  0.00     0.714 OA 
ENDROOT
BRANCH   2   3
HETATM    3  C   UNL     1     -10.031   9.353  68.139  1.00  0.00    -0.175 C  
HETATM    4  C   UNL     1      -9.294   7.416  68.265  1.00  0.00    -0.140 C  
HETATM    5  C   UNL     1      -9.110   6.014  67.770  1.00  0.00    -0.109 C  
HETATM    6  O   UNL     1      -8.427   4.563  68.327  1.00  0.00    -0.093 OA 
HETATM    7  C   UNL     1      -7.153   3.883  67.431  1.00  0.00    -0.063 C  
HETATM    8  C   UNL     1      -6.027   2.704  67.136  1.00  0.00    -0.023 C  
HETATM    9  O   UNL     1      -7.197   4.419  66.143  1.00  0.00    -0.073 OA 
HETATM   10  C   UNL     1      -6.840   5.703  66.432  1.00  0.00    -0.059 A  
HETATM   11  C   UNL     1      -6.273   5.939  67.720  1.00  0.00    -0.033 A  
HETATM   12  C   UNL     1      -6.377   4.666  68.424  1.00  0.00    -0.036 C  
HETATM   13  C   UNL     1      -6.234   7.196  68.272  1.00  0.00    -0.035 A  
HETATM   14  O   UNL     1      -6.145   4.305  69.568  1.00  0.00    -0.024 OA 
HETATM   15  C   UNL     1      -6.770   8.221  67.430  1.00  0.00    -0.063 A  
HETATM   16  C   UNL     1      -7.427   7.916  66.165  1.00  0.00    -0.079 A  
HETATM   17  C   UNL     1      -6.701   9.503  67.945  1.00  0.00    -0.066 A  
HETATM   18  O   UNL     1      -6.913  10.511  67.032  1.00  0.00    -0.082 OA 
HETATM   19  C   UNL     1      -6.207   9.765  69.241  1.00  0.00    -0.036 A  
HETATM   20  C   UNL     1      -7.483   6.641  65.658  1.00  0.00    -0.082 A  
HETATM   21  O   UNL     1      -8.249   8.782  65.482  1.00  0.00    -0.117 OA 
HETATM   22  N   UNL     1      -6.088  11.058  69.733  1.00  0.00    -0.082 N  
HETATM   23  C   UNL     1      -8.450   6.215  64.580  1.00  0.00     0.051 C  
HETATM   24  H   UNL     1      -6.866  11.392  67.386  1.00  0.00     0.000 HD 
HETATM   25  H   UNL     1      -8.677   8.583  64.658  1.00  0.00     0.000 HD 
HETATM   26  C   UNL     1      -5.704   8.748  70.048  1.00  0.00    -0.027 A  
HETATM   27  C   UNL     1      -5.733   7.461  69.568  1.00  0.00    -0.023 A  
HETATM   28  H   UNL     1      -5.396  11.239  70.460  1.00  0.00     0.000 HD 
HETATM   29  C   UNL     1      -6.846  12.089  69.293  1.00  0.00    -0.066 C  
HETATM   30  O   UNL     1      -5.149   6.467  70.295  1.00  0.00    -0.013 OA 
HETATM   31  O   UNL     1      -7.938  12.005  68.739  1.00  0.00    -0.109 OA 
HETATM   32  C   UNL     1      -6.296  13.381  69.648  1.00  0.00    -0.093 C  
HETATM   33  C   UNL     1      -6.713  14.355  68.851  1.00  0.00    -0.098 C  
HETATM   34  C   UNL     1      -5.569  13.707  70.902  1.00  0.00    -0.200 C  
HETATM   35  H   UNL     1      -4.813   6.645  71.167  1.00  0.00     0.000 HD 
HETATM   36  C   UNL     1      -6.610  15.626  69.459  1.00  0.00    -0.179 C  
HETATM   37  C   UNL     1      -7.128  16.619  68.832  1.00  0.00    -0.205 C  
HETATM   38  C   UNL     1      -6.765  17.935  69.309  1.00  0.00    -0.213 C  
HETATM   39  C   UNL     1      -7.764  18.770  70.390  1.00  0.00     2.065 C  
HETATM   40  C   UNL     1      -6.462  18.342  67.844  1.00  0.00    -0.195 C  
HETATM   41  C   UNL     1      -7.446  19.357  67.579  1.00  0.00    -0.271 C  
HETATM   42  O   UNL     1      -5.198  18.195  67.220  1.00  0.00    -0.130 OA 
HETATM   43  H   UNL     1      -5.013  18.443  66.322  1.00  0.00     0.000 HD 
HETATM   44  C   UNL     1      -8.673  17.806  66.828  1.00  0.00    -0.273 C  
HETATM   45  C   UNL     1      -6.025  20.213  68.509  1.00  0.00    -0.303 C  
HETATM   46  O   UNL     1     -10.242  18.664  66.365  1.00  0.00    -0.379 OA 
HETATM   47  C   UNL     1      -9.407  16.025  67.537  1.00  0.00    -0.217 C  
HETATM   48  H   UNL     1     -10.793  17.968  66.027  1.00  0.00     0.000 HD 
HETATM   49  C   UNL     1      -9.863  13.816  67.154  1.00  0.00    -0.242 C  
HETATM   50  C   UNL     1      -9.450  17.933  68.234  1.00  0.00    -0.300 C  
HETATM   51  C   UNL     1     -11.325  10.324  66.679  1.00  0.00     0.544 C  
HETATM   52  C   UNL     1     -10.153  11.539  67.451  1.00  0.00    -0.213 C  
BRANCH  49  53
HETATM   53  O   UNL     1     -10.158  15.114  65.647  1.00  0.00    -0.312 OA 
BRANCH  53  54
HETATM   54  C   UNL     1     -11.259  15.760  64.414  1.00  0.00    -0.236 C  
HETATM   55  C   UNL     1     -12.625  15.268  63.097  1.00  0.00     2.343 C  
HETATM   56  O   UNL     1     -11.276  17.008  64.385  1.00  0.00    -1.167 OA 
ENDBRANCH  53  54
ENDBRANCH  49  53
ENDBRANCH   2   3
TORSDOF 3
ENDMDL
MODEL       12
REMARK 921   NORMALIZED FREE ENERGY PREDICTED BY IDOCK:    1.09 KCAL/MOL
REMARK 922        TOTAL FREE ENERGY PREDICTED BY IDOCK:    0.64 KCAL/MOL
REMARK 923 INTER-LIGAND FREE ENERGY PREDICTED BY IDOCK:   -1.47 KCAL/MOL
REMARK 924 INTRA-LIGAND FREE ENERGY PREDICTED BY IDOCK:    2.11 KCAL/MOL
REMARK 927      BINDING AFFINITY PREDICTED BY RF-SCORE:    0.00 PKD
ROOT
HETATM    1  C   UNL     1      -5.301   6.639  66.302  1.00  0.00    -0.017 C  
HETATM    2  O   UNL     1      -5.594   8.424  66.093  1.00  0.00    -0.037 OA 
ENDROOT
BRANCH   2   3
HETATM    3  C   UNL     1      -6.934   9.692  66.669  1.00  0.00    -0.085 C  
HETATM    4  C   UNL     1      -7.564   7.729  66.907  1.00  0.00    -0.099 C  
HETATM    5  C   UNL     1      -7.438   6.332  67.435  1.00  0.00    -0.085 C  
HETATM    6  O   UNL     1      -8.241   4.847  67.264  1.00  0.00    -0.106 OA 
HETATM    7  C   UNL     1      -8.924   4.142  68.653  1.00  0.00    -0.114 C  
HETATM    8  C   UNL     1      -9.734   2.931  69.441  1.00  0.00     0.085 C  
HETATM    9  O   UNL     1      -8.308   4.707  69.770  1.00  0.00    -0.073 OA 
HETATM   10  C   UNL     1      -8.812   5.972  69.677  1.00  0.00    -0.133 A  
HETATM   11  C   UNL     1      -9.922   6.159  68.800  1.00  0.00    -0.175 A  
HETATM   12  C   UNL     1     -10.104   4.875  68.132  1.00  0.00    -0.075 C  
HETATM   13  C   UNL     1     -10.265   7.402  68.326  1.00  0.00    -0.213 A  
HETATM   14  O   UNL     1     -10.826   4.481  67.229  1.00  0.00     0.420 OA 
HETATM   15  C   UNL     1      -9.442   8.463  68.818  1.00  0.00    -0.147 A  
HETATM   16  C   UNL     1      -8.260   8.209  69.633  1.00  0.00    -0.120 A  
HETATM   17  C   UNL     1      -9.795   9.730  68.391  1.00  0.00    -0.152 A  
HETATM   18  O   UNL     1      -9.225  10.765  69.097  1.00  0.00    -0.290 OA 
HETATM   19  C   UNL     1     -10.845   9.946  67.472  1.00  0.00    -0.243 A  
HETATM   20  C   UNL     1      -7.922   6.949  70.060  1.00  0.00    -0.116 A  
HETATM   21  O   UNL     1      -7.251   9.118  69.853  1.00  0.00    -0.053 OA 
HETATM   22  N   UNL     1     -11.233  11.222  67.088  1.00  0.00    -0.300 N  
HETATM   23  C   UNL     1      -6.548   6.580  70.566  1.00  0.00    -0.049 C  
HETATM   24  H   UNL     1      -9.467  11.635  68.803  1.00  0.00     0.000 HD 
HETATM   25  H   UNL     1      -6.481   8.953  70.383  1.00  0.00     0.000 HD 
HETATM   26  C   UNL     1     -11.623   8.894  66.996  1.00  0.00     2.614 A  
HETATM   27  C   UNL     1     -11.320   7.620  67.411  1.00  0.00     0.727 A  
HETATM   28  H   UNL     1     -12.190  11.363  66.766  1.00  0.00     0.000 HD 
HETATM   29  C   UNL     1     -10.400  12.289  67.121  1.00  0.00    -0.218 C  
HETATM   30  O   UNL     1     -12.135   6.591  67.042  1.00  0.00     0.315 OA 
HETATM   31  O   UNL     1      -9.173  12.256  67.104  1.00  0.00    -0.184 OA 
HETATM   32  C   UNL     1     -11.105  13.553  67.060  1.00  0.00    -0.310 C  
HETATM   33  C   UNL     1     -10.406  14.558  67.568  1.00  0.00    -0.244 C  
HETATM   34  C   UNL     1     -12.345  13.825  66.286  1.00  0.00    -0.479 C  
HETATM   35  H   UNL     1     -12.844   6.737  66.426  1.00  0.00     0.000 HD 
HETATM   36  C   UNL     1     -10.832  15.811  67.074  1.00  0.00    -0.273 C  
HETATM   37  C   UNL     1     -10.124  16.836  67.385  1.00  0.00    -0.276 C  
HETATM   38  C   UNL     1     -10.721  18.127  67.127  1.00  0.00    -0.309 C  
HETATM   39  C   UNL     1     -10.375  18.973  65.703  1.00  0.00    -0.156 C  
HETATM   40  C   UNL     1     -10.325  18.555  68.563  1.00  0.00    -0.277 C  
HETATM   41  C   UNL     1      -9.373  19.610  68.337  1.00  0.00    -0.425 C  
HETATM   42  O   UNL     1     -11.146  18.377  69.704  1.00  0.00     0.926 OA 
HETATM   43  H   UNL     1     -10.903  18.639  70.584  1.00  0.00     0.000 HD 
HETATM   44  C   UNL     1      -7.875  18.119  68.435  1.00  0.00    -0.306 C  
HETATM   45  C   UNL     1     -11.097  20.395  68.172  1.00  0.00     0.806 C  
HETATM   46  O   UNL     1      -6.307  19.043  68.113  1.00  0.00    -0.213 OA 
HETATM   47  C   UNL     1      -7.482  16.350  67.472  1.00  0.00    -0.165 C  
HETATM   48  H   UNL     1      -5.634  18.374  68.157  1.00  0.00     0.000 HD 
HETATM   49  C   UNL     1      -6.809  14.168  67.605  1.00  0.00    -0.179 C  
HETATM   50  C   UNL     1      -7.847  18.243  66.829  1.00  0.00    -0.255 C  
HETATM   51  C   UNL     1      -5.151  10.741  67.356  1.00  0.00    -0.037 C  
HETATM   52  C   UNL     1      -6.596  11.896  67.215  1.00  0.00    -0.141 C  
BRANCH  49  53
HETATM   53  O   UNL     1      -5.901  15.508  68.798  1.00  0.00    -0.094 OA 
BRANCH  53  54
HETATM   54  C   UNL     1      -5.511  16.028  70.450  1.00  0.00    -0.163 C  
HETATM   55  C   UNL     1      -5.132  17.593  71.569  1.00  0.00     0.079 C  
HETATM   56  O   UNL     1      -5.564  15.095  71.277  1.00  0.00    -0.058 OA 
ENDBRANCH  53  54
ENDBRANCH  49  53
ENDBRANCH   2   3
TORSDOF 3
ENDMDL
MODEL       13
REMARK 921   NORMALIZED FREE ENERGY PREDICTED BY IDOCK:    2.20 KCAL/MOL
REMARK 922        TOTAL FREE ENERGY PREDICTED BY IDOCK:    1.95 KCAL/MOL
REMARK 923 INTER-LIGAND FREE ENERGY PREDICTED BY IDOCK:   -1.76 KCAL/MOL
REMARK 924 INTRA-LIGAND FREE ENERGY PREDICTED BY IDOCK:    3.70 KCAL/MOL
REMARK 927      BINDING AFFINITY PREDICTED BY RF-SCORE:    0.00 PKD
ROOT
HETATM    1  C   UNL     1      -8.882   7.143  64.640  1.00  0.00     0.567 C  
HETATM    2  O   UNL     1      -8.092   8.528  65.519  1.00  0.00    -0.112 OA 
ENDROOT
BRANCH   2   3
HETATM    3  C   UNL     1      -8.687   9.992  66.633  1.00  0.00    -0.129 C  
HETATM    4  C   UNL     1      -9.060   8.145  67.505  1.00  0.00    -0.147 C  
HETATM    5  C   UNL     1      -8.658   6.798  68.022  1.00  0.00    -0.122 C  
HETATM    6  O   UNL     1      -9.417   5.407  68.631  1.00  0.00    -0.114 OA 
HETATM    7  C   UNL     1      -9.038   4.917  70.214  1.00  0.00    -0.118 C  
HETATM    8  C   UNL     1      -9.164   3.886  71.504  1.00  0.00    -0.189 C  
HETATM    9  O   UNL     1      -7.824   5.506  70.568  1.00  0.00    -0.093 OA 
HETATM   10  C   UNL     1      -8.229   6.807  70.641  1.00  0.00    -0.120 A  
HETATM   11  C   UNL     1      -9.635   7.042  70.676  1.00  0.00    -0.165 A  
HETATM   12  C   UNL     1     -10.249   5.732  70.482  1.00  0.00    -0.221 C  
HETATM   13  C   UNL     1     -10.170   8.267  70.363  1.00  0.00    -0.209 A  
HETATM   14  O   UNL     1     -11.397   5.344  70.331  1.00  0.00     0.082 OA 
HETATM   15  C   UNL     1      -9.198   9.266  70.043  1.00  0.00    -0.231 A  
HETATM   16  C   UNL     1      -7.779   8.951  69.925  1.00  0.00    -0.076 A  
HETATM   17  C   UNL     1      -9.709  10.520  69.768  1.00  0.00     0.035 A  
HETATM   18  O   UNL     1      -8.786  11.542  69.776  1.00  0.00     0.375 OA 
HETATM   19  C   UNL     1     -11.097  10.773  69.729  1.00  0.00    -0.281 A  
HETATM   20  C   UNL     1      -7.280   7.704  70.209  1.00  0.00    -0.067 A  
HETATM   21  O   UNL     1      -6.849   9.752  69.303  1.00  0.00    -0.051 OA 
HETATM   22  N   UNL     1     -11.605  12.046  69.507  1.00  0.00    -0.331 N  
HETATM   23  C   UNL     1      -5.922   7.225  69.751  1.00  0.00    -0.024 C  
HETATM   24  H   UNL     1      -9.138  12.404  69.586  1.00  0.00     0.000 HD 
HETATM   25  H   UNL     1      -5.925   9.547  69.226  1.00  0.00     0.000 HD 
HETATM   26  C   UNL     1     -12.026   9.780  70.030  1.00  0.00    -0.006 A  
HETATM   27  C   UNL     1     -11.561   8.522  70.330  1.00  0.00     0.007 A  
HETATM   28  H   UNL     1     -12.534  12.267  69.865  1.00  0.00     0.000 HD 
HETATM   29  C   UNL     1     -10.927  13.006  68.837  1.00  0.00    -0.230 C  
HETATM   30  O   UNL     1     -12.446   7.566  70.731  1.00  0.00    -0.527 OA 
HETATM   31  O   UNL     1     -10.015  12.829  68.034  1.00  0.00    -0.212 OA 
HETATM   32  C   UNL     1     -11.463  14.333  69.063  1.00  0.00    -0.318 C  
HETATM   33  C   UNL     1     -10.574  15.292  68.844  1.00  0.00    -0.242 C  
HETATM   34  C   UNL     1     -12.897  14.676  69.248  1.00  0.00     0.515 C  
HETATM   35  H   UNL     1     -13.380   7.737  70.708  1.00  0.00     0.000 HD 
HETATM   36  C   UNL     1     -11.184  16.535  68.568  1.00  0.00    -0.296 C  
HETATM   37  C   UNL     1     -10.418  17.494  68.193  1.00  0.00    -0.386 C  
HETATM   38  C   UNL     1     -11.000  18.818  68.199  1.00  0.00     0.126 C  
HETATM   39  C   UNL     1     -11.651  19.483  66.786  1.00  0.00     0.898 C  
HETATM   40  C   UNL     1      -9.745  19.326  68.954  1.00  0.00    -0.430 C  
HETATM   41  C   UNL     1      -9.148  20.237  68.015  1.00  0.00    -0.226 C  
HETATM   42  O   UNL     1      -9.619  19.351  70.365  1.00  0.00     0.751 OA 
HETATM   43  H   UNL     1      -8.850  19.661  70.828  1.00  0.00     0.000 HD 
HETATM   44  C   UNL     1      -7.997  18.597  67.336  1.00  0.00    -0.247 C  
HETATM   45  C   UNL     1     -10.532  21.199  68.893  1.00  0.00     0.992 C  
HETATM   46  O   UNL     1      -7.002  19.298  65.945  1.00  0.00    -0.249 OA 
HETATM   47  C   UNL     1      -8.384  16.713  66.618  1.00  0.00    -0.296 C  
HETATM   48  H   UNL     1      -6.485  18.561  65.639  1.00  0.00     0.000 HD 
HETATM   49  C   UNL     1      -7.851  14.489  66.600  1.00  0.00     0.597 C  
HETATM   50  C   UNL     1      -9.028  18.569  66.097  1.00  0.00    -0.123 C  
HETATM   51  C   UNL     1      -6.863  10.883  65.840  1.00  0.00    -0.032 C  
HETATM   52  C   UNL     1      -8.012  12.182  66.501  1.00  0.00     0.146 C  
BRANCH  49  53
HETATM   53  O   UNL     1      -6.345  15.818  66.710  1.00  0.00    -0.209 OA 
BRANCH  53  54
HETATM   54  C   UNL     1      -5.581  17.279  66.054  1.00  0.00     0.076 C  
HETATM   55  C   UNL     1      -5.178  18.248  64.398  1.00  0.00     0.029 C  
HETATM   56  O   UNL     1      -5.210  18.073  66.944  1.00  0.00    -0.126 OA 
ENDBRANCH  53  54
ENDBRANCH  49  53
ENDBRANCH   2   3
TORSDOF 3
ENDMDL
MODEL       14
REMARK 921   NORMALIZED FREE ENERGY PREDICTED BY IDOCK:    5.09 KCAL/MOL
REMARK 922        TOTAL FREE ENERGY PREDICTED BY IDOCK:    5.34 KCAL/MOL
REMARK 923 INTER-LIGAND FREE ENERGY PREDICTED BY IDOCK:    5.45 KCAL/MOL
REMARK 924 INTRA-LIGAND FREE ENERGY PREDICTED BY IDOCK:   -0.11 KCAL/MOL
REMARK 927      BINDING AFFINITY PREDICTED BY RF-SCORE:    0.00 PKD
ROOT
HETATM    1  C   UNL     1     -12.462   6.180  71.611  1.00  0.00     0.169 C  
HETATM    2  O   UNL     1     -10.946   7.181  71.738  1.00  0.00    -0.225 OA 
ENDROOT
BRANCH   2   3
HETATM    3  C   UNL     1     -10.015   8.448  70.613  1.00  0.00    -0.185 C  
HETATM    4  C   UNL     1      -9.423   6.493  70.244  1.00  0.00    -0.169 C  
HETATM    5  C   UNL     1      -9.669   5.060  69.881  1.00  0.00    -0.266 C  
HETATM    6  O   UNL     1      -8.783   3.615  69.794  1.00  0.00    -0.066 OA 
HETATM    7  C   UNL     1      -8.666   2.838  68.286  1.00  0.00    -0.101 C  
HETATM    8  C   UNL     1      -8.167   1.601  67.304  1.00  0.00    -0.074 C  
HETATM    9  O   UNL     1      -9.703   3.307  67.479  1.00  0.00    -0.149 OA 
HETATM   10  C   UNL     1      -9.274   4.589  67.300  1.00  0.00    -0.136 A  
HETATM   11  C   UNL     1      -7.921   4.870  67.653  1.00  0.00    -0.094 A  
HETATM   12  C   UNL     1      -7.418   3.641  68.257  1.00  0.00    -0.057 C  
HETATM   13  C   UNL     1      -7.488   6.152  67.888  1.00  0.00    -0.085 A  
HETATM   14  O   UNL     1      -6.378   3.333  68.818  1.00  0.00    -0.028 OA 
HETATM   15  C   UNL     1      -8.495   7.152  67.710  1.00  0.00    -0.120 A  
HETATM   16  C   UNL     1      -9.887   6.806  67.446  1.00  0.00    -0.137 A  
HETATM   17  C   UNL     1      -8.073   8.455  67.897  1.00  0.00    -0.123 A  
HETATM   18  O   UNL     1      -8.932   9.421  67.424  1.00  0.00    -0.124 OA 
HETATM   19  C   UNL     1      -6.760   8.766  68.310  1.00  0.00    -0.065 A  
HETATM   20  C   UNL     1     -10.295   5.510  67.253  1.00  0.00    -0.290 A  
HETATM   21  O   UNL     1     -10.949   7.667  67.599  1.00  0.00    -0.497 OA 
HETATM   22  N   UNL     1      -6.323  10.077  68.443  1.00  0.00    -0.049 N  
HETATM   23  C   UNL     1     -11.735   5.065  67.354  1.00  0.00     4.313 C  
HETATM   24  H   UNL     1      -8.642  10.317  67.553  1.00  0.00     0.000 HD 
HETATM   25  H   UNL     1     -11.855   7.442  67.427  1.00  0.00     0.000 HD 
HETATM   26  C   UNL     1      -5.799   7.774  68.491  1.00  0.00    -0.031 A  
HETATM   27  C   UNL     1      -6.170   6.465  68.295  1.00  0.00    -0.036 A  
HETATM   28  H   UNL     1      -5.326  10.269  68.350  1.00  0.00     0.000 HD 
HETATM   29  C   UNL     1      -7.159  11.113  68.689  1.00  0.00    -0.090 C  
HETATM   30  O   UNL     1      -5.221   5.489  68.362  1.00  0.00    -0.003 OA 
HETATM   31  O   UNL     1      -8.275  11.044  69.194  1.00  0.00    -0.131 OA 
HETATM   32  C   UNL     1      -6.558  12.399  68.401  1.00  0.00    -0.065 C  
HETATM   33  C   UNL     1      -7.455  13.345  68.162  1.00  0.00    -0.133 C  
HETATM   34  C   UNL     1      -5.131  12.762  68.603  1.00  0.00    -0.058 C  
HETATM   35  H   UNL     1      -4.336   5.699  68.637  1.00  0.00     0.000 HD 
HETATM   36  C   UNL     1      -6.939  14.642  68.382  1.00  0.00    -0.113 C  
HETATM   37  C   UNL     1      -7.768  15.620  68.326  1.00  0.00    -0.130 C  
HETATM   38  C   UNL     1      -7.190  16.944  68.259  1.00  0.00    -0.186 C  
HETATM   39  C   UNL     1      -6.993  17.874  69.659  1.00  0.00     0.144 C  
HETATM   40  C   UNL     1      -8.145  17.260  67.079  1.00  0.00    -0.211 C  
HETATM   41  C   UNL     1      -8.986  18.298  67.611  1.00  0.00    -0.271 C  
HETATM   42  O   UNL     1      -7.832  17.029  65.716  1.00  0.00    -0.397 OA 
HETATM   43  H   UNL     1      -8.416  17.222  64.993  1.00  0.00     0.000 HD 
HETATM   44  C   UNL     1     -10.316  16.759  68.192  1.00  0.00    -0.318 C  
HETATM   45  C   UNL     1      -7.384  19.145  67.037  1.00  0.00    -0.225 C  
HETATM   46  O   UNL     1     -11.678  17.654  69.064  1.00  0.00     0.835 OA 
HETATM   47  C   UNL     1     -10.199  15.049  69.321  1.00  0.00    -0.244 C  
HETATM   48  H   UNL     1     -12.276  16.963  69.325  1.00  0.00     0.000 HD 
HETATM   49  C   UNL     1     -10.748  12.843  69.577  1.00  0.00     0.323 C  
HETATM   50  C   UNL     1      -9.715  16.992  69.669  1.00  0.00     0.296 C  
HETATM   51  C   UNL     1     -11.980   9.391  70.638  1.00  0.00    -0.232 C  
HETATM   52  C   UNL     1     -10.662  10.598  70.135  1.00  0.00    -0.151 C  
BRANCH  49  53
HETATM   53  O   UNL     1     -12.125  14.070  68.776  1.00  0.00    -0.349 OA 
BRANCH  53  54
HETATM   54  C   UNL     1     -12.837  14.778  67.313  1.00  0.00     1.541 C  
HETATM   55  C   UNL     1     -13.142  14.483  65.399  1.00  0.00     0.125 C  
HETATM   56  O   UNL     1     -13.473  15.827  67.543  1.00  0.00     4.123 OA 
ENDBRANCH  53  54
ENDBRANCH  49  53
ENDBRANCH   2   3
TORSDOF 3
ENDMDL
MODEL       15
REMARK 921   NORMALIZED FREE ENERGY PREDICTED BY IDOCK:    5.68 KCAL/MOL
REMARK 922        TOTAL FREE ENERGY PREDICTED BY IDOCK:    6.04 KCAL/MOL
REMARK 923 INTER-LIGAND FREE ENERGY PREDICTED BY IDOCK:    6.31 KCAL/MOL
REMARK 924 INTRA-LIGAND FREE ENERGY PREDICTED BY IDOCK:   -0.27 KCAL/MOL
REMARK 927      BINDING AFFINITY PREDICTED BY RF-SCORE:    0.00 PKD
ROOT
HETATM    1  C   UNL     1      -5.154   8.029  72.170  1.00  0.00    -0.035 C  
HETATM    2  O   UNL     1      -6.110   7.742  70.647  1.00  0.00    -0.034 OA 
ENDROOT
BRANCH   2   3
HETATM    3  C   UNL     1      -7.184   8.817  69.452  1.00  0.00    -0.061 C  
HETATM    4  C   UNL     1      -7.291   6.795  68.993  1.00  0.00    -0.094 C  
HETATM    5  C   UNL     1      -7.564   5.358  69.313  1.00  0.00    -0.077 C  
HETATM    6  O   UNL     1      -7.392   3.847  68.559  1.00  0.00    -0.054 OA 
HETATM    7  C   UNL     1      -8.794   2.920  68.297  1.00  0.00    -0.125 C  
HETATM    8  C   UNL     1      -9.580   1.559  67.776  1.00  0.00    -0.052 C  
HETATM    9  O   UNL     1      -9.786   3.386  69.159  1.00  0.00    -0.122 OA 
HETATM   10  C   UNL     1     -10.006   4.608  68.595  1.00  0.00    -0.070 A  
HETATM   11  C   UNL     1      -9.477   4.817  67.286  1.00  0.00    -0.163 A  
HETATM   12  C   UNL     1      -8.701   3.618  66.990  1.00  0.00    -0.116 C  
HETATM   13  C   UNL     1      -9.289   6.079  66.777  1.00  0.00    -0.148 A  
HETATM   14  O   UNL     1      -7.964   3.286  66.074  1.00  0.00    -0.087 OA 
HETATM   15  C   UNL     1      -9.701   7.131  67.654  1.00  0.00    -0.172 A  
HETATM   16  C   UNL     1     -10.144   6.870  69.018  1.00  0.00    -0.170 A  
HETATM   17  C   UNL     1      -9.564   8.409  67.146  1.00  0.00    -0.179 A  
HETATM   18  O   UNL     1     -10.242   9.388  67.836  1.00  0.00    -0.186 OA 
HETATM   19  C   UNL     1      -8.984   8.657  65.883  1.00  0.00    -0.200 A  
HETATM   20  C   UNL     1     -10.285   5.596  69.511  1.00  0.00    -0.320 A  
HETATM   21  O   UNL     1     -10.227   7.820  70.009  1.00  0.00    -0.202 OA 
HETATM   22  N   UNL     1      -8.898   9.937  65.353  1.00  0.00    -0.157 N  
HETATM   23  C   UNL     1     -10.367   5.276  70.984  1.00  0.00    -0.298 C  
HETATM   24  H   UNL     1     -10.147  10.267  67.488  1.00  0.00     0.000 HD 
HETATM   25  H   UNL     1     -10.515   7.650  70.897  1.00  0.00     0.000 HD 
HETATM   26  C   UNL     1      -8.575   7.616  65.053  1.00  0.00     0.045 A  
HETATM   27  C   UNL     1      -8.713   6.327  65.510  1.00  0.00    -0.082 A  
HETATM   28  H   UNL     1      -8.853  10.041  64.339  1.00  0.00     0.000 HD 
HETATM   29  C   UNL     1      -8.870  11.053  66.118  1.00  0.00    -0.190 C  
HETATM   30  O   UNL     1      -8.420   5.292  64.672  1.00  0.00    -0.141 OA 
HETATM   31  O   UNL     1      -8.537  11.120  67.297  1.00  0.00    -0.135 OA 
HETATM   32  C   UNL     1      -9.172  12.255  65.368  1.00  0.00     0.226 C  
HETATM   33  C   UNL     1      -9.624  13.240  66.131  1.00  0.00    -0.211 C  
HETATM   34  C   UNL     1      -8.787  12.524  63.958  1.00  0.00     1.954 C  
HETATM   35  H   UNL     1      -8.033   5.458  63.821  1.00  0.00     0.000 HD 
HETATM   36  C   UNL     1      -9.439  14.508  65.537  1.00  0.00     0.042 C  
HETATM   37  C   UNL     1      -9.703  15.537  66.256  1.00  0.00    -0.328 C  
HETATM   38  C   UNL     1      -9.793  16.800  65.557  1.00  0.00     0.021 C  
HETATM   39  C   UNL     1      -8.464  17.844  65.480  1.00  0.00     0.935 C  
HETATM   40  C   UNL     1     -11.127  17.072  66.299  1.00  0.00     0.379 C  
HETATM   41  C   UNL     1     -10.819  18.219  67.110  1.00  0.00    -0.239 C  
HETATM   42  O   UNL     1     -12.402  16.686  65.815  1.00  0.00     2.531 OA 
HETATM   43  H   UNL     1     -13.219  16.852  66.269  1.00  0.00     0.000 HD 
HETATM   44  C   UNL     1     -10.319  16.851  68.645  1.00  0.00    -0.332 C  
HETATM   45  C   UNL     1     -11.213  18.879  65.371  1.00  0.00     0.901 C  
HETATM   46  O   UNL     1      -9.743  17.929  70.031  1.00  0.00     0.802 OA 
HETATM   47  C   UNL     1      -9.044  15.255  68.847  1.00  0.00    -0.209 C  
HETATM   48  H   UNL     1      -9.518  17.315  70.720  1.00  0.00     0.000 HD 
HETATM   49  C   UNL     1      -8.688  13.134  69.625  1.00  0.00     1.896 C  
HETATM   50  C   UNL     1      -8.793  17.179  68.244  1.00  0.00    -0.245 C  
HETATM   51  C   UNL     1      -7.537   9.908  71.306  1.00  0.00     0.959 C  
HETATM   52  C   UNL     1      -7.935  10.954  69.826  1.00  0.00     0.301 C  
BRANCH  49  53
HETATM   53  O   UNL     1      -9.790  14.379  70.756  1.00  0.00     1.526 OA 
BRANCH  53  54
HETATM   54  C   UNL     1     -11.401  14.881  71.305  1.00  0.00    -0.205 C  
HETATM   55  C   UNL     1     -13.277  14.324  71.425  1.00  0.00    -0.419 C  
HETATM   56  O   UNL     1     -11.385  15.956  71.940  1.00  0.00    -0.351 OA 
ENDBRANCH  53  54
ENDBRANCH  49  53
ENDBRANCH   2   3
TORSDOF 3
ENDMDL
MODEL       16
REMARK 921   NORMALIZED FREE ENERGY PREDICTED BY IDOCK:    6.06 KCAL/MOL
REMARK 922        TOTAL FREE ENERGY PREDICTED BY IDOCK:    6.48 KCAL/MOL
REMARK 923 INTER-LIGAND FREE ENERGY PREDICTED BY IDOCK:    4.45 KCAL/MOL
REMARK 924 INTRA-LIGAND FREE ENERGY PREDICTED BY IDOCK:    2.03 KCAL/MOL
REMARK 927      BINDING AFFINITY PREDICTED BY RF-SCORE:    0.00 PKD
ROOT
HETATM    1  C   UNL     1      -6.323  15.344  67.072  1.00  0.00     0.426 C  
HETATM    2  O   UNL     1      -6.061  13.797  67.996  1.00  0.00    -0.112 OA 
ENDROOT
BRANCH   2   3
HETATM    3  C   UNL     1      -7.167  12.333  68.604  1.00  0.00    -0.105 C  
HETATM    4  C   UNL     1      -8.277  14.047  68.229  1.00  0.00    -0.153 C  
HETATM    5  C   UNL     1      -8.762  15.172  67.367  1.00  0.00    -0.205 C  
HETATM    6  O   UNL     1      -9.702  16.574  67.540  1.00  0.00    -0.237 OA 
HETATM    7  C   UNL     1     -11.124  16.703  66.616  1.00  0.00     0.247 C  
HETATM    8  C   UNL     1     -12.476  17.510  66.103  1.00  0.00     6.273 C  
HETATM    9  O   UNL     1     -11.022  15.816  65.544  1.00  0.00    -0.322 OA 
HETATM   10  C   UNL     1     -11.099  14.639  66.230  1.00  0.00    -0.336 A  
HETATM   11  C   UNL     1     -11.555  14.711  67.580  1.00  0.00    -0.383 A  
HETATM   12  C   UNL     1     -11.684  16.135  67.867  1.00  0.00     0.132 C  
HETATM   13  C   UNL     1     -11.315  13.698  68.477  1.00  0.00    -0.325 A  
HETATM   14  O   UNL     1     -11.938  16.781  68.872  1.00  0.00     0.302 OA 
HETATM   15  C   UNL     1     -10.616  12.580  67.923  1.00  0.00    -0.233 A  
HETATM   16  C   UNL     1     -10.086  12.596  66.565  1.00  0.00    -0.248 A  
HETATM   17  C   UNL     1     -10.403  11.528  68.795  1.00  0.00    -0.196 A  
HETATM   18  O   UNL     1     -10.026  10.344  68.201  1.00  0.00    -0.145 OA 
HETATM   19  C   UNL     1     -10.780  11.590  70.153  1.00  0.00     0.778 A  
HETATM   20  C   UNL     1     -10.310  13.642  65.705  1.00  0.00    -0.309 A  
HETATM   21  O   UNL     1      -9.133  11.727  66.087  1.00  0.00    -0.215 OA 
HETATM   22  N   UNL     1     -10.614  10.512  71.011  1.00  0.00     0.175 N  
HETATM   23  C   UNL     1      -9.494  13.886  64.458  1.00  0.00     1.527 C  
HETATM   24  H   UNL     1      -9.879   9.622  68.799  1.00  0.00     0.000 HD 
HETATM   25  H   UNL     1      -8.788  11.738  65.203  1.00  0.00     0.000 HD 
HETATM   26  C   UNL     1     -11.447  12.697  70.673  1.00  0.00     0.738 A  
HETATM   27  C   UNL     1     -11.699  13.757  69.837  1.00  0.00    -0.284 A  
HETATM   28  H   UNL     1     -11.225  10.440  71.825  1.00  0.00     0.000 HD 
HETATM   29  C   UNL     1      -9.680   9.551  70.819  1.00  0.00    -0.219 C  
HETATM   30  O   UNL     1     -12.444  14.802  70.296  1.00  0.00    -0.333 OA 
HETATM   31  O   UNL     1      -8.651   9.658  70.159  1.00  0.00    -0.193 OA 
HETATM   32  C   UNL     1      -9.942   8.352  71.589  1.00  0.00    -0.302 C  
HETATM   33  C   UNL     1      -9.367   7.274  71.075  1.00  0.00    -0.158 C  
HETATM   34  C   UNL     1     -10.537   8.301  72.950  1.00  0.00    -0.218 C  
HETATM   35  H   UNL     1     -12.701  14.843  71.210  1.00  0.00     0.000 HD 
HETATM   36  C   UNL     1      -9.185   6.254  72.035  1.00  0.00    -0.145 C  
HETATM   37  C   UNL     1      -8.502   5.228  71.678  1.00  0.00    -0.126 C  
HETATM   38  C   UNL     1      -8.571   4.079  72.553  1.00  0.00    -0.107 C  
HETATM   39  C   UNL     1      -7.380   3.811  73.726  1.00  0.00    -0.068 C  
HETATM   40  C   UNL     1      -8.843   3.195  71.309  1.00  0.00    -0.082 C  
HETATM   41  C   UNL     1      -7.684   2.343  71.256  1.00  0.00    -0.040 C  
HETATM   42  O   UNL     1     -10.134   2.911  70.798  1.00  0.00     0.114 OA 
HETATM   43  H   UNL     1     -10.301   2.370  70.036  1.00  0.00     0.000 HD 
HETATM   44  C   UNL     1      -6.829   3.786  69.966  1.00  0.00    -0.034 C  
HETATM   45  C   UNL     1      -8.863   1.571  72.532  1.00  0.00    -0.073 C  
HETATM   46  O   UNL     1      -5.138   3.126  69.620  1.00  0.00    -0.003 OA 
HETATM   47  C   UNL     1      -6.445   5.800  70.045  1.00  0.00    -0.038 C  
HETATM   48  H   UNL     1      -4.754   3.774  69.040  1.00  0.00     0.000 HD 
HETATM   49  C   UNL     1      -6.463   7.830  68.990  1.00  0.00    -0.037 C  
HETATM   50  C   UNL     1      -5.987   4.239  71.263  1.00  0.00    -0.017 C  
HETATM   51  C   UNL     1      -5.762  11.213  67.371  1.00  0.00    -0.052 C  
HETATM   52  C   UNL     1      -6.631  10.101  68.577  1.00  0.00    -0.053 C  
BRANCH  49  53
HETATM   53  O   UNL     1      -5.971   6.208  67.907  1.00  0.00    -0.015 OA 
BRANCH  53  54
HETATM   54  C   UNL     1      -6.408   5.079  66.609  1.00  0.00    -0.040 C  
HETATM   55  C   UNL     1      -5.897   3.403  65.730  1.00  0.00    -0.019 C  
HETATM   56  O   UNL     1      -7.495   5.364  66.064  1.00  0.00    -0.080 OA 
ENDBRANCH  53  54
ENDBRANCH  49  53
ENDBRANCH   2   3
TORSDOF 3
ENDMDL
MODEL       17
REMARK 921   NORMALIZED FREE ENERGY PREDICTED BY IDOCK:   14.75 KCAL/MOL
REMARK 922        TOTAL FREE ENERGY PREDICTED BY IDOCK:   16.70 KCAL/MOL
REMARK 923 INTER-LIGAND FREE ENERGY PREDICTED BY IDOCK:   14.37 KCAL/MOL
REMARK 924 INTRA-LIGAND FREE ENERGY PREDICTED BY IDOCK:    2.32 KCAL/MOL
REMARK 927      BINDING AFFINITY PREDICTED BY RF-SCORE:    0.00 PKD
ROOT
HETATM    1  C   UNL     1     -11.656  15.619  70.754  1.00  0.00    -0.412 C  
HETATM    2  O   UNL     1     -11.666  13.834  70.392  1.00  0.00    -0.264 OA 
ENDROOT
BRANCH   2   3
HETATM    3  C   UNL     1     -10.568  12.612  69.374  1.00  0.00     0.285 C  
HETATM    4  C   UNL     1      -9.978  14.586  69.124  1.00  0.00    -0.114 C  
HETATM    5  C   UNL     1      -9.520  15.924  69.618  1.00  0.00    -0.148 C  
HETATM    6  O   UNL     1      -9.224  17.468  68.976  1.00  0.00    -0.201 OA 
HETATM    7  C   UNL     1      -7.651  18.101  69.108  1.00  0.00    -0.047 C  
HETATM    8  C   UNL     1      -6.523  19.293  68.890  1.00  0.00    -0.308 C  
HETATM    9  O   UNL     1      -6.992  17.408  70.123  1.00  0.00     0.556 OA 
HETATM   10  C   UNL     1      -6.882  16.190  69.518  1.00  0.00    -0.190 A  
HETATM   11  C   UNL     1      -7.123  16.147  68.113  1.00  0.00    -0.137 A  
HETATM   12  C   UNL     1      -7.569  17.489  67.757  1.00  0.00    -0.193 C  
HETATM   13  C   UNL     1      -7.424  14.971  67.468  1.00  0.00    -0.226 A  
HETATM   14  O   UNL     1      -7.998  18.001  66.734  1.00  0.00    -0.219 OA 
HETATM   15  C   UNL     1      -7.431  13.823  68.320  1.00  0.00    -0.120 A  
HETATM   16  C   UNL     1      -7.275  13.933  69.766  1.00  0.00     0.313 A  
HETATM   17  C   UNL     1      -7.686  12.620  67.687  1.00  0.00    -0.155 A  
HETATM   18  O   UNL     1      -7.383  11.497  68.423  1.00  0.00    -0.084 OA 
HETATM   19  C   UNL     1      -7.994  12.547  66.312  1.00  0.00     0.738 A  
HETATM   20  C   UNL     1      -7.014  15.130  70.384  1.00  0.00     0.235 A  
HETATM   21  O   UNL     1      -7.604  12.946  70.665  1.00  0.00     2.056 OA 
HETATM   22  N   UNL     1      -8.195  11.334  65.668  1.00  0.00    -0.369 N  
HETATM   23  C   UNL     1      -7.216  15.367  71.862  1.00  0.00     3.750 C  
HETATM   24  H   UNL     1      -7.559  10.671  67.988  1.00  0.00     0.000 HD 
HETATM   25  H   UNL     1      -7.503  13.017  71.607  1.00  0.00     0.000 HD 
HETATM   26  C   UNL     1      -7.995  13.682  65.505  1.00  0.00     4.459 A  
HETATM   27  C   UNL     1      -7.726  14.897  66.089  1.00  0.00     2.074 A  
HETATM   28  H   UNL     1      -8.023  11.282  64.664  1.00  0.00     0.000 HD 
HETATM   29  C   UNL     1      -8.609  10.216  66.310  1.00  0.00    -0.131 C  
HETATM   30  O   UNL     1      -7.617  16.003  65.300  1.00  0.00     2.095 OA 
HETATM   31  O   UNL     1      -9.213  10.171  67.377  1.00  0.00    -0.140 OA 
HETATM   32  C   UNL     1      -8.375   9.010  65.543  1.00  0.00    -0.138 C  
HETATM   33  C   UNL     1      -8.306   7.923  66.300  1.00  0.00    -0.126 C  
HETATM   34  C   UNL     1      -8.467   8.882  64.066  1.00  0.00    -0.146 C  
HETATM   35  H   UNL     1      -7.821  15.953  64.373  1.00  0.00     0.000 HD 
HETATM   36  C   UNL     1      -8.584   6.745  65.573  1.00  0.00    -0.095 C  
HETATM   37  C   UNL     1      -8.693   5.655  66.242  1.00  0.00    -0.131 C  
HETATM   38  C   UNL     1      -8.684   4.430  65.474  1.00  0.00    -0.123 C  
HETATM   39  C   UNL     1     -10.131   3.682  65.019  1.00  0.00    -0.065 C  
HETATM   40  C   UNL     1      -7.633   3.862  66.463  1.00  0.00    -0.088 C  
HETATM   41  C   UNL     1      -8.332   2.770  67.087  1.00  0.00    -0.095 C  
HETATM   42  O   UNL     1      -6.232   4.000  66.305  1.00  0.00    -0.030 OA 
HETATM   43  H   UNL     1      -5.588   3.653  66.911  1.00  0.00     0.000 HD 
HETATM   44  C   UNL     1      -8.906   4.148  68.586  1.00  0.00    -0.141 C  
HETATM   45  C   UNL     1      -7.678   2.114  65.426  1.00  0.00    -0.072 C  
HETATM   46  O   UNL     1      -9.979   3.154  69.715  1.00  0.00     0.103 OA 
HETATM   47  C   UNL     1      -9.868   5.960  68.641  1.00  0.00    -0.170 C  
HETATM   48  H   UNL     1     -10.238   3.773  70.389  1.00  0.00     0.000 HD 
HETATM   49  C   UNL     1      -9.987   8.076  69.501  1.00  0.00    -0.186 C  
HETATM   50  C   UNL     1     -10.332   4.153  67.835  1.00  0.00     0.489 C  
HETATM   51  C   UNL     1     -10.866  11.398  71.159  1.00  0.00     2.974 C  
HETATM   52  C   UNL     1     -10.341  10.354  69.718  1.00  0.00    -0.252 C  
BRANCH  49  53
HETATM   53  O   UNL     1      -9.432   6.588  70.734  1.00  0.00    -0.170 OA 
BRANCH  53  54
HETATM   54  C   UNL     1      -8.116   5.748  71.578  1.00  0.00    -0.118 C  
HETATM   55  C   UNL     1      -7.703   4.245  72.767  1.00  0.00    -0.081 C  
HETATM   56  O   UNL     1      -6.988   6.185  71.273  1.00  0.00    -0.068 OA 
ENDBRANCH  53  54
ENDBRANCH  49  53
ENDBRANCH   2   3
TORSDOF 3
ENDMDL
MODEL       18
REMARK 921   NORMALIZED FREE ENERGY PREDICTED BY IDOCK:   20.25 KCAL/MOL
REMARK 922        TOTAL FREE ENERGY PREDICTED BY IDOCK:   23.16 KCAL/MOL
REMARK 923 INTER-LIGAND FREE ENERGY PREDICTED BY IDOCK:   18.39 KCAL/MOL
REMARK 924 INTRA-LIGAND FREE ENERGY PREDICTED BY IDOCK:    4.77 KCAL/MOL
REMARK 927      BINDING AFFINITY PREDICTED BY RF-SCORE:    0.00 PKD
ROOT
HETATM    1  C   UNL     1     -12.465  15.104  63.455  1.00  0.00     0.977 C  
HETATM    2  O   UNL     1     -11.455  15.091  64.970  1.00  0.00    -0.366 OA 
ENDROOT
BRANCH   2   3
HETATM    3  C   UNL     1     -10.452  13.771  65.965  1.00  0.00    -0.297 C  
HETATM    4  C   UNL     1     -10.261  15.672  66.777  1.00  0.00    -0.278 C  
HETATM    5  C   UNL     1     -10.797  16.943  67.360  1.00  0.00    -0.166 C  
HETATM    6  O   UNL     1     -10.196  18.454  67.848  1.00  0.00    -0.344 OA 
HETATM    7  C   UNL     1     -10.395  18.907  69.475  1.00  0.00     0.540 C  
HETATM    8  C   UNL     1     -10.241  19.971  70.734  1.00  0.00     1.561 C  
HETATM    9  O   UNL     1     -11.420  18.130  70.015  1.00  0.00     2.765 OA 
HETATM   10  C   UNL     1     -10.796  16.918  70.013  1.00  0.00     0.097 A  
HETATM   11  C   UNL     1      -9.382  16.923  69.821  1.00  0.00     0.718 A  
HETATM   12  C   UNL     1      -9.037  18.312  69.539  1.00  0.00     0.617 C  
HETATM   13  C   UNL     1      -8.705  15.797  69.418  1.00  0.00    -0.230 A  
HETATM   14  O   UNL     1      -8.010  18.883  69.208  1.00  0.00    -0.142 OA 
HETATM   15  C   UNL     1      -9.534  14.644  69.253  1.00  0.00    -0.001 A  
HETATM   16  C   UNL     1     -10.986  14.714  69.366  1.00  0.00    -0.257 A  
HETATM   17  C   UNL     1      -8.869  13.487  68.891  1.00  0.00     0.229 A  
HETATM   18  O   UNL     1      -9.593  12.325  69.041  1.00  0.00    -0.401 OA 
HETATM   19  C   UNL     1      -7.483  13.469  68.629  1.00  0.00    -0.108 A  
HETATM   20  C   UNL     1     -11.637  15.865  69.734  1.00  0.00    -0.340 A  
HETATM   21  O   UNL     1     -11.854  13.756  68.897  1.00  0.00    -0.320 OA 
HETATM   22  N   UNL     1      -6.809  12.295  68.320  1.00  0.00    -0.068 N  
HETATM   23  C   UNL     1     -13.110  16.101  69.503  1.00  0.00     1.896 C  
HETATM   24  H   UNL     1      -9.136  11.530  68.792  1.00  0.00     0.000 HD 
HETATM   25  H   UNL     1     -12.800  13.801  68.970  1.00  0.00     0.000 HD 
HETATM   26  C   UNL     1      -6.698  14.610  68.782  1.00  0.00    -0.088 A  
HETATM   27  C   UNL     1      -7.315  15.778  69.161  1.00  0.00    -0.194 A  
HETATM   28  H   UNL     1      -5.811  12.240  68.523  1.00  0.00     0.000 HD 
HETATM   29  C   UNL     1      -7.414  11.221  67.762  1.00  0.00    -0.095 C  
HETATM   30  O   UNL     1      -6.551  16.877  69.421  1.00  0.00    -0.223 OA 
HETATM   31  O   UNL     1      -8.458  11.226  67.117  1.00  0.00    -0.139 OA 
HETATM   32  C   UNL     1      -6.633  10.007  67.890  1.00  0.00    -0.063 C  
HETATM   33  C   UNL     1      -7.371   8.909  67.811  1.00  0.00    -0.085 C  
HETATM   34  C   UNL     1      -5.151   9.913  67.840  1.00  0.00    -0.032 C  
HETATM   35  H   UNL     1      -5.617  16.864  69.247  1.00  0.00     0.000 HD 
HETATM   36  C   UNL     1      -6.612   7.779  67.433  1.00  0.00    -0.063 C  
HETATM   37  C   UNL     1      -7.256   6.698  67.180  1.00  0.00    -0.081 C  
HETATM   38  C   UNL     1      -6.465   5.491  67.083  1.00  0.00    -0.044 C  
HETATM   39  C   UNL     1      -5.945   4.915  65.580  1.00  0.00    -0.023 C  
HETATM   40  C   UNL     1      -7.479   4.796  68.028  1.00  0.00    -0.074 C  
HETATM   41  C   UNL     1      -8.057   3.778  67.191  1.00  0.00    -0.091 C  
HETATM   42  O   UNL     1      -7.374   4.781  69.441  1.00  0.00    -0.051 OA 
HETATM   43  H   UNL     1      -7.995   4.355  70.019  1.00  0.00     0.000 HD 
HETATM   44  C   UNL     1      -9.561   5.188  66.716  1.00  0.00    -0.159 C  
HETATM   45  C   UNL     1      -6.408   3.080  67.830  1.00  0.00    -0.033 C  
HETATM   46  O   UNL     1     -10.632   4.302  65.498  1.00  0.00    -0.462 OA 
HETATM   47  C   UNL     1      -9.617   7.094  65.957  1.00  0.00     0.092 C  
HETATM   48  H   UNL     1     -11.308   4.935  65.284  1.00  0.00     0.000 HD 
HETATM   49  C   UNL     1     -10.512   9.198  66.039  1.00  0.00     0.356 C  
HETATM   50  C   UNL     1      -8.760   5.362  65.328  1.00  0.00    -0.145 C  
HETATM   51  C   UNL     1     -12.202  12.570  65.469  1.00  0.00    -0.442 C  
HETATM   52  C   UNL     1     -10.760  11.496  65.929  1.00  0.00    -0.325 C  
BRANCH  49  53
HETATM   53  O   UNL     1     -11.735   7.638  66.380  1.00  0.00     2.543 OA 
BRANCH  53  54
HETATM   54  C   UNL     1     -11.914   5.964  66.940  1.00  0.00     2.723 C  
HETATM   55  C   UNL     1     -11.580   4.753  68.445  1.00  0.00     5.177 C  
HETATM   56  O   UNL     1     -12.571   5.256  66.148  1.00  0.00     4.338 OA 
ENDBRANCH  53  54
ENDBRANCH  49  53
ENDBRANCH   2   3
TORSDOF 3
ENDMDL
MODEL       19
REMARK 921   NORMALIZED FREE ENERGY PREDICTED BY IDOCK:   20.28 KCAL/MOL
REMARK 922        TOTAL FREE ENERGY PREDICTED BY IDOCK:   23.20 KCAL/MOL
REMARK 923 INTER-LIGAND FREE ENERGY PREDICTED BY IDOCK:   22.81 KCAL/MOL
REMARK 924 INTRA-LIGAND FREE ENERGY PREDICTED BY IDOCK:    0.39 KCAL/MOL
REMARK 927      BINDING AFFINITY PREDICTED BY RF-SCORE:    0.00 PKD
ROOT
HETATM    1  C   UNL     1     -11.098  16.778  71.604  1.00  0.00     0.739 C  
HETATM    2  O   UNL     1     -10.765  16.023  69.980  1.00  0.00    -0.304 OA 
ENDROOT
BRANCH   2   3
HETATM    3  C   UNL     1      -9.671  14.574  69.315  1.00  0.00     0.017 C  
HETATM    4  C   UNL     1      -8.926  16.433  68.766  1.00  0.00    -0.245 C  
HETATM    5  C   UNL     1      -8.420  17.814  69.049  1.00  0.00    -0.017 C  
HETATM    6  O   UNL     1      -7.964  19.191  68.167  1.00  0.00    -0.282 OA 
HETATM    7  C   UNL     1      -6.368  19.754  68.333  1.00  0.00    -0.263 C  
HETATM    8  C   UNL     1      -5.145  20.824  68.011  1.00  0.00    -0.276 C  
HETATM    9  O   UNL     1      -5.848  19.232  69.518  1.00  0.00    -0.232 OA 
HETATM   10  C   UNL     1      -5.772  17.918  69.159  1.00  0.00    -0.206 A  
HETATM   11  C   UNL     1      -5.893  17.623  67.769  1.00  0.00    -0.146 A  
HETATM   12  C   UNL     1      -6.213  18.895  67.132  1.00  0.00    -0.171 C  
HETATM   13  C   UNL     1      -6.218  16.364  67.325  1.00  0.00    -0.212 A  
HETATM   14  O   UNL     1      -6.515  19.226  65.996  1.00  0.00    -0.189 OA 
HETATM   15  C   UNL     1      -6.379  15.399  68.369  1.00  0.00    -0.110 A  
HETATM   16  C   UNL     1      -6.341  15.772  69.778  1.00  0.00    -0.173 A  
HETATM   17  C   UNL     1      -6.661  14.114  67.945  1.00  0.00    -0.167 A  
HETATM   18  O   UNL     1      -6.502  13.135  68.900  1.00  0.00    -0.085 OA 
HETATM   19  C   UNL     1      -6.854  13.798  66.583  1.00  0.00     2.043 A  
HETATM   20  C   UNL     1      -6.050  17.049  70.189  1.00  0.00    -0.027 A  
HETATM   21  O   UNL     1      -6.814  14.991  70.807  1.00  0.00     0.066 OA 
HETATM   22  N   UNL     1      -7.083  12.497  66.156  1.00  0.00     0.936 N  
HETATM   23  C   UNL     1      -6.363  17.572  71.571  1.00  0.00     2.763 C  
HETATM   24  H   UNL     1      -6.696  12.252  68.609  1.00  0.00     0.000 HD 
HETATM   25  H   UNL     1      -6.789  15.235  71.724  1.00  0.00     0.000 HD 
HETATM   26  C   UNL     1      -6.707  14.758  65.585  1.00  0.00     8.520 A  
HETATM   27  C   UNL     1      -6.405  16.046  65.960  1.00  0.00     2.708 A  
HETATM   28  H   UNL     1      -6.829  12.247  65.201  1.00  0.00     0.000 HD 
HETATM   29  C   UNL     1      -7.627  11.544  66.949  1.00  0.00    -0.151 C  
HETATM   30  O   UNL     1      -6.152  16.975  64.996  1.00  0.00     1.429 OA 
HETATM   31  O   UNL     1      -8.322  11.733  67.942  1.00  0.00    -0.134 OA 
HETATM   32  C   UNL     1      -7.412  10.204  66.443  1.00  0.00    -0.108 C  
HETATM   33  C   UNL     1      -7.484   9.278  67.390  1.00  0.00    -0.087 C  
HETATM   34  C   UNL     1      -7.385   9.803  65.012  1.00  0.00    -0.128 C  
HETATM   35  H   UNL     1      -6.278  16.762  64.079  1.00  0.00     0.000 HD 
HETATM   36  C   UNL     1      -7.780   7.999  66.867  1.00  0.00    -0.099 C  
HETATM   37  C   UNL     1      -8.022   7.063  67.711  1.00  0.00    -0.114 C  
HETATM   38  C   UNL     1      -8.031   5.716  67.186  1.00  0.00    -0.102 C  
HETATM   39  C   UNL     1      -9.483   4.972  66.737  1.00  0.00    -0.148 C  
HETATM   40  C   UNL     1      -7.112   5.292  68.360  1.00  0.00    -0.062 C  
HETATM   41  C   UNL     1      -7.935   4.375  69.102  1.00  0.00    -0.068 C  
HETATM   42  O   UNL     1      -5.696   5.323  68.316  1.00  0.00    -0.015 OA 
HETATM   43  H   UNL     1      -5.132   5.064  69.035  1.00  0.00     0.000 HD 
HETATM   44  C   UNL     1      -8.540   6.039  70.260  1.00  0.00    -0.143 C  
HETATM   45  C   UNL     1      -7.189   3.384  67.661  1.00  0.00    -0.058 C  
HETATM   46  O   UNL     1      -9.773   5.335  71.442  1.00  0.00    -0.153 OA 
HETATM   47  C   UNL     1      -9.375   7.877  69.887  1.00  0.00    -0.156 C  
HETATM   48  H   UNL     1     -10.044   6.082  71.962  1.00  0.00     0.000 HD 
HETATM   49  C   UNL     1      -9.420  10.121  70.328  1.00  0.00     0.163 C  
HETATM   50  C   UNL     1      -9.892   5.977  69.385  1.00  0.00    -0.203 C  
HETATM   51  C   UNL     1     -10.205  13.738  71.255  1.00  0.00     5.140 C  
HETATM   52  C   UNL     1      -9.632  12.413  70.088  1.00  0.00     3.660 C  
BRANCH  49  53
HETATM   53  O   UNL     1      -9.078   8.866  71.862  1.00  0.00    -0.331 OA 
BRANCH  53  54
HETATM   54  C   UNL     1      -9.739   7.959  73.237  1.00  0.00    -0.285 C  
HETATM   55  C   UNL     1     -10.999   6.544  73.742  1.00  0.00     0.087 C  
HETATM   56  O   UNL     1      -9.161   8.220  74.312  1.00  0.00     0.191 OA 
ENDBRANCH  53  54
ENDBRANCH  49  53
ENDBRANCH   2   3
TORSDOF 3
ENDMDL
MODEL       20
REMARK 921   NORMALIZED FREE ENERGY PREDICTED BY IDOCK:   30.16 KCAL/MOL
REMARK 922        TOTAL FREE ENERGY PREDICTED BY IDOCK:   34.81 KCAL/MOL
REMARK 923 INTER-LIGAND FREE ENERGY PREDICTED BY IDOCK:   34.72 KCAL/MOL
REMARK 924 INTRA-LIGAND FREE ENERGY PREDICTED BY IDOCK:    0.09 KCAL/MOL
REMARK 927      BINDING AFFINITY PREDICTED BY RF-SCORE:    0.00 PKD
ROOT
HETATM    1  C   UNL     1      -5.668   7.726  70.316  1.00  0.00    -0.023 C  
HETATM    2  O   UNL     1      -7.184   8.733  70.257  1.00  0.00    -0.042 OA 
ENDROOT
BRANCH   2   3
HETATM    3  C   UNL     1      -7.799  10.267  69.254  1.00  0.00    -0.142 C  
HETATM    4  C   UNL     1      -7.445   8.626  68.033  1.00  0.00    -0.097 C  
HETATM    5  C   UNL     1      -7.637   7.203  67.605  1.00  0.00    -0.110 C  
HETATM    6  O   UNL     1      -6.975   6.133  66.466  1.00  0.00    -0.064 OA 
HETATM    7  C   UNL     1      -8.011   5.481  65.285  1.00  0.00    -0.112 C  
HETATM    8  C   UNL     1      -8.330   4.506  63.985  1.00  0.00    -0.116 C  
HETATM    9  O   UNL     1      -9.322   5.606  65.746  1.00  0.00    -0.145 OA 
HETATM   10  C   UNL     1      -9.446   6.963  65.679  1.00  0.00     0.437 A  
HETATM   11  C   UNL     1      -8.457   7.662  64.926  1.00  0.00     0.008 A  
HETATM   12  C   UNL     1      -7.479   6.650  64.541  1.00  0.00    -0.094 C  
HETATM   13  C   UNL     1      -8.240   9.008  65.094  1.00  0.00    -0.147 A  
HETATM   14  O   UNL     1      -6.395   6.684  63.981  1.00  0.00    -0.033 OA 
HETATM   15  C   UNL     1      -9.110   9.626  66.047  1.00  0.00    -0.212 A  
HETATM   16  C   UNL     1     -10.038   8.850  66.862  1.00  0.00    -0.273 A  
HETATM   17  C   UNL     1      -8.942  10.990  66.201  1.00  0.00    -0.191 A  
HETATM   18  O   UNL     1      -9.965  11.633  66.860  1.00  0.00    -0.198 OA 
HETATM   19  C   UNL     1      -7.931  11.703  65.522  1.00  0.00     0.743 A  
HETATM   20  C   UNL     1     -10.203   7.498  66.695  1.00  0.00    -0.261 A  
HETATM   21  O   UNL     1     -10.644   9.309  68.008  1.00  0.00    -0.248 OA 
HETATM   22  N   UNL     1      -7.801  13.080  65.637  1.00  0.00     2.318 N  
HETATM   23  C   UNL     1     -10.843   6.602  67.729  1.00  0.00    -0.372 C  
HETATM   24  H   UNL     1      -9.850  12.570  66.967  1.00  0.00     0.000 HD 
HETATM   25  H   UNL     1     -11.248   8.804  68.538  1.00  0.00     0.000 HD 
HETATM   26  C   UNL     1      -7.086  11.076  64.610  1.00  0.00     0.703 A  
HETATM   27  C   UNL     1      -7.231   9.725  64.410  1.00  0.00    -0.129 A  
HETATM   28  H   UNL     1      -7.356  13.591  64.875  1.00  0.00     0.000 HD 
HETATM   29  C   UNL     1      -8.236  13.777  66.714  1.00  0.00     0.210 C  
HETATM   30  O   UNL     1      -6.488   9.113  63.444  1.00  0.00    -0.090 OA 
HETATM   31  O   UNL     1      -8.429  13.330  67.840  1.00  0.00    -0.153 OA 
HETATM   32  C   UNL     1      -8.354  15.196  66.453  1.00  0.00     0.077 C  
HETATM   33  C   UNL     1      -9.204  15.802  67.271  1.00  0.00    -0.217 C  
HETATM   34  C   UNL     1      -7.460  16.002  65.580  1.00  0.00     3.489 C  
HETATM   35  H   UNL     1      -5.809   9.594  62.985  1.00  0.00     0.000 HD 
HETATM   36  C   UNL     1      -8.956  17.189  67.370  1.00  0.00    -0.223 C  
HETATM   37  C   UNL     1      -9.624  17.842  68.250  1.00  0.00    -0.312 C  
HETATM   38  C   UNL     1      -9.581  19.283  68.145  1.00  0.00    -0.423 C  
HETATM   39  C   UNL     1      -8.485  20.186  69.067  1.00  0.00     0.311 C  
HETATM   40  C   UNL     1     -11.125  19.302  68.284  1.00  0.00     0.606 C  
HETATM   41  C   UNL     1     -11.330  19.990  69.531  1.00  0.00     2.867 C  
HETATM   42  O   UNL     1     -12.025  19.227  67.193  1.00  0.00     1.288 OA 
HETATM   43  H   UNL     1     -12.971  19.238  67.278  1.00  0.00     0.000 HD 
HETATM   44  C   UNL     1     -11.334  18.084  70.448  1.00  0.00     3.426 C  
HETATM   45  C   UNL     1     -11.054  21.333  68.213  1.00  0.00     2.629 C  
HETATM   46  O   UNL     1     -11.526  18.456  72.247  1.00  0.00     1.727 OA 
HETATM   47  C   UNL     1     -10.061  16.475  70.524  1.00  0.00     1.131 C  
HETATM   48  H   UNL     1     -11.527  17.600  72.659  1.00  0.00     0.000 HD 
HETATM   49  C   UNL     1      -9.786  14.205  70.465  1.00  0.00     2.526 C  
HETATM   50  C   UNL     1      -9.835  18.458  70.906  1.00  0.00     3.438 C  
HETATM   51  C   UNL     1      -9.023  10.512  71.041  1.00  0.00     3.151 C  
HETATM   52  C   UNL     1      -8.907  12.098  70.084  1.00  0.00     3.929 C  
BRANCH  49  53
HETATM   53  O   UNL     1     -11.407  14.934  71.406  1.00  0.00    -0.304 OA 
BRANCH  53  54
HETATM   54  C   UNL     1     -12.736  14.650  72.548  1.00  0.00    -0.363 C  
HETATM   55  C   UNL     1     -13.279  13.607  74.117  1.00  0.00     5.254 C  
HETATM   56  O   UNL     1     -13.684  15.447  72.395  1.00  0.00    -0.451 OA 
ENDBRANCH  53  54
ENDBRANCH  49  53
ENDBRANCH   2   3
TORSDOF 3
ENDMDL
MODEL       21
REMARK 921   NORMALIZED FREE ENERGY PREDICTED BY IDOCK:   34.71 KCAL/MOL
REMARK 922        TOTAL FREE ENERGY PREDICTED BY IDOCK:   40.16 KCAL/MOL
REMARK 923 INTER-LIGAND FREE ENERGY PREDICTED BY IDOCK:   30.75 KCAL/MOL
REMARK 924 INTRA-LIGAND FREE ENERGY PREDICTED BY IDOCK:    9.40 KCAL/MOL
REMARK 927      BINDING AFFINITY PREDICTED BY RF-SCORE:    0.00 PKD
ROOT
HETATM    1  C   UNL     1     -11.145   6.504  68.207  1.00  0.00    -0.332 C  
HETATM    2  O   UNL     1     -11.389   8.303  68.347  1.00  0.00     0.482 OA 
ENDROOT
BRANCH   2   3
HETATM    3  C   UNL     1     -10.263   9.841  68.674  1.00  0.00    -0.190 C  
HETATM    4  C   UNL     1      -9.381   8.075  69.318  1.00  0.00    -0.151 C  
HETATM    5  C   UNL     1      -8.872   6.679  69.125  1.00  0.00    -0.129 C  
HETATM    6  O   UNL     1      -8.245   5.426  70.083  1.00  0.00    -0.096 OA 
HETATM    7  C   UNL     1      -6.670   4.877  69.752  1.00  0.00    -0.043 C  
HETATM    8  C   UNL     1      -5.376   3.877  70.012  1.00  0.00    -0.008 C  
HETATM    9  O   UNL     1      -6.344   5.264  68.451  1.00  0.00    -0.033 OA 
HETATM   10  C   UNL     1      -6.264   6.613  68.641  1.00  0.00    -0.027 A  
HETATM   11  C   UNL     1      -6.196   7.069  69.991  1.00  0.00    -0.031 A  
HETATM   12  C   UNL     1      -6.375   5.876  70.810  1.00  0.00    -0.039 C  
HETATM   13  C   UNL     1      -6.499   8.366  70.330  1.00  0.00    -0.035 A  
HETATM   14  O   UNL     1      -6.500   5.677  72.009  1.00  0.00    -0.049 OA 
HETATM   15  C   UNL     1      -6.841   9.196  69.217  1.00  0.00    -0.049 A  
HETATM   16  C   UNL     1      -6.992   8.659  67.870  1.00  0.00    -0.078 A  
HETATM   17  C   UNL     1      -7.106  10.518  69.527  1.00  0.00    -0.124 A  
HETATM   18  O   UNL     1      -7.120  11.378  68.453  1.00  0.00    -0.070 OA 
HETATM   19  C   UNL     1      -7.114  10.989  70.857  1.00  0.00     1.988 A  
HETATM   20  C   UNL     1      -6.718   7.348  67.571  1.00  0.00    -0.069 A  
HETATM   21  O   UNL     1      -7.635   9.303  66.839  1.00  0.00    -0.090 OA 
HETATM   22  N   UNL     1      -7.326  12.327  71.160  1.00  0.00     4.498 N  
HETATM   23  C   UNL     1      -7.206   6.659  66.318  1.00  0.00    -0.072 C  
HETATM   24  H   UNL     1      -7.303  12.286  68.666  1.00  0.00     0.000 HD 
HETATM   25  H   UNL     1      -7.733   8.953  65.961  1.00  0.00     0.000 HD 
HETATM   26  C   UNL     1      -6.791  10.157  71.926  1.00  0.00     1.623 A  
HETATM   27  C   UNL     1      -6.500   8.840  71.662  1.00  0.00    -0.075 A  
HETATM   28  H   UNL     1      -6.946  12.694  72.033  1.00  0.00     0.000 HD 
HETATM   29  C   UNL     1      -8.011  13.169  70.352  1.00  0.00     3.872 C  
HETATM   30  O   UNL     1      -6.078   8.037  72.679  1.00  0.00    -0.049 OA 
HETATM   31  O   UNL     1      -8.835  12.850  69.499  1.00  0.00     1.094 OA 
HETATM   32  C   UNL     1      -7.775  14.563  70.663  1.00  0.00     1.557 C  
HETATM   33  C   UNL     1      -8.015  15.368  69.637  1.00  0.00    -0.138 C  
HETATM   34  C   UNL     1      -7.558  15.131  72.019  1.00  0.00     4.571 C  
HETATM   35  H   UNL     1      -6.079   8.356  73.574  1.00  0.00     0.000 HD 
HETATM   36  C   UNL     1      -8.278  16.694  70.047  1.00  0.00     1.515 C  
HETATM   37  C   UNL     1      -8.672  17.519  69.146  1.00  0.00     0.102 C  
HETATM   38  C   UNL     1      -8.654  18.919  69.509  1.00  0.00     0.427 C  
HETATM   39  C   UNL     1     -10.052  19.683  70.077  1.00  0.00     0.427 C  
HETATM   40  C   UNL     1      -7.928  19.217  68.172  1.00  0.00    -0.308 C  
HETATM   41  C   UNL     1      -8.882  20.024  67.457  1.00  0.00    -0.426 C  
HETATM   42  O   UNL     1      -6.520  19.218  68.011  1.00  0.00    -0.220 OA 
HETATM   43  H   UNL     1      -6.075  19.400  67.192  1.00  0.00     0.000 HD 
HETATM   44  C   UNL     1      -9.585  18.222  66.600  1.00  0.00    -0.315 C  
HETATM   45  C   UNL     1      -7.972  21.193  68.650  1.00  0.00     1.655 C  
HETATM   46  O   UNL     1     -10.999  18.758  65.538  1.00  0.00    -0.402 OA 
HETATM   47  C   UNL     1     -10.292  16.427  67.299  1.00  0.00    -0.287 C  
HETATM   48  H   UNL     1     -11.315  17.949  65.152  1.00  0.00     0.000 HD 
HETATM   49  C   UNL     1     -10.319  14.146  67.130  1.00  0.00    -0.265 C  
HETATM   50  C   UNL     1     -10.799  18.363  67.650  1.00  0.00    -0.295 C  
HETATM   51  C   UNL     1     -11.098  10.430  66.750  1.00  0.00    -0.023 C  
HETATM   52  C   UNL     1     -10.412  11.895  67.660  1.00  0.00    -0.232 C  
BRANCH  49  53
HETATM   53  O   UNL     1     -10.246  15.216  65.429  1.00  0.00    -0.335 OA 
BRANCH  53  54
HETATM   54  C   UNL     1     -10.225  16.815  64.660  1.00  0.00     1.495 C  
HETATM   55  C   UNL     1      -9.053  18.266  64.055  1.00  0.00    11.656 C  
HETATM   56  O   UNL     1     -11.350  17.171  64.251  1.00  0.00    -1.126 OA 
ENDBRANCH  53  54
ENDBRANCH  49  53
ENDBRANCH   2   3
TORSDOF 3
ENDMDL
MODEL       22
REMARK 921   NORMALIZED FREE ENERGY PREDICTED BY IDOCK:   45.16 KCAL/MOL
REMARK 922        TOTAL FREE ENERGY PREDICTED BY IDOCK:   52.44 KCAL/MOL
REMARK 923 INTER-LIGAND FREE ENERGY PREDICTED BY IDOCK:   50.64 KCAL/MOL
REMARK 924 INTRA-LIGAND FREE ENERGY PREDICTED BY IDOCK:    1.80 KCAL/MOL
REMARK 927      BINDING AFFINITY PREDICTED BY RF-SCORE:    0.00 PKD
ROOT
HETATM    1  C   UNL     1      -5.999   6.633  67.095  1.00  0.00    -0.021 C  
HETATM    2  O   UNL     1      -5.915   8.437  66.864  1.00  0.00    -0.050 OA 
ENDROOT
BRANCH   2   3
HETATM    3  C   UNL     1      -7.155   9.915  66.975  1.00  0.00    -0.089 C  
HETATM    4  C   UNL     1      -8.106   8.131  66.505  1.00  0.00    -0.106 C  
HETATM    5  C   UNL     1      -8.472   6.699  66.749  1.00  0.00    -0.117 C  
HETATM    6  O   UNL     1      -9.295   5.455  65.937  1.00  0.00    -0.159 OA 
HETATM    7  C   UNL     1     -10.677   4.795  66.675  1.00  0.00     0.122 C  
HETATM    8  C   UNL     1     -11.943   3.729  66.739  1.00  0.00    10.633 C  
HETATM    9  O   UNL     1     -10.625   5.099  68.036  1.00  0.00    -0.080 OA 
HETATM   10  C   UNL     1     -10.818   6.448  67.963  1.00  0.00    -0.316 A  
HETATM   11  C   UNL     1     -11.299   6.962  66.722  1.00  0.00     0.413 A  
HETATM   12  C   UNL     1     -11.314   5.822  65.813  1.00  0.00     1.575 C  
HETATM   13  C   UNL     1     -11.168   8.289  66.392  1.00  0.00     2.193 A  
HETATM   14  O   UNL     1     -11.537   5.688  64.620  1.00  0.00     3.122 OA 
HETATM   15  C   UNL     1     -10.553   9.086  67.408  1.00  0.00    -0.309 A  
HETATM   16  C   UNL     1      -9.990   8.497  68.617  1.00  0.00    -0.184 A  
HETATM   17  C   UNL     1     -10.451  10.435  67.118  1.00  0.00    -0.256 A  
HETATM   18  O   UNL     1     -10.162  11.243  68.194  1.00  0.00    -0.170 OA 
HETATM   19  C   UNL     1     -10.855  10.968  65.876  1.00  0.00    -0.115 A  
HETATM   20  C   UNL     1     -10.104   7.158  68.900  1.00  0.00    -0.177 A  
HETATM   21  O   UNL     1      -9.103   9.130  69.456  1.00  0.00    -0.144 OA 
HETATM   22  N   UNL     1     -10.803  12.329  65.609  1.00  0.00    -0.276 N  
HETATM   23  C   UNL     1      -9.240   6.443  69.911  1.00  0.00    -0.154 C  
HETATM   24  H   UNL     1     -10.092  12.170  67.995  1.00  0.00     0.000 HD 
HETATM   25  H   UNL     1      -8.736   8.746  70.243  1.00  0.00     0.000 HD 
HETATM   26  C   UNL     1     -11.439  10.168  64.896  1.00  0.00     3.110 A  
HETATM   27  C   UNL     1     -11.579   8.825  65.150  1.00  0.00     9.696 A  
HETATM   28  H   UNL     1     -11.437  12.712  64.908  1.00  0.00     0.000 HD 
HETATM   29  C   UNL     1      -9.949  13.173  66.235  1.00  0.00    -0.285 C  
HETATM   30  O   UNL     1     -12.243   8.046  64.250  1.00  0.00    17.065 OA 
HETATM   31  O   UNL     1      -8.899  12.866  66.791  1.00  0.00    -0.209 OA 
HETATM   32  C   UNL     1     -10.330  14.563  66.094  1.00  0.00    -0.305 C  
HETATM   33  C   UNL     1      -9.837  15.332  67.055  1.00  0.00    -0.233 C  
HETATM   34  C   UNL     1     -10.960  15.179  64.898  1.00  0.00    -0.434 C  
HETATM   35  H   UNL     1     -12.519   8.406  63.415  1.00  0.00     0.000 HD 
HETATM   36  C   UNL     1      -9.766  16.690  66.671  1.00  0.00    -0.280 C  
HETATM   37  C   UNL     1      -9.163  17.494  67.470  1.00  0.00    -0.242 C  
HETATM   38  C   UNL     1      -9.351  18.905  67.216  1.00  0.00    -0.324 C  
HETATM   39  C   UNL     1      -8.216  19.781  66.317  1.00  0.00    -0.372 C  
HETATM   40  C   UNL     1      -9.666  19.095  68.722  1.00  0.00    -0.430 C  
HETATM   41  C   UNL     1      -8.583  19.925  69.179  1.00  0.00     0.126 C  
HETATM   42  O   UNL     1     -10.964  19.001  69.284  1.00  0.00     0.504 OA 
HETATM   43  H   UNL     1     -11.157  19.117  70.206  1.00  0.00     0.000 HD 
HETATM   44  C   UNL     1      -7.577  18.132  69.680  1.00  0.00     0.541 C  
HETATM   45  C   UNL     1      -9.854  21.090  68.377  1.00  0.00     0.540 C  
HETATM   46  O   UNL     1      -5.940  18.705  70.318  1.00  0.00    -0.209 OA 
HETATM   47  C   UNL     1      -7.026  16.419  68.694  1.00  0.00    -0.159 C  
HETATM   48  H   UNL     1      -5.489  17.900  70.544  1.00  0.00     0.000 HD 
HETATM   49  C   UNL     1      -6.846  14.139  68.704  1.00  0.00    -0.101 C  
HETATM   50  C   UNL     1      -6.732  18.397  68.334  1.00  0.00    -0.237 C  
HETATM   51  C   UNL     1      -5.821  10.465  68.608  1.00  0.00    -0.040 C  
HETATM   52  C   UNL     1      -6.810  11.925  68.029  1.00  0.00    -0.072 C  
BRANCH  49  53
HETATM   53  O   UNL     1      -6.467  15.121  70.417  1.00  0.00    -0.113 OA 
BRANCH  53  54
HETATM   54  C   UNL     1      -6.559  15.142  72.190  1.00  0.00     1.931 C  
HETATM   55  C   UNL     1      -6.678  14.004  73.782  1.00  0.00     2.293 C  
HETATM   56  O   UNL     1      -6.417  16.286  72.669  1.00  0.00     3.545 OA 
ENDBRANCH  53  54
ENDBRANCH  49  53
ENDBRANCH   2   3
TORSDOF 3
ENDMDL
MODEL       23
REMARK 921   NORMALIZED FREE ENERGY PREDICTED BY IDOCK:   67.58 KCAL/MOL
REMARK 922        TOTAL FREE ENERGY PREDICTED BY IDOCK:   78.80 KCAL/MOL
REMARK 923 INTER-LIGAND FREE ENERGY PREDICTED BY IDOCK:   68.44 KCAL/MOL
REMARK 924 INTRA-LIGAND FREE ENERGY PREDICTED BY IDOCK:   10.36 KCAL/MOL
REMARK 927      BINDING AFFINITY PREDICTED BY RF-SCORE:    0.00 PKD
ROOT
HETATM    1  C   UNL     1     -11.968   6.810  66.593  1.00  0.00     3.012 C  
HETATM    2  O   UNL     1     -12.442   8.392  67.361  1.00  0.00     5.840 OA 
ENDROOT
BRANCH   2   3
HETATM    3  C   UNL     1     -11.515   9.955  68.020  1.00  0.00     0.293 C  
HETATM    4  C   UNL     1     -10.721   8.195  68.783  1.00  0.00    -0.074 C  
HETATM    5  C   UNL     1     -10.105   6.835  68.661  1.00  0.00    -0.163 C  
HETATM    6  O   UNL     1      -9.662   5.559  69.689  1.00  0.00    -0.150 OA 
HETATM    7  C   UNL     1      -8.026   5.096  69.729  1.00  0.00    -0.078 C  
HETATM    8  C   UNL     1      -6.781   4.138  70.255  1.00  0.00    -0.033 C  
HETATM    9  O   UNL     1      -7.416   5.567  68.567  1.00  0.00    -0.074 OA 
HETATM   10  C   UNL     1      -7.458   6.905  68.828  1.00  0.00    -0.099 A  
HETATM   11  C   UNL     1      -7.744   7.289  70.172  1.00  0.00    -0.091 A  
HETATM   12  C   UNL     1      -8.051   6.046  70.870  1.00  0.00    -0.121 C  
HETATM   13  C   UNL     1      -8.190   8.551  70.482  1.00  0.00    -0.116 A  
HETATM   14  O   UNL     1      -8.452   5.776  71.992  1.00  0.00    -0.124 OA 
HETATM   15  C   UNL     1      -8.297   9.426  69.356  1.00  0.00    -0.125 A  
HETATM   16  C   UNL     1      -8.087   8.959  67.991  1.00  0.00    -0.106 A  
HETATM   17  C   UNL     1      -8.701  10.716  69.648  1.00  0.00     0.157 A  
HETATM   18  O   UNL     1      -8.501  11.634  68.641  1.00  0.00    -0.224 OA 
HETATM   19  C   UNL     1      -9.056  11.113  70.955  1.00  0.00     6.211 A  
HETATM   20  C   UNL     1      -7.678   7.678  67.712  1.00  0.00    -0.122 A  
HETATM   21  O   UNL     1      -8.495   9.630  66.862  1.00  0.00    -0.120 OA 
HETATM   22  N   UNL     1      -9.407  12.423  71.255  1.00  0.00    11.490 N  
HETATM   23  C   UNL     1      -7.810   7.039  66.349  1.00  0.00    -0.106 C  
HETATM   24  H   UNL     1      -8.778  12.520  68.842  1.00  0.00     0.000 HD 
HETATM   25  H   UNL     1      -8.358   9.325  65.974  1.00  0.00     0.000 HD 
HETATM   26  C   UNL     1      -8.957  10.238  72.034  1.00  0.00     5.898 A  
HETATM   27  C   UNL     1      -8.540   8.951  71.792  1.00  0.00    -0.042 A  
HETATM   28  H   UNL     1      -9.272  12.756  72.209  1.00  0.00     0.000 HD 
HETATM   29  C   UNL     1      -9.922  13.278  70.340  1.00  0.00     3.740 C  
HETATM   30  O   UNL     1      -8.334   8.112  72.846  1.00  0.00    -0.160 OA 
HETATM   31  O   UNL     1     -10.495  12.972  69.299  1.00  0.00     0.027 OA 
HETATM   32  C   UNL     1      -9.843  14.662  70.760  1.00  0.00     1.639 C  
HETATM   33  C   UNL     1      -9.871  15.511  69.742  1.00  0.00    -0.268 C  
HETATM   34  C   UNL     1      -9.993  15.163  72.151  1.00  0.00     3.375 C  
HETATM   35  H   UNL     1      -8.570   8.380  73.727  1.00  0.00     0.000 HD 
HETATM   36  C   UNL     1     -10.298  16.800  70.131  1.00  0.00     0.316 C  
HETATM   37  C   UNL     1     -10.505  17.656  69.197  1.00  0.00    -0.128 C  
HETATM   38  C   UNL     1     -10.652  19.033  69.614  1.00  0.00     1.047 C  
HETATM   39  C   UNL     1     -12.186  19.705  69.854  1.00  0.00    10.824 C  
HETATM   40  C   UNL     1      -9.641  19.435  68.509  1.00  0.00    -0.405 C  
HETATM   41  C   UNL     1     -10.435  20.239  67.619  1.00  0.00    -0.327 C  
HETATM   42  O   UNL     1      -8.238  19.504  68.698  1.00  0.00    -0.354 OA 
HETATM   43  H   UNL     1      -7.618  19.750  68.022  1.00  0.00     0.000 HD 
HETATM   44  C   UNL     1     -10.811  18.459  66.538  1.00  0.00    -0.066 C  
HETATM   45  C   UNL     1      -9.907  21.378  69.047  1.00  0.00     1.832 C  
HETATM   46  O   UNL     1     -11.952  18.993  65.186  1.00  0.00     2.758 OA 
HETATM   47  C   UNL     1     -11.567  16.600  66.965  1.00  0.00     0.859 C  
HETATM   48  H   UNL     1     -12.121  18.194  64.701  1.00  0.00     0.000 HD 
HETATM   49  C   UNL     1     -11.429  14.332  66.696  1.00  0.00    -0.364 C  
HETATM   50  C   UNL     1     -12.249  18.491  67.264  1.00  0.00     3.739 C  
HETATM   51  C   UNL     1     -11.890  10.614  65.977  1.00  0.00     2.043 C  
HETATM   52  C   UNL     1     -11.525  12.053  67.090  1.00  0.00    -0.401 C  
BRANCH  49  53
HETATM   53  O   UNL     1     -11.003  15.497  65.113  1.00  0.00    -0.377 OA 
BRANCH  53  54
HETATM   54  C   UNL     1     -10.642  17.121  64.497  1.00  0.00     1.536 C  
HETATM   55  C   UNL     1      -9.889  18.866  64.979  1.00  0.00     2.339 C  
HETATM   56  O   UNL     1     -10.847  17.232  63.270  1.00  0.00     4.285 OA 
ENDBRANCH  53  54
ENDBRANCH  49  53
ENDBRANCH   2   3
TORSDOF 3
ENDMDL
MODEL       24
REMARK 921   NORMALIZED FREE ENERGY PREDICTED BY IDOCK:   68.37 KCAL/MOL
REMARK 922        TOTAL FREE ENERGY PREDICTED BY IDOCK:   79.72 KCAL/MOL
REMARK 923 INTER-LIGAND FREE ENERGY PREDICTED BY IDOCK:   80.07 KCAL/MOL
REMARK 924 INTRA-LIGAND FREE ENERGY PREDICTED BY IDOCK:   -0.35 KCAL/MOL
REMARK 927      BINDING AFFINITY PREDICTED BY RF-SCORE:    0.00 PKD
ROOT
HETATM    1  C   UNL     1      -6.037  17.600  67.373  1.00  0.00    -0.165 C  
HETATM    2  O   UNL     1      -7.348  16.669  66.518  1.00  0.00    -0.244 OA 
ENDROOT
BRANCH   2   3
HETATM    3  C   UNL     1      -8.494  15.171  66.940  1.00  0.00    -0.244 C  
HETATM    4  C   UNL     1      -9.524  16.973  66.961  1.00  0.00    -0.256 C  
HETATM    5  C   UNL     1     -10.000  18.255  66.350  1.00  0.00    -0.385 C  
HETATM    6  O   UNL     1     -10.844  19.644  66.840  1.00  0.00    -0.483 OA 
HETATM    7  C   UNL     1     -12.314  20.002  66.064  1.00  0.00     4.630 C  
HETATM    8  C   UNL     1     -13.648  20.948  65.806  1.00  0.00     9.541 C  
HETATM    9  O   UNL     1     -12.336  19.319  64.848  1.00  0.00     5.245 OA 
HETATM   10  C   UNL     1     -12.435  18.043  65.319  1.00  0.00     8.130 A  
HETATM   11  C   UNL     1     -12.795  17.890  66.691  1.00  0.00     8.252 A  
HETATM   12  C   UNL     1     -12.821  19.243  67.234  1.00  0.00     5.908 C  
HETATM   13  C   UNL     1     -12.555  16.722  67.373  1.00  0.00     3.571 A  
HETATM   14  O   UNL     1     -12.970  19.708  68.354  1.00  0.00     5.290 OA 
HETATM   15  C   UNL     1     -11.960  15.692  66.579  1.00  0.00     0.739 A  
HETATM   16  C   UNL     1     -11.522  15.929  65.209  1.00  0.00     0.078 A  
HETATM   17  C   UNL     1     -11.750  14.491  67.232  1.00  0.00    -0.406 A  
HETATM   18  O   UNL     1     -11.484  13.419  66.411  1.00  0.00    -0.308 OA 
HETATM   19  C   UNL     1     -12.032  14.324  68.605  1.00  0.00    -0.313 A  
HETATM   20  C   UNL     1     -11.743  17.123  64.567  1.00  0.00     1.666 A  
HETATM   21  O   UNL     1     -10.655  15.119  64.513  1.00  0.00    -0.573 OA 
HETATM   22  N   UNL     1     -11.872  13.102  69.243  1.00  0.00    -0.320 N  
HETATM   23  C   UNL     1     -10.999  17.550  63.324  1.00  0.00     9.744 C  
HETATM   24  H   UNL     1     -11.339  12.594  66.859  1.00  0.00     0.000 HD 
HETATM   25  H   UNL     1     -10.370  15.274  63.621  1.00  0.00     0.000 HD 
HETATM   26  C   UNL     1     -12.597  15.348  69.361  1.00  0.00     0.071 A  
HETATM   27  C   UNL     1     -12.842  16.552  68.747  1.00  0.00     2.799 A  
HETATM   28  H   UNL     1     -12.430  12.912  70.076  1.00  0.00     0.000 HD 
HETATM   29  C   UNL     1     -11.010  12.151  68.814  1.00  0.00    -0.232 C  
HETATM   30  O   UNL     1     -13.493  17.530  69.440  1.00  0.00     7.557 OA 
HETATM   31  O   UNL     1     -10.023  12.328  68.106  1.00  0.00    -0.199 OA 
HETATM   32  C   UNL     1     -11.289  10.846  69.378  1.00  0.00    -0.347 C  
HETATM   33  C   UNL     1     -10.813   9.853  68.638  1.00  0.00    -0.244 C  
HETATM   34  C   UNL     1     -11.793  10.576  70.749  1.00  0.00    -0.465 C  
HETATM   35  H   UNL     1     -13.686  17.416  70.364  1.00  0.00     0.000 HD 
HETATM   36  C   UNL     1     -10.627   8.670  69.386  1.00  0.00    -0.207 C  
HETATM   37  C   UNL     1     -10.030   7.695  68.802  1.00  0.00    -0.178 C  
HETATM   38  C   UNL     1     -10.106   6.411  69.463  1.00  0.00    -0.203 C  
HETATM   39  C   UNL     1      -8.858   5.883  70.475  1.00  0.00    -0.147 C  
HETATM   40  C   UNL     1     -10.512   5.779  68.106  1.00  0.00    -0.217 C  
HETATM   41  C   UNL     1      -9.411   4.900  67.816  1.00  0.00    -0.154 C  
HETATM   42  O   UNL     1     -11.848   5.651  67.654  1.00  0.00     1.239 OA 
HETATM   43  H   UNL     1     -12.097   5.265  66.823  1.00  0.00     0.000 HD 
HETATM   44  C   UNL     1      -8.562   6.512  66.739  1.00  0.00    -0.117 C  
HETATM   45  C   UNL     1     -10.544   3.964  69.021  1.00  0.00     1.860 C  
HETATM   46  O   UNL     1      -6.939   5.850  66.154  1.00  0.00    -0.060 OA 
HETATM   47  C   UNL     1      -8.057   8.460  67.144  1.00  0.00    -0.104 C  
HETATM   48  H   UNL     1      -6.558   6.574  65.671  1.00  0.00     0.000 HD 
HETATM   49  C   UNL     1      -8.028  10.645  66.469  1.00  0.00    -0.138 C  
HETATM   50  C   UNL     1      -7.610   6.685  68.028  1.00  0.00    -0.107 C  
HETATM   51  C   UNL     1      -7.242  14.229  65.425  1.00  0.00     9.478 C  
HETATM   52  C   UNL     1      -8.091  12.959  66.478  1.00  0.00     0.456 C  
BRANCH  49  53
HETATM   53  O   UNL     1      -7.705   9.225  65.082  1.00  0.00    -0.103 OA 
BRANCH  53  54
HETATM   54  C   UNL     1      -8.368   8.217  63.781  1.00  0.00     0.011 C  
HETATM   55  C   UNL     1      -8.921   6.394  63.316  1.00  0.00     0.927 C  
HETATM   56  O   UNL     1      -8.713   8.880  62.781  1.00  0.00    -0.200 OA 
ENDBRANCH  53  54
ENDBRANCH  49  53
ENDBRANCH   2   3
TORSDOF 3
ENDMDL
MODEL       25
REMARK 921   NORMALIZED FREE ENERGY PREDICTED BY IDOCK:   74.31 KCAL/MOL
REMARK 922        TOTAL FREE ENERGY PREDICTED BY IDOCK:   86.70 KCAL/MOL
REMARK 923 INTER-LIGAND FREE ENERGY PREDICTED BY IDOCK:   85.84 KCAL/MOL
REMARK 924 INTRA-LIGAND FREE ENERGY PREDICTED BY IDOCK:    0.86 KCAL/MOL
REMARK 927      BINDING AFFINITY PREDICTED BY RF-SCORE:    0.00 PKD
ROOT
HETATM    1  C   UNL     1     -11.088  16.058  70.399  1.00  0.00    -0.376 C  
HETATM    2  O   UNL     1     -11.103  15.229  68.777  1.00  0.00    -0.244 OA 
ENDROOT
BRANCH   2   3
HETATM    3  C   UNL     1     -10.331  13.623  68.026  1.00  0.00    -0.250 C  
HETATM    4  C   UNL     1      -9.520  15.343  67.194  1.00  0.00    -0.221 C  
HETATM    5  C   UNL     1      -8.822  16.667  67.259  1.00  0.00    -0.206 C  
HETATM    6  O   UNL     1      -8.411  17.926  66.197  1.00  0.00    -0.447 OA 
HETATM    7  C   UNL     1      -6.765  18.300  65.998  1.00  0.00    -0.266 C  
HETATM    8  C   UNL     1      -5.527  19.193  65.356  1.00  0.00    -0.202 C  
HETATM    9  O   UNL     1      -6.071  17.786  67.094  1.00  0.00    -0.137 OA 
HETATM   10  C   UNL     1      -6.211  16.455  66.833  1.00  0.00    -0.043 A  
HETATM   11  C   UNL     1      -6.648  16.098  65.523  1.00  0.00     4.594 A  
HETATM   12  C   UNL     1      -6.953  17.362  64.863  1.00  0.00     3.134 C  
HETATM   13  C   UNL     1      -7.191  14.865  65.255  1.00  0.00     9.778 A  
HETATM   14  O   UNL     1      -7.446  17.662  63.786  1.00  0.00     8.358 OA 
HETATM   15  C   UNL     1      -7.235  13.987  66.383  1.00  0.00     2.598 A  
HETATM   16  C   UNL     1      -6.868  14.432  67.722  1.00  0.00    -0.178 A  
HETATM   17  C   UNL     1      -7.736  12.724  66.128  1.00  0.00     1.588 A  
HETATM   18  O   UNL     1      -7.489  11.789  67.107  1.00  0.00    -0.135 OA 
HETATM   19  C   UNL     1      -8.238  12.357  64.861  1.00  0.00     2.830 A  
HETATM   20  C   UNL     1      -6.364  15.686  67.964  1.00  0.00    -0.147 A  
HETATM   21  O   UNL     1      -7.200  13.774  68.883  1.00  0.00    -0.109 OA 
HETATM   22  N   UNL     1      -8.688  11.072  64.593  1.00  0.00    -0.369 N  
HETATM   23  C   UNL     1      -6.326  16.319  69.334  1.00  0.00    -0.184 C  
HETATM   24  H   UNL     1      -7.833  10.920  66.932  1.00  0.00     0.000 HD 
HETATM   25  H   UNL     1      -6.960  14.063  69.755  1.00  0.00     0.000 HD 
HETATM   26  C   UNL     1      -8.198  13.235  63.780  1.00  0.00     8.850 A  
HETATM   27  C   UNL     1      -7.689  14.495  63.984  1.00  0.00    17.535 A  
HETATM   28  H   UNL     1      -8.665  10.740  63.629  1.00  0.00     0.000 HD 
HETATM   29  C   UNL     1      -9.157  10.238  65.551  1.00  0.00    -0.176 C  
HETATM   30  O   UNL     1      -7.541  15.331  62.917  1.00  0.00    19.601 OA 
HETATM   31  O   UNL     1      -9.608  10.566  66.645  1.00  0.00    -0.165 OA 
HETATM   32  C   UNL     1      -9.196   8.856  65.122  1.00  0.00    -0.100 C  
HETATM   33  C   UNL     1      -9.171   8.000  66.135  1.00  0.00    -0.219 C  
HETATM   34  C   UNL     1      -9.508   8.375  63.751  1.00  0.00     2.078 C  
HETATM   35  H   UNL     1      -7.876  15.083  62.063  1.00  0.00     0.000 HD 
HETATM   36  C   UNL     1      -9.703   6.740  65.785  1.00  0.00     0.444 C  
HETATM   37  C   UNL     1      -9.865   5.889  66.732  1.00  0.00    -0.191 C  
HETATM   38  C   UNL     1     -10.127   4.525  66.328  1.00  0.00    -0.280 C  
HETATM   39  C   UNL     1     -11.712   3.939  66.237  1.00  0.00     6.023 C  
HETATM   40  C   UNL     1      -9.037   4.059  67.327  1.00  0.00    -0.150 C  
HETATM   41  C   UNL     1      -9.783   3.293  68.289  1.00  0.00    -0.017 C  
HETATM   42  O   UNL     1      -7.665   3.916  67.001  1.00  0.00    -0.083 OA 
HETATM   43  H   UNL     1      -6.997   3.632  67.613  1.00  0.00     0.000 HD 
HETATM   44  C   UNL     1      -9.953   5.081  69.406  1.00  0.00    -0.290 C  
HETATM   45  C   UNL     1      -9.460   2.139  66.812  1.00  0.00     0.159 C  
HETATM   46  O   UNL     1     -10.984   4.599  70.862  1.00  0.00     0.355 OA 
HETATM   47  C   UNL     1     -10.645   6.982  69.061  1.00  0.00    -0.234 C  
HETATM   48  H   UNL     1     -11.061   5.402  71.364  1.00  0.00     0.000 HD 
HETATM   49  C   UNL     1     -10.357   9.236  69.322  1.00  0.00    -0.215 C  
HETATM   50  C   UNL     1     -11.455   5.134  68.825  1.00  0.00     2.676 C  
HETATM   51  C   UNL     1     -10.540  12.968  70.094  1.00  0.00     1.573 C  
HETATM   52  C   UNL     1     -10.366  11.521  68.946  1.00  0.00    -0.191 C  
BRANCH  49  53
HETATM   53  O   UNL     1      -9.843   8.037  70.852  1.00  0.00    -0.174 OA 
BRANCH  53  54
HETATM   54  C   UNL     1      -8.685   6.872  71.525  1.00  0.00    -0.122 C  
HETATM   55  C   UNL     1      -8.351   5.664  73.032  1.00  0.00    -0.118 C  
HETATM   56  O   UNL     1      -7.741   6.623  70.747  1.00  0.00    -0.094 OA 
ENDBRANCH  53  54
ENDBRANCH  49  53
ENDBRANCH   2   3
TORSDOF 3
ENDMDL
MODEL       26
REMARK 921   NORMALIZED FREE ENERGY PREDICTED BY IDOCK:   86.22 KCAL/MOL
REMARK 922        TOTAL FREE ENERGY PREDICTED BY IDOCK:  100.70 KCAL/MOL
REMARK 923 INTER-LIGAND FREE ENERGY PREDICTED BY IDOCK:   98.52 KCAL/MOL
REMARK 924 INTRA-LIGAND FREE ENERGY PREDICTED BY IDOCK:    2.18 KCAL/MOL
REMARK 927      BINDING AFFINITY PREDICTED BY RF-SCORE:    0.00 PKD
ROOT
HETATM    1  C   UNL     1     -12.827  14.635  64.652  1.00  0.00     0.194 C  
HETATM    2  O   UNL     1     -12.105  12.964  64.673  1.00  0.00    -0.372 OA 
ENDROOT
BRANCH   2   3
HETATM    3  C   UNL     1     -10.981  11.946  65.872  1.00  0.00    -0.307 C  
HETATM    4  C   UNL     1      -9.943  13.489  64.948  1.00  0.00    -0.176 C  
HETATM    5  C   UNL     1      -9.711  14.924  64.585  1.00  0.00     0.954 C  
HETATM    6  O   UNL     1      -8.658  15.817  63.598  1.00  0.00    11.145 OA 
HETATM    7  C   UNL     1      -7.663  16.981  64.338  1.00  0.00     8.672 C  
HETATM    8  C   UNL     1      -6.527  18.185  64.296  1.00  0.00     2.367 C  
HETATM    9  O   UNL     1      -8.221  17.299  65.577  1.00  0.00    -0.261 OA 
HETATM   10  C   UNL     1      -7.999  16.118  66.223  1.00  0.00    -0.103 A  
HETATM   11  C   UNL     1      -7.080  15.214  65.612  1.00  0.00     6.500 A  
HETATM   12  C   UNL     1      -6.737  15.821  64.331  1.00  0.00    15.681 C  
HETATM   13  C   UNL     1      -7.062  13.878  65.932  1.00  0.00     5.724 A  
HETATM   14  O   UNL     1      -6.082  15.459  63.366  1.00  0.00    17.925 OA 
HETATM   15  C   UNL     1      -8.006  13.505  66.940  1.00  0.00     0.171 A  
HETATM   16  C   UNL     1      -8.990  14.446  67.462  1.00  0.00    -0.190 A  
HETATM   17  C   UNL     1      -7.976  12.174  67.312  1.00  0.00    -0.176 A  
HETATM   18  O   UNL     1      -8.640  11.880  68.482  1.00  0.00    -0.214 OA 
HETATM   19  C   UNL     1      -7.128  11.238  66.684  1.00  0.00    -0.127 A  
HETATM   20  C   UNL     1      -9.005  15.769  67.093  1.00  0.00    -0.233 A  
HETATM   21  O   UNL     1     -10.120  14.089  68.159  1.00  0.00    -0.231 OA 
HETATM   22  N   UNL     1      -7.061   9.914  67.097  1.00  0.00    -0.085 N  
HETATM   23  C   UNL     1     -10.195  16.677  67.296  1.00  0.00    -0.290 C  
HETATM   24  H   UNL     1      -8.620  10.965  68.737  1.00  0.00     0.000 HD 
HETATM   25  H   UNL     1     -10.761  14.702  68.500  1.00  0.00     0.000 HD 
HETATM   26  C   UNL     1      -6.227  11.622  65.693  1.00  0.00     1.162 A  
HETATM   27  C   UNL     1      -6.208  12.941  65.307  1.00  0.00     8.201 A  
HETATM   28  H   UNL     1      -6.204   9.391  66.914  1.00  0.00     0.000 HD 
HETATM   29  C   UNL     1      -8.078   9.286  67.731  1.00  0.00    -0.104 C  
HETATM   30  O   UNL     1      -5.262  13.358  64.418  1.00  0.00    10.129 OA 
HETATM   31  O   UNL     1      -9.263   9.601  67.696  1.00  0.00    -0.131 OA 
HETATM   32  C   UNL     1      -7.656   8.074  68.403  1.00  0.00    -0.108 C  
HETATM   33  C   UNL     1      -8.466   7.725  69.393  1.00  0.00    -0.134 C  
HETATM   34  C   UNL     1      -6.615   7.127  67.926  1.00  0.00    -0.053 C  
HETATM   35  H   UNL     1      -4.688  12.728  63.997  1.00  0.00     0.000 HD 
HETATM   36  C   UNL     1      -8.373   6.350  69.703  1.00  0.00    -0.126 C  
HETATM   37  C   UNL     1      -9.222   5.878  70.541  1.00  0.00    -0.167 C  
HETATM   38  C   UNL     1      -8.938   4.562  71.068  1.00  0.00    -0.165 C  
HETATM   39  C   UNL     1      -9.639   3.184  70.380  1.00  0.00    -0.192 C  
HETATM   40  C   UNL     1      -9.211   5.113  72.491  1.00  0.00    -0.132 C  
HETATM   41  C   UNL     1     -10.377   4.379  72.905  1.00  0.00    -0.240 C  
HETATM   42  O   UNL     1      -8.222   5.687  73.328  1.00  0.00    -0.116 OA 
HETATM   43  H   UNL     1      -8.389   6.025  74.199  1.00  0.00     0.000 HD 
HETATM   44  C   UNL     1     -11.517   5.985  72.133  1.00  0.00    -0.356 C  
HETATM   45  C   UNL     1      -8.885   3.244  73.220  1.00  0.00    -0.083 C  
HETATM   46  O   UNL     1     -13.267   5.452  72.392  1.00  0.00     0.359 OA 
HETATM   47  C   UNL     1     -11.676   6.956  70.331  1.00  0.00    -0.377 C  
HETATM   48  H   UNL     1     -13.780   6.174  72.045  1.00  0.00     0.000 HD 
HETATM   49  C   UNL     1     -11.872   8.931  69.195  1.00  0.00     1.323 C  
HETATM   50  C   UNL     1     -11.790   5.004  70.884  1.00  0.00     2.754 C  
HETATM   51  C   UNL     1     -12.826  11.926  67.031  1.00  0.00     3.484 C  
HETATM   52  C   UNL     1     -11.676  10.576  67.577  1.00  0.00     0.522 C  
BRANCH  49  53
HETATM   53  O   UNL     1     -12.857   8.746  70.938  1.00  0.00    -0.079 OA 
BRANCH  53  54
HETATM   54  C   UNL     1     -12.774   8.642  72.707  1.00  0.00    -0.065 C  
HETATM   55  C   UNL     1     -13.845   8.688  74.348  1.00  0.00     6.757 C  
HETATM   56  O   UNL     1     -11.634   8.346  73.122  1.00  0.00    -0.108 OA 
ENDBRANCH  53  54
ENDBRANCH  49  53
ENDBRANCH   2   3
TORSDOF 3
ENDMDL
MODEL       27
REMARK 921   NORMALIZED FREE ENERGY PREDICTED BY IDOCK:   95.14 KCAL/MOL
REMARK 922        TOTAL FREE ENERGY PREDICTED BY IDOCK:  111.19 KCAL/MOL
REMARK 923 INTER-LIGAND FREE ENERGY PREDICTED BY IDOCK:  100.80 KCAL/MOL
REMARK 924 INTRA-LIGAND FREE ENERGY PREDICTED BY IDOCK:   10.39 KCAL/MOL
REMARK 927      BINDING AFFINITY PREDICTED BY RF-SCORE:    0.00 PKD
ROOT
HETATM    1  C   UNL     1      -7.430  17.897  65.358  1.00  0.00     0.679 C  
HETATM    2  O   UNL     1      -8.712  16.660  65.737  1.00  0.00    -0.482 OA 
ENDROOT
BRANCH   2   3
HETATM    3  C   UNL     1      -8.862  15.119  66.895  1.00  0.00    -0.256 C  
HETATM    4  C   UNL     1      -8.675  16.887  67.967  1.00  0.00    -0.215 C  
HETATM    5  C   UNL     1      -9.086  18.276  68.350  1.00  0.00    -0.331 C  
HETATM    6  O   UNL     1      -8.499  19.538  69.322  1.00  0.00    -0.233 OA 
HETATM    7  C   UNL     1      -9.468  20.070  70.614  1.00  0.00     1.493 C  
HETATM    8  C   UNL     1      -9.790  21.064  71.898  1.00  0.00     3.522 C  
HETATM    9  O   UNL     1     -10.779  19.662  70.365  1.00  0.00     1.035 OA 
HETATM   10  C   UNL     1     -10.618  18.316  70.516  1.00  0.00     2.045 A  
HETATM   11  C   UNL     1      -9.414  17.878  71.142  1.00  0.00     6.043 A  
HETATM   12  C   UNL     1      -8.615  19.085  71.324  1.00  0.00     5.428 C  
HETATM   13  C   UNL     1      -8.959  16.589  71.008  1.00  0.00     4.926 A  
HETATM   14  O   UNL     1      -7.477  19.301  71.713  1.00  0.00     2.919 OA 
HETATM   15  C   UNL     1      -9.812  15.745  70.230  1.00  0.00     0.267 A  
HETATM   16  C   UNL     1     -10.981  16.264  69.529  1.00  0.00    -0.339 A  
HETATM   17  C   UNL     1      -9.398  14.431  70.118  1.00  0.00     1.366 A  
HETATM   18  O   UNL     1     -10.354  13.555  69.655  1.00  0.00    -0.239 OA 
HETATM   19  C   UNL     1      -8.180  13.978  70.668  1.00  0.00     3.328 A  
HETATM   20  C   UNL     1     -11.388  17.570  69.654  1.00  0.00     1.576 A  
HETATM   21  O   UNL     1     -11.637  15.611  68.513  1.00  0.00    -0.360 OA 
HETATM   22  N   UNL     1      -7.795  12.646  70.602  1.00  0.00     4.073 N  
HETATM   23  C   UNL     1     -12.332  18.244  68.687  1.00  0.00     6.023 C  
HETATM   24  H   UNL     1     -10.070  12.652  69.577  1.00  0.00     0.000 HD 
HETATM   25  H   UNL     1     -12.398  15.949  68.057  1.00  0.00     0.000 HD 
HETATM   26  C   UNL     1      -7.358  14.823  71.410  1.00  0.00     2.240 A  
HETATM   27  C   UNL     1      -7.741  16.133  71.564  1.00  0.00     6.148 A  
HETATM   28  H   UNL     1      -7.155  12.289  71.312  1.00  0.00     0.000 HD 
HETATM   29  C   UNL     1      -8.228  11.798  69.640  1.00  0.00     1.187 C  
HETATM   30  O   UNL     1      -7.007  16.948  72.374  1.00  0.00     6.614 OA 
HETATM   31  O   UNL     1      -8.663  12.111  68.535  1.00  0.00    -0.157 OA 
HETATM   32  C   UNL     1      -8.022  10.406  69.984  1.00  0.00     0.090 C  
HETATM   33  C   UNL     1      -8.840   9.589  69.335  1.00  0.00    -0.172 C  
HETATM   34  C   UNL     1      -6.873   9.856  70.748  1.00  0.00    -0.033 C  
HETATM   35  H   UNL     1      -6.189  16.642  72.748  1.00  0.00     0.000 HD 
HETATM   36  C   UNL     1      -8.337   8.271  69.266  1.00  0.00    -0.122 C  
HETATM   37  C   UNL     1      -8.977   7.436  68.531  1.00  0.00    -0.128 C  
HETATM   38  C   UNL     1      -8.632   6.042  68.698  1.00  0.00    -0.112 C  
HETATM   39  C   UNL     1      -7.519   5.296  67.665  1.00  0.00    -0.083 C  
HETATM   40  C   UNL     1     -10.146   5.719  68.797  1.00  0.00    -0.177 C  
HETATM   41  C   UNL     1     -10.382   4.910  67.631  1.00  0.00    -0.082 C  
HETATM   42  O   UNL     1     -10.881   5.706  70.008  1.00  0.00    -0.325 OA 
HETATM   43  H   UNL     1     -11.808   5.508  70.069  1.00  0.00     0.000 HD 
HETATM   44  C   UNL     1     -10.895   6.704  66.634  1.00  0.00    -0.185 C  
HETATM   45  C   UNL     1      -9.661   3.751  68.955  1.00  0.00    -0.091 C  
HETATM   46  O   UNL     1     -11.258   6.164  64.905  1.00  0.00     3.374 OA 
HETATM   47  C   UNL     1      -9.992   8.514  66.287  1.00  0.00    -0.251 C  
HETATM   48  H   UNL     1     -11.489   6.969  64.457  1.00  0.00     0.000 HD 
HETATM   49  C   UNL     1     -10.171  10.793  66.194  1.00  0.00    -0.250 C  
HETATM   50  C   UNL     1      -9.430   6.587  65.972  1.00  0.00     0.008 C  
HETATM   51  C   UNL     1     -10.250  14.508  65.330  1.00  0.00    -0.431 C  
HETATM   52  C   UNL     1      -9.687  13.052  66.333  1.00  0.00    -0.268 C  
BRANCH  49  53
HETATM   53  O   UNL     1     -11.729   9.698  65.547  1.00  0.00     3.521 OA 
BRANCH  53  54
HETATM   54  C   UNL     1     -12.423   8.088  65.274  1.00  0.00    16.640 C  
HETATM   55  C   UNL     1     -13.141   6.885  63.902  1.00  0.00    16.229 C  
HETATM   56  O   UNL     1     -12.394   7.368  66.294  1.00  0.00     5.343 OA 
ENDBRANCH  53  54
ENDBRANCH  49  53
ENDBRANCH   2   3
TORSDOF 3
ENDMDL
MODEL       28
REMARK 921   NORMALIZED FREE ENERGY PREDICTED BY IDOCK:  101.62 KCAL/MOL
REMARK 922        TOTAL FREE ENERGY PREDICTED BY IDOCK:  118.80 KCAL/MOL
REMARK 923 INTER-LIGAND FREE ENERGY PREDICTED BY IDOCK:  114.81 KCAL/MOL
REMARK 924 INTRA-LIGAND FREE ENERGY PREDICTED BY IDOCK:    3.99 KCAL/MOL
REMARK 927      BINDING AFFINITY PREDICTED BY RF-SCORE:    0.00 PKD
ROOT
HETATM    1  C   UNL     1      -5.289   9.120  70.205  1.00  0.00    -0.027 C  
HETATM    2  O   UNL     1      -6.780  10.152  70.038  1.00  0.00    -0.092 OA 
ENDROOT
BRANCH   2   3
HETATM    3  C   UNL     1      -7.648  11.126  68.611  1.00  0.00    -0.127 C  
HETATM    4  C   UNL     1      -7.055   9.228  68.014  1.00  0.00    -0.078 C  
HETATM    5  C   UNL     1      -7.024   7.734  68.122  1.00  0.00    -0.079 C  
HETATM    6  O   UNL     1      -6.218   6.436  67.382  1.00  0.00    -0.029 OA 
HETATM    7  C   UNL     1      -7.155   5.267  66.578  1.00  0.00    -0.069 C  
HETATM    8  C   UNL     1      -7.333   3.859  65.724  1.00  0.00    -0.073 C  
HETATM    9  O   UNL     1      -8.461   5.357  67.059  1.00  0.00    -0.108 OA 
HETATM   10  C   UNL     1      -8.801   6.569  66.533  1.00  0.00    -0.138 A  
HETATM   11  C   UNL     1      -7.948   7.091  65.516  1.00  0.00    -0.130 A  
HETATM   12  C   UNL     1      -6.828   6.160  65.439  1.00  0.00    -0.048 C  
HETATM   13  C   UNL     1      -7.947   8.426  65.190  1.00  0.00    -0.136 A  
HETATM   14  O   UNL     1      -5.771   6.149  64.826  1.00  0.00    -0.021 OA 
HETATM   15  C   UNL     1      -8.889   9.208  65.928  1.00  0.00    -0.209 A  
HETATM   16  C   UNL     1      -9.668   8.647  67.025  1.00  0.00    -0.201 A  
HETATM   17  C   UNL     1      -8.939  10.547  65.586  1.00  0.00    -0.180 A  
HETATM   18  O   UNL     1     -10.041  11.228  66.052  1.00  0.00    -0.222 OA 
HETATM   19  C   UNL     1      -8.065  11.111  64.633  1.00  0.00     0.524 A  
HETATM   20  C   UNL     1      -9.619   7.314  67.351  1.00  0.00    -0.176 A  
HETATM   21  O   UNL     1     -10.322   9.390  67.980  1.00  0.00    -0.196 OA 
HETATM   22  N   UNL     1      -8.155  12.443  64.252  1.00  0.00     2.891 N  
HETATM   23  C   UNL     1     -10.090   6.761  68.675  1.00  0.00    -0.163 C  
HETATM   24  H   UNL     1     -10.075  12.149  65.817  1.00  0.00     0.000 HD 
HETATM   25  H   UNL     1     -10.830   9.024  68.695  1.00  0.00     0.000 HD 
HETATM   26  C   UNL     1      -7.145  10.331  63.937  1.00  0.00    -0.055 A  
HETATM   27  C   UNL     1      -7.076   8.990  64.230  1.00  0.00    -0.090 A  
HETATM   28  H   UNL     1      -7.809  12.710  63.330  1.00  0.00     0.000 HD 
HETATM   29  C   UNL     1      -8.678  13.406  65.047  1.00  0.00     2.755 C  
HETATM   30  O   UNL     1      -6.260   8.190  63.487  1.00  0.00    -0.070 OA 
HETATM   31  O   UNL     1      -8.781  13.364  66.270  1.00  0.00     0.114 OA 
HETATM   32  C   UNL     1      -9.026  14.608  64.318  1.00  0.00     6.252 C  
HETATM   33  C   UNL     1      -9.948  15.335  64.933  1.00  0.00    -0.003 C  
HETATM   34  C   UNL     1      -8.286  15.171  63.159  1.00  0.00    22.783 C  
HETATM   35  H   UNL     1      -5.674   8.569  62.842  1.00  0.00     0.000 HD 
HETATM   36  C   UNL     1      -9.924  16.688  64.527  1.00  0.00     2.498 C  
HETATM   37  C   UNL     1     -10.674  17.507  65.170  1.00  0.00     0.215 C  
HETATM   38  C   UNL     1     -10.863  18.808  64.568  1.00  0.00     3.610 C  
HETATM   39  C   UNL     1      -9.911  20.126  65.038  1.00  0.00     1.026 C  
HETATM   40  C   UNL     1     -12.388  18.652  64.801  1.00  0.00     8.823 C  
HETATM   41  C   UNL     1     -12.681  19.700  65.742  1.00  0.00     8.121 C  
HETATM   42  O   UNL     1     -13.282  18.066  63.870  1.00  0.00    10.934 OA 
HETATM   43  H   UNL     1     -14.215  17.970  64.013  1.00  0.00     0.000 HD 
HETATM   44  C   UNL     1     -12.366  18.263  67.262  1.00  0.00     4.400 C  
HETATM   45  C   UNL     1     -12.643  20.513  64.023  1.00  0.00     9.482 C  
HETATM   46  O   UNL     1     -12.587  19.217  68.828  1.00  0.00     5.549 OA 
HETATM   47  C   UNL     1     -10.852  16.987  67.801  1.00  0.00    -0.269 C  
HETATM   48  H   UNL     1     -12.445  18.571  69.511  1.00  0.00     0.000 HD 
HETATM   49  C   UNL     1     -10.219  14.908  68.516  1.00  0.00    -0.235 C  
HETATM   50  C   UNL     1     -10.939  18.987  67.454  1.00  0.00    -0.371 C  
HETATM   51  C   UNL     1      -8.867  11.809  70.284  1.00  0.00     3.961 C  
HETATM   52  C   UNL     1      -9.021  12.952  68.830  1.00  0.00     0.175 C  
BRANCH  49  53
HETATM   53  O   UNL     1     -11.920  15.681  69.257  1.00  0.00    -0.365 OA 
BRANCH  53  54
HETATM   54  C   UNL     1     -12.696  16.943  70.236  1.00  0.00     4.539 C  
HETATM   55  C   UNL     1     -12.531  18.799  70.845  1.00  0.00    16.700 C  
HETATM   56  O   UNL     1     -13.822  16.606  70.657  1.00  0.00     3.417 OA 
ENDBRANCH  53  54
ENDBRANCH  49  53
ENDBRANCH   2   3
TORSDOF 3
ENDMDL
