MODEL        1
REMARK 921   NORMALIZED FREE ENERGY PREDICTED BY IDOCK:    0.22 KCAL/MOL
REMARK 922        TOTAL FREE ENERGY PREDICTED BY IDOCK:    0.54 KCAL/MOL
REMARK 923 INTER-LIGAND FREE ENERGY PREDICTED BY IDOCK:    0.31 KCAL/MOL
REMARK 924 INTRA-LIGAND FREE ENERGY PREDICTED BY IDOCK:    0.23 KCAL/MOL
REMARK 927      BINDING AFFINITY PREDICTED BY RF-SCORE:    0.00 PKD
ROOT
HETATM    1  C   UNL     1     -13.311  13.293  64.631  1.00  0.00     0.708 C  
HETATM    2  O   UNL     1     -11.604  13.520  65.388  1.00  0.00    -0.307 OA 
ENDROOT
BRANCH   2   3
HETATM    3  C   UNL     1     -10.639  12.829  66.954  1.00  0.00    -0.244 C  
HETATM    4  C   UNL     1      -9.919  14.651  66.477  1.00  0.00    -0.292 C  
HETATM    5  C   UNL     1     -10.260  16.260  66.378  1.00  0.00    -0.322 C  
HETATM    6  O   UNL     1      -9.501  17.667  65.662  1.00  0.00    -0.473 OA 
HETATM    7  C   UNL     1      -8.728  18.630  66.642  1.00  0.00    -0.302 C  
HETATM    8  C   UNL     1      -8.257  20.146  66.906  1.00  0.00    -0.363 C  
HETATM    9  O   UNL     1      -9.438  18.548  67.841  1.00  0.00    -0.284 OA 
HETATM   10  C   UNL     1      -8.924  17.399  68.345  1.00  0.00    -0.277 A  
HETATM   11  C   UNL     1      -7.844  16.804  67.655  1.00  0.00    -0.189 A  
HETATM   12  C   UNL     1      -7.610  17.667  66.493  1.00  0.00    -0.264 C  
HETATM   13  C   UNL     1      -7.547  15.469  67.848  1.00  0.00    -0.146 A  
HETATM   14  O   UNL     1      -6.980  17.501  65.458  1.00  0.00    -0.271 OA 
HETATM   15  C   UNL     1      -8.337  14.806  68.844  1.00  0.00    -0.163 A  
HETATM   16  C   UNL     1      -9.435  15.480  69.502  1.00  0.00    -0.269 A  
HETATM   17  C   UNL     1      -7.991  13.483  69.100  1.00  0.00     0.329 A  
HETATM   18  O   UNL     1      -8.430  12.987  70.310  1.00  0.00     2.692 OA 
HETATM   19  C   UNL     1      -7.020  12.778  68.345  1.00  0.00    -0.095 A  
HETATM   20  C   UNL     1      -9.761  16.779  69.226  1.00  0.00    -0.139 A  
HETATM   21  O   UNL     1     -10.325  14.948  70.393  1.00  0.00    -0.494 OA 
HETATM   22  N   UNL     1      -6.693  11.457  68.682  1.00  0.00    -0.065 N  
HETATM   23  C   UNL     1     -11.013  17.457  69.700  1.00  0.00     0.620 C  
HETATM   24  H   UNL     1      -8.194  12.084  70.485  1.00  0.00     0.000 HD 
HETATM   25  H   UNL     1     -11.046  15.391  70.826  1.00  0.00     0.000 HD 
HETATM   26  C   UNL     1      -6.299  13.440  67.335  1.00  0.00     0.009 A  
HETATM   27  H   UNL     1      -5.770  11.116  68.411  1.00  0.00     0.000 HD 
HETATM   28  C   UNL     1      -7.508  10.597  69.339  1.00  0.00    -0.135 C  
HETATM   29  O   UNL     1      -7.655   7.204  74.456  1.00  0.00    -0.115 OA 
HETATM   30  C   UNL     1      -6.573  14.778  67.089  1.00  0.00     0.445 A  
HETATM   31  C   UNL     1     -12.261  12.740  68.649  1.00  0.00     0.011 C  
HETATM   32  O   UNL     1      -5.845  15.482  66.172  1.00  0.00     1.778 OA 
HETATM   33  O   UNL     1      -8.721  10.688  69.447  1.00  0.00    -0.128 OA 
HETATM   34  C   UNL     1      -6.809   9.442  69.798  1.00  0.00    -0.055 C  
HETATM   35  C   UNL     1     -11.211  11.279  68.533  1.00  0.00    -0.311 C  
HETATM   36  C   UNL     1     -10.280   5.699  71.386  1.00  0.00    -0.270 C  
HETATM   37  C   UNL     1      -7.429   8.771  70.841  1.00  0.00    -0.094 C  
HETATM   38  C   UNL     1      -5.706   8.734  69.172  1.00  0.00    -0.036 C  
HETATM   39  H   UNL     1      -5.191  15.018  65.663  1.00  0.00     0.000 HD 
HETATM   40  C   UNL     1     -11.014   9.360  69.945  1.00  0.00    -0.229 C  
HETATM   41  C   UNL     1      -7.021   7.465  70.991  1.00  0.00    -0.059 C  
HETATM   42  H   UNL     1     -11.585   6.624  73.684  1.00  0.00     0.000 HD 
HETATM   43  C   UNL     1      -7.699   6.795  71.851  1.00  0.00    -0.096 C  
HETATM   44  C   UNL     1      -7.278   5.502  72.358  1.00  0.00    -0.093 C  
HETATM   45  O   UNL     1     -11.026   5.897  73.931  1.00  0.00    -0.129 OA 
HETATM   46  C   UNL     1      -7.582   5.860  74.138  1.00  0.00    -0.091 C  
HETATM   47  C   UNL     1      -7.711   3.858  71.581  1.00  0.00    -0.061 C  
HETATM   48  C   UNL     1     -10.207   7.671  71.283  1.00  0.00    -0.204 C  
HETATM   49  C   UNL     1      -6.815   4.130  73.924  1.00  0.00    -0.059 C  
HETATM   50  H   UNL     1      -7.812   7.389  75.375  1.00  0.00     0.000 HD 
HETATM   51  C   UNL     1      -8.587   5.051  73.578  1.00  0.00    -0.108 C  
HETATM   52  C   UNL     1      -9.826   6.660  73.031  1.00  0.00    -0.184 C  
BRANCH  26  53
HETATM   53  C   UNL     1      -5.154  12.807  66.624  1.00  0.00     1.006 C  
BRANCH  53  54
HETATM   54  N   UNL     1      -5.126  11.539  66.335  1.00  0.00    -0.248 NA 
HETATM   55  H   UNL     1      -4.379  10.930  66.672  1.00  0.00     0.000 HD 
BRANCH  54  56
HETATM   56  N   UNL     1      -6.132  11.069  65.568  1.00  0.00     0.005 NA 
HETATM   57  C   UNL     1      -7.093  10.109  66.152  1.00  0.00    -0.114 C  
HETATM   58  C   UNL     1      -7.135   8.732  65.448  1.00  0.00    -0.083 C  
HETATM   59  N   UNL     1      -7.257   8.824  63.971  1.00  0.00    -0.094 NA 
HETATM   60  C   UNL     1      -6.096  11.046  64.099  1.00  0.00     0.667 C  
HETATM   61  C   UNL     1      -6.114   9.632  63.506  1.00  0.00    -0.105 C  
BRANCH  59  62
HETATM   62  C   UNL     1      -8.548   9.415  63.561  1.00  0.00    -0.206 C  
HETATM   63  C   UNL     1      -8.394  10.716  62.769  1.00  0.00    -0.188 C  
HETATM   64  C   UNL     1     -10.417  10.815  64.146  1.00  0.00    -0.309 C  
HETATM   65  C   UNL     1      -9.578  11.599  63.147  1.00  0.00    -0.348 C  
HETATM   66  C   UNL     1      -9.476   9.777  64.727  1.00  0.00    -0.318 C  
ENDBRANCH  59  62
ENDBRANCH  54  56
ENDBRANCH  53  54
ENDBRANCH  26  53
BRANCH  40  67
HETATM   67  O   UNL     1     -12.187   7.828  70.527  1.00  0.00    -0.040 OA 
BRANCH  67  68
HETATM   68  C   UNL     1     -13.345   6.932  71.643  1.00  0.00    -0.219 C  
HETATM   69  O   UNL     1     -14.240   7.725  72.051  1.00  0.00    -0.350 OA 
HETATM   70  C   UNL     1     -14.027   5.245  72.379  1.00  0.00     2.079 C  
ENDBRANCH  67  68
ENDBRANCH  40  67
ENDBRANCH   2   3
TORSDOF 7
ENDMDL
MODEL        2
REMARK 921   NORMALIZED FREE ENERGY PREDICTED BY IDOCK:    6.05 KCAL/MOL
REMARK 922        TOTAL FREE ENERGY PREDICTED BY IDOCK:    8.76 KCAL/MOL
REMARK 923 INTER-LIGAND FREE ENERGY PREDICTED BY IDOCK:    8.13 KCAL/MOL
REMARK 924 INTRA-LIGAND FREE ENERGY PREDICTED BY IDOCK:    0.64 KCAL/MOL
REMARK 927      BINDING AFFINITY PREDICTED BY RF-SCORE:    0.00 PKD
ROOT
HETATM    1  C   UNL     1     -11.803  14.664  64.605  1.00  0.00    -0.459 C  
HETATM    2  O   UNL     1     -11.246  14.839  66.393  1.00  0.00    -0.336 OA 
ENDROOT
BRANCH   2   3
HETATM    3  C   UNL     1     -10.266  13.737  67.692  1.00  0.00    -0.242 C  
HETATM    4  C   UNL     1      -9.106  15.285  67.122  1.00  0.00    -0.226 C  
HETATM    5  C   UNL     1      -8.924  16.923  67.143  1.00  0.00    -0.219 C  
HETATM    6  O   UNL     1      -7.909  18.088  66.318  1.00  0.00    -0.285 OA 
HETATM    7  C   UNL     1      -6.690  18.668  67.134  1.00  0.00    -0.197 C  
HETATM    8  C   UNL     1      -5.713  19.931  67.331  1.00  0.00    -0.189 C  
HETATM    9  O   UNL     1      -7.137  18.694  68.456  1.00  0.00    -0.258 OA 
HETATM   10  C   UNL     1      -6.932  17.400  68.804  1.00  0.00    -0.236 A  
HETATM   11  C   UNL     1      -6.259  16.569  67.880  1.00  0.00    -0.148 A  
HETATM   12  C   UNL     1      -5.994  17.425  66.719  1.00  0.00    -0.186 C  
HETATM   13  C   UNL     1      -6.377  15.196  67.967  1.00  0.00    -0.158 A  
HETATM   14  O   UNL     1      -5.668  17.172  65.567  1.00  0.00     0.135 OA 
HETATM   15  C   UNL     1      -7.126  14.717  69.092  1.00  0.00    -0.143 A  
HETATM   16  C   UNL     1      -7.796  15.631  69.991  1.00  0.00     0.376 A  
HETATM   17  C   UNL     1      -7.180  13.334  69.230  1.00  0.00     0.138 A  
HETATM   18  O   UNL     1      -7.509  12.884  70.492  1.00  0.00     1.372 OA 
HETATM   19  C   UNL     1      -6.657  12.439  68.262  1.00  0.00    -0.063 A  
HETATM   20  C   UNL     1      -7.734  16.987  69.828  1.00  0.00     0.845 A  
HETATM   21  O   UNL     1      -8.616  15.317  71.039  1.00  0.00     1.257 OA 
HETATM   22  N   UNL     1      -6.714  11.055  68.483  1.00  0.00    -0.059 N  
HETATM   23  C   UNL     1      -8.581  17.970  70.581  1.00  0.00     4.858 C  
HETATM   24  H   UNL     1      -7.546  11.940  70.586  1.00  0.00     0.000 HD 
HETATM   25  H   UNL     1      -9.055  15.917  71.630  1.00  0.00     0.000 HD 
HETATM   26  C   UNL     1      -5.975  12.940  67.138  1.00  0.00     0.195 A  
HETATM   27  H   UNL     1      -6.022  10.474  68.009  1.00  0.00     0.000 HD 
HETATM   28  C   UNL     1      -7.615  10.431  69.278  1.00  0.00    -0.132 C  
HETATM   29  O   UNL     1      -7.836   6.776  74.209  1.00  0.00    -0.106 OA 
HETATM   30  C   UNL     1      -5.847  14.313  66.995  1.00  0.00     1.279 A  
HETATM   31  C   UNL     1     -11.463  13.992  69.697  1.00  0.00    -0.317 C  
HETATM   32  O   UNL     1      -5.127  14.843  65.962  1.00  0.00     3.350 OA 
HETATM   33  O   UNL     1      -8.688  10.881  69.649  1.00  0.00     0.117 OA 
HETATM   34  C   UNL     1      -7.250   9.078  69.542  1.00  0.00    -0.060 C  
HETATM   35  C   UNL     1     -10.984  12.297  69.315  1.00  0.00    -0.155 C  
HETATM   36  C   UNL     1     -11.356   6.456  71.742  1.00  0.00    -0.337 C  
HETATM   37  C   UNL     1      -7.835   8.535  70.675  1.00  0.00    -0.091 C  
HETATM   38  C   UNL     1      -6.579   8.128  68.672  1.00  0.00    -0.058 C  
HETATM   39  H   UNL     1      -4.771  14.251  65.310  1.00  0.00     0.000 HD 
HETATM   40  C   UNL     1     -11.141  10.285  70.597  1.00  0.00    -0.280 C  
HETATM   41  C   UNL     1      -7.847   7.159  70.697  1.00  0.00    -0.096 C  
HETATM   42  H   UNL     1     -11.814   7.515  74.293  1.00  0.00     0.000 HD 
HETATM   43  C   UNL     1      -8.522   6.652  71.665  1.00  0.00    -0.119 C  
HETATM   44  C   UNL     1      -8.449   5.250  72.032  1.00  0.00    -0.126 C  
HETATM   45  O   UNL     1     -11.482   6.630  74.392  1.00  0.00     1.459 OA 
HETATM   46  C   UNL     1      -8.264   5.512  73.845  1.00  0.00    -0.110 C  
HETATM   47  C   UNL     1      -9.532   3.902  71.323  1.00  0.00    -0.229 C  
HETATM   48  C   UNL     1     -10.674   8.309  71.680  1.00  0.00    -0.320 C  
HETATM   49  C   UNL     1      -8.153   3.658  73.422  1.00  0.00    -0.079 C  
HETATM   50  H   UNL     1      -7.741   6.912  75.145  1.00  0.00     0.000 HD 
HETATM   51  C   UNL     1      -9.566   5.110  73.494  1.00  0.00    -0.143 C  
HETATM   52  C   UNL     1     -10.302   7.068  73.274  1.00  0.00    -0.343 C  
BRANCH  26  53
HETATM   53  C   UNL     1      -5.259  12.055  66.179  1.00  0.00     0.771 C  
BRANCH  53  54
HETATM   54  N   UNL     1      -5.882  11.341  65.287  1.00  0.00    -0.438 NA 
HETATM   55  H   UNL     1      -5.703  11.455  64.289  1.00  0.00     0.000 HD 
BRANCH  54  56
HETATM   56  N   UNL     1      -6.778  10.442  65.748  1.00  0.00    -0.120 NA 
HETATM   57  C   UNL     1      -6.535   9.002  65.515  1.00  0.00    -0.067 C  
HETATM   58  C   UNL     1      -7.626   8.292  64.679  1.00  0.00    -0.106 C  
HETATM   59  N   UNL     1      -9.006   8.562  65.154  1.00  0.00    -0.078 NA 
HETATM   60  C   UNL     1      -8.182  10.763  66.036  1.00  0.00    -0.164 C  
HETATM   61  C   UNL     1      -9.179  10.026  65.133  1.00  0.00    -0.222 C  
BRANCH  59  62
HETATM   62  C   UNL     1      -9.243   8.002  66.502  1.00  0.00    -0.188 C  
HETATM   63  C   UNL     1      -9.026   6.488  66.575  1.00  0.00    -0.152 C  
HETATM   64  C   UNL     1     -10.833   7.145  68.093  1.00  0.00    -0.170 C  
HETATM   65  C   UNL     1     -10.038   5.952  67.582  1.00  0.00    -0.194 C  
HETATM   66  C   UNL     1     -10.665   8.217  67.034  1.00  0.00    -0.225 C  
ENDBRANCH  59  62
ENDBRANCH  54  56
ENDBRANCH  53  54
ENDBRANCH  26  53
BRANCH  40  67
HETATM   67  O   UNL     1     -12.606   9.141  71.377  1.00  0.00    -0.312 OA 
BRANCH  67  68
HETATM   68  C   UNL     1     -13.598   7.606  71.597  1.00  0.00    -0.364 C  
HETATM   69  O   UNL     1     -14.340   7.433  70.588  1.00  0.00     0.276 OA 
HETATM   70  C   UNL     1     -13.941   5.932  72.561  1.00  0.00     1.006 C  
ENDBRANCH  67  68
ENDBRANCH  40  67
ENDBRANCH   2   3
TORSDOF 7
ENDMDL
MODEL        3
REMARK 921   NORMALIZED FREE ENERGY PREDICTED BY IDOCK:   12.84 KCAL/MOL
REMARK 922        TOTAL FREE ENERGY PREDICTED BY IDOCK:   18.33 KCAL/MOL
REMARK 923 INTER-LIGAND FREE ENERGY PREDICTED BY IDOCK:   17.31 KCAL/MOL
REMARK 924 INTRA-LIGAND FREE ENERGY PREDICTED BY IDOCK:    1.01 KCAL/MOL
REMARK 927      BINDING AFFINITY PREDICTED BY RF-SCORE:    0.00 PKD
ROOT
HETATM    1  C   UNL     1     -12.137   9.650  62.849  1.00  0.00    10.265 C  
HETATM    2  O   UNL     1     -11.459   9.979  64.572  1.00  0.00     2.867 OA 
ENDROOT
BRANCH   2   3
HETATM    3  C   UNL     1     -10.085  11.141  65.362  1.00  0.00    -0.264 C  
HETATM    4  C   UNL     1      -9.413   9.240  65.331  1.00  0.00    -0.281 C  
HETATM    5  C   UNL     1      -8.958   7.978  64.374  1.00  0.00     0.677 C  
HETATM    6  O   UNL     1      -8.639   6.272  64.607  1.00  0.00    -0.012 OA 
HETATM    7  C   UNL     1      -7.125   5.835  64.659  1.00  0.00    -0.057 C  
HETATM    8  C   UNL     1      -6.083   4.643  64.374  1.00  0.00    -0.022 C  
HETATM    9  O   UNL     1      -6.477   6.727  63.803  1.00  0.00    -0.040 OA 
HETATM   10  C   UNL     1      -6.340   7.794  64.627  1.00  0.00    -0.045 A  
HETATM   11  C   UNL     1      -6.708   7.631  65.981  1.00  0.00    -0.046 A  
HETATM   12  C   UNL     1      -7.193   6.250  66.082  1.00  0.00    -0.075 C  
HETATM   13  C   UNL     1      -6.991   8.734  66.763  1.00  0.00    -0.080 A  
HETATM   14  O   UNL     1      -7.846   5.667  66.936  1.00  0.00    -0.100 OA 
HETATM   15  C   UNL     1      -6.784  10.002  66.126  1.00  0.00    -0.100 A  
HETATM   16  C   UNL     1      -6.415  10.089  64.730  1.00  0.00    -0.127 A  
HETATM   17  C   UNL     1      -6.989  11.117  66.932  1.00  0.00    -0.131 A  
HETATM   18  O   UNL     1      -6.396  12.279  66.485  1.00  0.00    -0.458 OA 
HETATM   19  C   UNL     1      -7.501  11.033  68.252  1.00  0.00    -0.092 A  
HETATM   20  C   UNL     1      -6.228   8.977  63.956  1.00  0.00    -0.075 A  
HETATM   21  O   UNL     1      -6.279  11.220  63.973  1.00  0.00     0.126 OA 
HETATM   22  N   UNL     1      -7.649  12.196  69.021  1.00  0.00    -0.323 N  
HETATM   23  C   UNL     1      -6.070   9.000  62.464  1.00  0.00    -0.094 C  
HETATM   24  H   UNL     1      -6.536  13.040  67.035  1.00  0.00     0.000 HD 
HETATM   25  H   UNL     1      -6.037  11.277  63.057  1.00  0.00     0.000 HD 
HETATM   26  C   UNL     1      -7.749   9.776  68.831  1.00  0.00    -0.082 A  
HETATM   27  H   UNL     1      -7.635  12.094  70.036  1.00  0.00     0.000 HD 
HETATM   28  C   UNL     1      -7.809  13.445  68.522  1.00  0.00    -0.115 C  
HETATM   29  O   UNL     1      -5.142  18.975  68.682  1.00  0.00    -0.189 OA 
HETATM   30  C   UNL     1      -7.499   8.637  68.080  1.00  0.00    -0.097 A  
HETATM   31  C   UNL     1      -9.409  12.533  63.595  1.00  0.00     0.909 C  
HETATM   32  O   UNL     1      -7.650   7.394  68.626  1.00  0.00    -0.105 OA 
HETATM   33  O   UNL     1      -8.178  13.732  67.394  1.00  0.00    -0.171 OA 
HETATM   34  C   UNL     1      -7.637  14.448  69.521  1.00  0.00     0.083 C  
HETATM   35  C   UNL     1      -9.688  13.383  65.160  1.00  0.00     0.036 C  
HETATM   36  C   UNL     1      -9.334  19.177  67.698  1.00  0.00    -0.357 C  
HETATM   37  C   UNL     1      -7.325  15.704  69.027  1.00  0.00    -0.169 C  
HETATM   38  C   UNL     1      -7.991  14.403  70.929  1.00  0.00     2.761 C  
HETATM   39  H   UNL     1      -7.991   7.328  69.511  1.00  0.00     0.000 HD 
HETATM   40  C   UNL     1      -9.267  15.639  65.829  1.00  0.00    -0.211 C  
HETATM   41  C   UNL     1      -7.585  16.734  69.904  1.00  0.00     0.930 C  
HETATM   42  H   UNL     1      -7.616  20.001  65.647  1.00  0.00     0.000 HD 
HETATM   43  C   UNL     1      -7.445  17.906  69.398  1.00  0.00     0.141 C  
HETATM   44  C   UNL     1      -7.404  19.114  70.201  1.00  0.00     0.660 C  
HETATM   45  O   UNL     1      -7.492  20.580  66.391  1.00  0.00    -0.233 OA 
HETATM   46  C   UNL     1      -5.935  19.865  69.385  1.00  0.00    -0.290 C  
HETATM   47  C   UNL     1      -8.900  20.123  70.689  1.00  0.00     1.732 C  
HETATM   48  C   UNL     1      -8.561  17.519  66.952  1.00  0.00    -0.267 C  
HETATM   49  C   UNL     1      -6.521  20.949  70.837  1.00  0.00     1.269 C  
HETATM   50  H   UNL     1      -4.384  19.363  68.260  1.00  0.00     0.000 HD 
HETATM   51  C   UNL     1      -7.139  20.462  68.969  1.00  0.00     0.033 C  
HETATM   52  C   UNL     1      -7.412  19.182  67.324  1.00  0.00    -0.246 C  
BRANCH  26  53
HETATM   53  C   UNL     1      -8.124   9.615  70.262  1.00  0.00    -0.183 C  
BRANCH  53  54
HETATM   54  N   UNL     1      -7.370   8.987  71.117  1.00  0.00    -0.163 NA 
HETATM   55  H   UNL     1      -6.483   9.378  71.437  1.00  0.00     0.000 HD 
BRANCH  54  56
HETATM   56  N   UNL     1      -7.820   7.794  71.559  1.00  0.00    -0.084 NA 
HETATM   57  C   UNL     1      -9.190   7.702  72.109  1.00  0.00    -0.141 C  
HETATM   58  C   UNL     1      -9.263   7.247  73.585  1.00  0.00    -0.219 C  
HETATM   59  N   UNL     1      -8.458   6.033  73.872  1.00  0.00    -0.117 NA 
HETATM   60  C   UNL     1      -6.941   6.697  71.985  1.00  0.00    -0.072 C  
HETATM   61  C   UNL     1      -7.072   6.345  73.472  1.00  0.00    -0.082 C  
BRANCH  59  62
HETATM   62  C   UNL     1      -8.979   4.847  73.162  1.00  0.00    -0.111 C  
HETATM   63  C   UNL     1     -10.506   4.738  73.205  1.00  0.00    -0.258 C  
HETATM   64  C   UNL     1      -9.510   2.500  73.248  1.00  0.00    -0.118 C  
HETATM   65  C   UNL     1     -10.834   3.250  73.263  1.00  0.00    -0.283 C  
HETATM   66  C   UNL     1      -8.478   3.508  73.717  1.00  0.00    -0.082 C  
ENDBRANCH  59  62
ENDBRANCH  54  56
ENDBRANCH  53  54
ENDBRANCH  26  53
BRANCH  40  67
HETATM   67  O   UNL     1      -9.916  17.477  65.316  1.00  0.00    -0.248 OA 
BRANCH  67  68
HETATM   68  C   UNL     1     -10.697  19.119  65.600  1.00  0.00    -0.220 C  
HETATM   69  O   UNL     1     -10.983  19.651  64.489  1.00  0.00     0.368 OA 
HETATM   70  C   UNL     1     -11.526  20.416  66.818  1.00  0.00     1.788 C  
ENDBRANCH  67  68
ENDBRANCH  40  67
ENDBRANCH   2   3
TORSDOF 7
ENDMDL
MODEL        4
REMARK 921   NORMALIZED FREE ENERGY PREDICTED BY IDOCK:   31.37 KCAL/MOL
REMARK 922        TOTAL FREE ENERGY PREDICTED BY IDOCK:   44.44 KCAL/MOL
REMARK 923 INTER-LIGAND FREE ENERGY PREDICTED BY IDOCK:   37.56 KCAL/MOL
REMARK 924 INTRA-LIGAND FREE ENERGY PREDICTED BY IDOCK:    6.88 KCAL/MOL
REMARK 927      BINDING AFFINITY PREDICTED BY RF-SCORE:    0.00 PKD
ROOT
HETATM    1  C   UNL     1     -14.262  12.551  65.650  1.00  0.00     7.668 C  
HETATM    2  O   UNL     1     -12.703  13.125  66.531  1.00  0.00    -0.199 OA 
ENDROOT
BRANCH   2   3
HETATM    3  C   UNL     1     -11.461  12.377  67.858  1.00  0.00    -0.328 C  
HETATM    4  C   UNL     1     -11.216  14.377  67.769  1.00  0.00    -0.316 C  
HETATM    5  C   UNL     1     -11.917  15.843  68.046  1.00  0.00     0.251 C  
HETATM    6  O   UNL     1     -11.564  17.506  67.629  1.00  0.00     0.458 OA 
HETATM    7  C   UNL     1     -10.936  18.403  68.763  1.00  0.00     0.841 C  
HETATM    8  C   UNL     1     -10.792  19.899  69.338  1.00  0.00     0.982 C  
HETATM    9  O   UNL     1     -11.490  17.908  69.945  1.00  0.00     2.140 OA 
HETATM   10  C   UNL     1     -10.686  16.837  70.156  1.00  0.00     0.026 A  
HETATM   11  C   UNL     1      -9.572  16.673  69.303  1.00  0.00    -0.148 A  
HETATM   12  C   UNL     1      -9.650  17.788  68.354  1.00  0.00    -0.323 C  
HETATM   13  C   UNL     1      -8.967  15.437  69.180  1.00  0.00    -0.245 A  
HETATM   14  O   UNL     1      -9.102  17.994  67.280  1.00  0.00    -0.250 OA 
HETATM   15  C   UNL     1      -9.490  14.414  70.037  1.00  0.00     1.031 A  
HETATM   16  C   UNL     1     -10.642  14.655  70.877  1.00  0.00     0.691 A  
HETATM   17  C   UNL     1      -8.833  13.189  69.976  1.00  0.00     3.351 A  
HETATM   18  O   UNL     1      -9.032  12.363  71.063  1.00  0.00     8.034 OA 
HETATM   19  C   UNL     1      -7.806  12.908  69.039  1.00  0.00     0.254 A  
HETATM   20  C   UNL     1     -11.275  15.866  70.913  1.00  0.00    -0.389 A  
HETATM   21  O   UNL     1     -11.301  13.753  71.667  1.00  0.00     0.634 OA 
HETATM   22  N   UNL     1      -7.161  11.663  69.057  1.00  0.00    -0.173 N  
HETATM   23  C   UNL     1     -12.596  16.112  71.582  1.00  0.00    -0.174 C  
HETATM   24  H   UNL     1      -8.584  11.527  71.021  1.00  0.00     0.000 HD 
HETATM   25  H   UNL     1     -12.057  13.912  72.219  1.00  0.00     0.000 HD 
HETATM   26  C   UNL     1      -7.352  13.917  68.171  1.00  0.00    -0.123 A  
HETATM   27  H   UNL     1      -6.216  11.616  68.676  1.00  0.00     0.000 HD 
HETATM   28  C   UNL     1      -7.696  10.517  69.542  1.00  0.00    -0.136 C  
HETATM   29  O   UNL     1      -6.588   6.207  73.775  1.00  0.00    -0.072 OA 
HETATM   30  C   UNL     1      -7.941  15.171  68.242  1.00  0.00    -0.129 A  
HETATM   31  C   UNL     1     -12.852  11.555  69.563  1.00  0.00     0.587 C  
HETATM   32  O   UNL     1      -7.481  16.203  67.474  1.00  0.00    -0.131 OA 
HETATM   33  O   UNL     1      -8.882  10.291  69.723  1.00  0.00    -0.160 OA 
HETATM   34  C   UNL     1      -6.716   9.493  69.700  1.00  0.00    -0.054 C  
HETATM   35  C   UNL     1     -11.518  10.444  69.077  1.00  0.00    -0.258 C  
HETATM   36  C   UNL     1      -9.092   4.784  70.568  1.00  0.00    -0.170 C  
HETATM   37  C   UNL     1      -7.067   8.494  70.594  1.00  0.00    -0.047 C  
HETATM   38  C   UNL     1      -5.547   9.215  68.883  1.00  0.00    -0.037 C  
HETATM   39  H   UNL     1      -6.791  16.024  66.845  1.00  0.00     0.000 HD 
HETATM   40  C   UNL     1     -10.762   8.379  70.015  1.00  0.00    -0.236 C  
HETATM   41  C   UNL     1      -6.364   7.321  70.430  1.00  0.00    -0.035 C  
HETATM   42  H   UNL     1     -10.344   4.876  73.070  1.00  0.00     0.000 HD 
HETATM   43  C   UNL     1      -6.790   6.345  71.149  1.00  0.00    -0.067 C  
HETATM   44  C   UNL     1      -6.044   5.115  71.335  1.00  0.00    -0.029 C  
HETATM   45  O   UNL     1      -9.616   4.268  73.123  1.00  0.00    -0.121 OA 
HETATM   46  C   UNL     1      -6.247   5.014  73.162  1.00  0.00    -0.038 C  
HETATM   47  C   UNL     1      -6.170   3.612  70.231  1.00  0.00    -0.023 C  
HETATM   48  C   UNL     1      -9.473   6.693  70.904  1.00  0.00    -0.169 C  
HETATM   49  C   UNL     1      -5.137   3.601  72.533  1.00  0.00     0.000 C  
HETATM   50  H   UNL     1      -6.694   6.155  74.718  1.00  0.00     0.000 HD 
HETATM   51  C   UNL     1      -7.095   4.122  72.481  1.00  0.00    -0.061 C  
HETATM   52  C   UNL     1      -8.709   5.465  72.363  1.00  0.00    -0.125 C  
BRANCH  26  53
HETATM   53  C   UNL     1      -6.169  13.737  67.286  1.00  0.00     0.391 C  
BRANCH  53  54
HETATM   54  N   UNL     1      -5.594  12.582  67.112  1.00  0.00    -0.322 NA 
HETATM   55  H   UNL     1      -4.664  12.386  67.483  1.00  0.00     0.000 HD 
BRANCH  54  56
HETATM   56  N   UNL     1      -6.291  11.658  66.417  1.00  0.00    -0.011 NA 
HETATM   57  C   UNL     1      -6.412  11.803  64.950  1.00  0.00     3.084 C  
HETATM   58  C   UNL     1      -7.863  11.954  64.436  1.00  0.00     2.740 C  
HETATM   59  N   UNL     1      -8.795  10.934  64.981  1.00  0.00    -0.176 NA 
HETATM   60  C   UNL     1      -7.324  10.798  67.011  1.00  0.00    -0.110 C  
HETATM   61  C   UNL     1      -8.730  11.049  66.450  1.00  0.00    -0.173 C  
BRANCH  59  62
HETATM   62  C   UNL     1      -8.449   9.573  64.522  1.00  0.00    -0.181 C  
HETATM   63  C   UNL     1      -9.636   8.605  64.551  1.00  0.00     1.289 C  
HETATM   64  C   UNL     1      -7.568   7.404  65.082  1.00  0.00    -0.104 C  
HETATM   65  C   UNL     1      -9.070   7.235  64.911  1.00  0.00     0.761 C  
HETATM   66  C   UNL     1      -7.363   8.882  65.354  1.00  0.00    -0.085 C  
ENDBRANCH  59  62
ENDBRANCH  54  56
ENDBRANCH  53  54
ENDBRANCH  26  53
BRANCH  40  67
HETATM   67  O   UNL     1     -11.500   6.525  70.292  1.00  0.00    -0.359 OA 
BRANCH  67  68
HETATM   68  C   UNL     1     -12.126   5.098  71.273  1.00  0.00     2.415 C  
HETATM   69  O   UNL     1     -13.359   5.253  71.508  1.00  0.00     3.013 OA 
HETATM   70  C   UNL     1     -11.871   3.287  71.985  1.00  0.00     3.205 C  
ENDBRANCH  67  68
ENDBRANCH  40  67
ENDBRANCH   2   3
TORSDOF 7
ENDMDL
MODEL        5
REMARK 921   NORMALIZED FREE ENERGY PREDICTED BY IDOCK:   47.14 KCAL/MOL
REMARK 922        TOTAL FREE ENERGY PREDICTED BY IDOCK:   66.66 KCAL/MOL
REMARK 923 INTER-LIGAND FREE ENERGY PREDICTED BY IDOCK:   46.42 KCAL/MOL
REMARK 924 INTRA-LIGAND FREE ENERGY PREDICTED BY IDOCK:   20.24 KCAL/MOL
REMARK 927      BINDING AFFINITY PREDICTED BY RF-SCORE:    0.00 PKD
ROOT
HETATM    1  C   UNL     1     -14.264  12.551  65.651  1.00  0.00     7.668 C  
HETATM    2  O   UNL     1     -12.716  13.116  66.557  1.00  0.00    -0.199 OA 
ENDROOT
BRANCH   2   3
HETATM    3  C   UNL     1     -11.487  12.352  67.886  1.00  0.00    -0.328 C  
HETATM    4  C   UNL     1     -11.261  14.355  67.844  1.00  0.00    -0.304 C  
HETATM    5  C   UNL     1     -11.980  15.807  68.142  1.00  0.00     0.110 C  
HETATM    6  O   UNL     1     -11.638  17.483  67.765  1.00  0.00     0.425 OA 
HETATM    7  C   UNL     1     -11.037  18.361  68.928  1.00  0.00     1.320 C  
HETATM    8  C   UNL     1     -10.917  19.846  69.537  1.00  0.00     1.456 C  
HETATM    9  O   UNL     1     -11.604  17.835  70.090  1.00  0.00     2.361 OA 
HETATM   10  C   UNL     1     -10.792  16.768  70.291  1.00  0.00     0.083 A  
HETATM   11  C   UNL     1      -9.663  16.634  69.451  1.00  0.00    -0.084 A  
HETATM   12  C   UNL     1      -9.739  17.768  68.525  1.00  0.00    -0.343 C  
HETATM   13  C   UNL     1      -9.044  15.407  69.311  1.00  0.00    -0.260 A  
HETATM   14  O   UNL     1      -9.176  18.003  67.464  1.00  0.00    -0.251 OA 
HETATM   15  C   UNL     1      -9.569  14.360  70.138  1.00  0.00     1.183 A  
HETATM   16  C   UNL     1     -10.736  14.572  70.966  1.00  0.00     0.881 A  
HETATM   17  C   UNL     1      -8.899  13.143  70.060  1.00  0.00     3.351 A  
HETATM   18  O   UNL     1      -9.106  12.292  71.126  1.00  0.00     8.848 OA 
HETATM   19  C   UNL     1      -7.855  12.893  69.133  1.00  0.00     0.393 A  
HETATM   20  C   UNL     1     -11.382  15.775  71.018  1.00  0.00    -0.437 A  
HETATM   21  O   UNL     1     -11.397  13.647  71.725  1.00  0.00     1.053 OA 
HETATM   22  N   UNL     1      -7.198  11.654  69.135  1.00  0.00    -0.241 N  
HETATM   23  C   UNL     1     -12.715  15.993  71.672  1.00  0.00    -0.300 C  
HETATM   24  H   UNL     1      -8.649  11.462  71.073  1.00  0.00     0.000 HD 
HETATM   25  H   UNL     1     -12.164  13.785  72.269  1.00  0.00     0.000 HD 
HETATM   26  C   UNL     1      -7.398  13.925  68.294  1.00  0.00    -0.117 A  
HETATM   27  H   UNL     1      -6.247  11.625  68.768  1.00  0.00     0.000 HD 
HETATM   28  C   UNL     1      -7.728  10.493  69.587  1.00  0.00    -0.110 C  
HETATM   29  O   UNL     1      -6.640   6.103  73.743  1.00  0.00    -0.072 OA 
HETATM   30  C   UNL     1      -8.001  15.171  68.384  1.00  0.00    -0.136 A  
HETATM   31  C   UNL     1     -12.894  11.479  69.551  1.00  0.00     0.587 C  
HETATM   32  O   UNL     1      -7.540  16.224  67.645  1.00  0.00    -0.130 OA 
HETATM   33  O   UNL     1      -8.915  10.251  69.744  1.00  0.00    -0.168 OA 
HETATM   34  C   UNL     1      -6.740   9.476  69.737  1.00  0.00    -0.057 C  
HETATM   35  C   UNL     1     -11.542  10.392  69.062  1.00  0.00    -0.220 C  
HETATM   36  C   UNL     1      -9.081   4.726  70.468  1.00  0.00    -0.170 C  
HETATM   37  C   UNL     1      -7.094   8.454  70.604  1.00  0.00    -0.044 C  
HETATM   38  C   UNL     1      -5.557   9.227  68.933  1.00  0.00    -0.037 C  
HETATM   39  H   UNL     1      -6.840  16.066  67.023  1.00  0.00     0.000 HD 
HETATM   40  C   UNL     1     -10.779   8.315  69.967  1.00  0.00    -0.239 C  
HETATM   41  C   UNL     1      -6.377   7.292  70.426  1.00  0.00    -0.035 C  
HETATM   42  H   UNL     1     -10.371   4.750  72.952  1.00  0.00     0.000 HD 
HETATM   43  C   UNL     1      -6.804   6.297  71.117  1.00  0.00    -0.067 C  
HETATM   44  C   UNL     1      -6.048   5.070  71.288  1.00  0.00    -0.022 C  
HETATM   45  O   UNL     1      -9.637   4.149  73.004  1.00  0.00    -0.122 OA 
HETATM   46  C   UNL     1      -6.278   4.927  73.109  1.00  0.00    -0.038 C  
HETATM   47  C   UNL     1      -6.142   3.590  70.151  1.00  0.00    -0.023 C  
HETATM   48  C   UNL     1      -9.486   6.623  70.839  1.00  0.00    -0.169 C  
HETATM   49  C   UNL     1      -5.144   3.539  72.467  1.00  0.00     0.000 C  
HETATM   50  H   UNL     1      -6.759   6.030  74.683  1.00  0.00     0.000 HD 
HETATM   51  C   UNL     1      -7.106   4.042  72.396  1.00  0.00    -0.056 C  
HETATM   52  C   UNL     1      -8.731   5.371  72.283  1.00  0.00    -0.129 C  
BRANCH  26  53
HETATM   53  C   UNL     1      -6.200  13.776  67.424  1.00  0.00     0.151 C  
BRANCH  53  54
HETATM   54  N   UNL     1      -6.182  14.171  66.184  1.00  0.00     3.778 NA 
HETATM   55  H   UNL     1      -6.152  13.506  65.411  1.00  0.00     0.000 HD 
BRANCH  54  56
HETATM   56  N   UNL     1      -6.206  15.504  65.973  1.00  0.00     3.101 NA 
HETATM   57  C   UNL     1      -5.604  16.402  66.982  1.00  0.00    -0.012 C  
HETATM   58  C   UNL     1      -6.592  17.407  67.621  1.00  0.00    -0.153 C  
HETATM   59  N   UNL     1      -7.412  18.145  66.627  1.00  0.00    -0.213 NA 
HETATM   60  C   UNL     1      -7.172  16.174  65.091  1.00  0.00     6.164 C  
HETATM   61  C   UNL     1      -8.120  17.127  65.830  1.00  0.00     0.273 C  
BRANCH  59  62
HETATM   62  C   UNL     1      -6.585  19.028  65.778  1.00  0.00    -0.255 C  
HETATM   63  C   UNL     1      -7.331  20.274  65.293  1.00  0.00    -0.067 C  
HETATM   64  C   UNL     1      -5.752  19.529  63.575  1.00  0.00    -0.313 C  
HETATM   65  C   UNL     1      -6.802  20.582  63.897  1.00  0.00     0.297 C  
HETATM   66  C   UNL     1      -6.062  18.366  64.499  1.00  0.00     0.367 C  
ENDBRANCH  59  62
ENDBRANCH  54  56
ENDBRANCH  53  54
ENDBRANCH  26  53
BRANCH  40  67
HETATM   67  O   UNL     1     -11.502   6.448  70.193  1.00  0.00    -0.385 OA 
BRANCH  67  68
HETATM   68  C   UNL     1     -12.129   4.994  71.133  1.00  0.00     3.178 C  
HETATM   69  O   UNL     1     -11.304   4.041  71.039  1.00  0.00     2.245 OA 
HETATM   70  C   UNL     1     -13.388   4.226  72.427  1.00  0.00     3.455 C  
ENDBRANCH  67  68
ENDBRANCH  40  67
ENDBRANCH   2   3
TORSDOF 7
ENDMDL
MODEL        6
REMARK 921   NORMALIZED FREE ENERGY PREDICTED BY IDOCK:   65.80 KCAL/MOL
REMARK 922        TOTAL FREE ENERGY PREDICTED BY IDOCK:   92.95 KCAL/MOL
REMARK 923 INTER-LIGAND FREE ENERGY PREDICTED BY IDOCK:   76.96 KCAL/MOL
REMARK 924 INTRA-LIGAND FREE ENERGY PREDICTED BY IDOCK:   15.99 KCAL/MOL
REMARK 927      BINDING AFFINITY PREDICTED BY RF-SCORE:    0.00 PKD
ROOT
HETATM    1  C   UNL     1     -13.760  14.975  66.692  1.00  0.00     5.202 C  
HETATM    2  O   UNL     1     -12.620  14.696  68.162  1.00  0.00     0.132 OA 
ENDROOT
BRANCH   2   3
HETATM    3  C   UNL     1     -11.125  13.496  68.595  1.00  0.00    -0.269 C  
HETATM    4  C   UNL     1     -10.447  15.392  68.480  1.00  0.00    -0.234 C  
HETATM    5  C   UNL     1     -10.504  16.895  69.153  1.00  0.00    -0.335 C  
HETATM    6  O   UNL     1      -9.990  18.504  68.688  1.00  0.00    -0.359 OA 
HETATM    7  C   UNL     1      -8.669  19.046  69.358  1.00  0.00     0.227 C  
HETATM    8  C   UNL     1      -7.873  20.360  69.836  1.00  0.00     1.074 C  
HETATM    9  O   UNL     1      -8.663  18.470  70.629  1.00  0.00     3.271 OA 
HETATM   10  C   UNL     1      -8.172  17.241  70.334  1.00  0.00     3.489 A  
HETATM   11  C   UNL     1      -7.724  17.013  69.013  1.00  0.00    -0.180 A  
HETATM   12  C   UNL     1      -7.974  18.270  68.301  1.00  0.00    -0.300 C  
HETATM   13  C   UNL     1      -7.608  15.723  68.532  1.00  0.00    -0.138 A  
HETATM   14  O   UNL     1      -8.007  18.549  67.111  1.00  0.00    -0.235 OA 
HETATM   15  C   UNL     1      -7.875  14.689  69.488  1.00  0.00     0.028 A  
HETATM   16  C   UNL     1      -8.341  15.002  70.822  1.00  0.00     2.072 A  
HETATM   17  C   UNL     1      -7.683  13.389  69.033  1.00  0.00     0.146 A  
HETATM   18  O   UNL     1      -7.516  12.441  70.021  1.00  0.00     0.348 OA 
HETATM   19  C   UNL     1      -7.378  13.079  67.683  1.00  0.00    -0.147 A  
HETATM   20  C   UNL     1      -8.530  16.289  71.243  1.00  0.00     5.947 A  
HETATM   21  O   UNL     1      -8.723  14.124  71.798  1.00  0.00     4.981 OA 
HETATM   22  N   UNL     1      -7.161  11.748  67.300  1.00  0.00    -0.132 N  
HETATM   23  C   UNL     1      -9.220  16.669  72.520  1.00  0.00    12.452 C  
HETATM   24  H   UNL     1      -7.385  11.554  69.711  1.00  0.00     0.000 HD 
HETATM   25  H   UNL     1      -9.029  14.329  72.673  1.00  0.00     0.000 HD 
HETATM   26  C   UNL     1      -7.177  14.115  66.753  1.00  0.00     1.147 A  
HETATM   27  H   UNL     1      -6.585  11.583  66.475  1.00  0.00     0.000 HD 
HETATM   28  C   UNL     1      -7.657  10.663  67.942  1.00  0.00    -0.091 C  
HETATM   29  O   UNL     1      -5.740   5.545  70.743  1.00  0.00    -0.015 OA 
HETATM   30  C   UNL     1      -7.301  15.428  67.183  1.00  0.00    -0.168 A  
HETATM   31  C   UNL     1     -11.630  12.679  70.737  1.00  0.00     0.676 C  
HETATM   32  O   UNL     1      -7.039  16.467  66.335  1.00  0.00    -0.184 OA 
HETATM   33  O   UNL     1      -8.604  10.648  68.713  1.00  0.00    -0.135 OA 
HETATM   34  C   UNL     1      -7.036   9.455  67.509  1.00  0.00    -0.077 C  
HETATM   35  C   UNL     1     -11.063  11.429  69.569  1.00  0.00    -0.274 C  
HETATM   36  C   UNL     1      -9.785   5.230  69.289  1.00  0.00    -0.235 C  
HETATM   37  C   UNL     1      -7.137   8.403  68.407  1.00  0.00    -0.080 C  
HETATM   38  C   UNL     1      -6.554   9.099  66.186  1.00  0.00    -0.069 C  
HETATM   39  H   UNL     1      -6.832  16.269  65.429  1.00  0.00     0.000 HD 
HETATM   40  C   UNL     1     -10.505   9.124  69.868  1.00  0.00    -0.223 C  
HETATM   41  C   UNL     1      -6.944   7.162  67.843  1.00  0.00    -0.080 C  
HETATM   42  H   UNL     1      -9.539   5.126  72.075  1.00  0.00     0.000 HD 
HETATM   43  C   UNL     1      -7.189   6.179  68.633  1.00  0.00    -0.084 C  
HETATM   44  C   UNL     1      -6.800   4.812  68.338  1.00  0.00    -0.055 C  
HETATM   45  O   UNL     1      -9.069   4.387  71.707  1.00  0.00    -0.121 OA 
HETATM   46  C   UNL     1      -6.077   4.435  69.989  1.00  0.00    -0.019 C  
HETATM   47  C   UNL     1      -7.849   3.581  67.403  1.00  0.00    -0.078 C  
HETATM   48  C   UNL     1      -9.434   7.087  69.862  1.00  0.00    -0.157 C  
HETATM   49  C   UNL     1      -5.845   2.963  68.804  1.00  0.00    -0.023 C  
HETATM   50  H   UNL     1      -5.368   5.350  71.596  1.00  0.00     0.000 HD 
HETATM   51  C   UNL     1      -7.351   3.861  69.821  1.00  0.00    -0.048 C  
HETATM   52  C   UNL     1      -8.391   5.496  70.637  1.00  0.00    -0.117 C  
BRANCH  26  53
HETATM   53  C   UNL     1      -6.692  13.863  65.369  1.00  0.00    11.022 C  
BRANCH  53  54
HETATM   54  N   UNL     1      -7.495  13.562  64.390  1.00  0.00    11.664 NA 
HETATM   55  H   UNL     1      -7.779  14.256  63.698  1.00  0.00     0.000 HD 
BRANCH  54  56
HETATM   56  N   UNL     1      -7.932  12.286  64.335  1.00  0.00     3.342 NA 
HETATM   57  C   UNL     1      -7.723  11.405  65.504  1.00  0.00     0.542 C  
HETATM   58  C   UNL     1      -6.854  10.156  65.221  1.00  0.00    -0.137 C  
HETATM   59  N   UNL     1      -7.275   9.401  64.015  1.00  0.00    -0.099 NA 
HETATM   60  C   UNL     1      -8.165  11.556  63.082  1.00  0.00     0.712 C  
HETATM   61  C   UNL     1      -7.233  10.353  62.889  1.00  0.00    -0.102 C  
BRANCH  59  62
HETATM   62  C   UNL     1      -8.618   8.807  64.179  1.00  0.00    -0.061 C  
HETATM   63  C   UNL     1      -9.439   9.463  65.293  1.00  0.00    -0.296 C  
HETATM   64  C   UNL     1      -9.965   7.073  65.168  1.00  0.00     2.351 C  
HETATM   65  C   UNL     1     -10.285   8.359  65.917  1.00  0.00     0.628 C  
HETATM   66  C   UNL     1      -8.610   7.314  64.529  1.00  0.00     0.301 C  
ENDBRANCH  59  62
ENDBRANCH  54  56
ENDBRANCH  53  54
ENDBRANCH  26  53
BRANCH  40  67
HETATM   67  O   UNL     1     -11.458   7.432  70.410  1.00  0.00    -0.279 OA 
BRANCH  67  68
HETATM   68  C   UNL     1     -12.880   6.423  70.998  1.00  0.00     0.514 C  
HETATM   69  O   UNL     1     -13.253   6.837  72.133  1.00  0.00    -0.146 OA 
HETATM   70  C   UNL     1     -14.292   5.109  70.637  1.00  0.00    10.474 C  
ENDBRANCH  67  68
ENDBRANCH  40  67
ENDBRANCH   2   3
TORSDOF 7
ENDMDL
MODEL        7
REMARK 921   NORMALIZED FREE ENERGY PREDICTED BY IDOCK:   80.18 KCAL/MOL
REMARK 922        TOTAL FREE ENERGY PREDICTED BY IDOCK:  113.22 KCAL/MOL
REMARK 923 INTER-LIGAND FREE ENERGY PREDICTED BY IDOCK:   78.79 KCAL/MOL
REMARK 924 INTRA-LIGAND FREE ENERGY PREDICTED BY IDOCK:   34.44 KCAL/MOL
REMARK 927      BINDING AFFINITY PREDICTED BY RF-SCORE:    0.00 PKD
ROOT
HETATM    1  C   UNL     1     -12.182   8.964  62.725  1.00  0.00    17.982 C  
HETATM    2  O   UNL     1     -11.535   9.351  64.449  1.00  0.00     6.388 OA 
ENDROOT
BRANCH   2   3
HETATM    3  C   UNL     1     -10.185  10.550  65.225  1.00  0.00    -0.282 C  
HETATM    4  C   UNL     1      -9.554   8.641  65.386  1.00  0.00     0.212 C  
HETATM    5  C   UNL     1      -9.071   7.299  64.561  1.00  0.00     1.138 C  
HETATM    6  O   UNL     1      -8.804   5.612  64.947  1.00  0.00    -0.095 OA 
HETATM    7  C   UNL     1      -7.305   5.155  65.125  1.00  0.00    -0.068 C  
HETATM    8  C   UNL     1      -6.274   3.926  64.999  1.00  0.00    -0.024 C  
HETATM    9  O   UNL     1      -6.588   5.964  64.241  1.00  0.00    -0.036 OA 
HETATM   10  C   UNL     1      -6.477   7.092  64.985  1.00  0.00    -0.043 A  
HETATM   11  C   UNL     1      -6.928   7.044  66.323  1.00  0.00    -0.069 A  
HETATM   12  C   UNL     1      -7.447   5.685  66.503  1.00  0.00    -0.087 C  
HETATM   13  C   UNL     1      -7.231   8.212  66.996  1.00  0.00    -0.083 A  
HETATM   14  O   UNL     1      -8.161   5.184  67.361  1.00  0.00    -0.106 OA 
HETATM   15  C   UNL     1      -6.960   9.420  66.274  1.00  0.00    -0.087 A  
HETATM   16  C   UNL     1      -6.508   9.388  64.900  1.00  0.00    -0.078 A  
HETATM   17  C   UNL     1      -7.188  10.600  66.975  1.00  0.00    -0.101 A  
HETATM   18  O   UNL     1      -6.544  11.712  66.474  1.00  0.00    -0.317 OA 
HETATM   19  C   UNL     1      -7.778  10.632  68.264  1.00  0.00    -0.107 A  
HETATM   20  C   UNL     1      -6.300   8.215  64.230  1.00  0.00    -0.065 A  
HETATM   21  O   UNL     1      -6.303  10.452  64.066  1.00  0.00    -0.255 OA 
HETATM   22  N   UNL     1      -7.946  11.855  68.929  1.00  0.00    -0.338 N  
HETATM   23  C   UNL     1      -6.054   8.115  62.753  1.00  0.00    -0.082 C  
HETATM   24  H   UNL     1      -6.700  12.517  66.952  1.00  0.00     0.000 HD 
HETATM   25  H   UNL     1      -6.007  10.432  63.164  1.00  0.00     0.000 HD 
HETATM   26  C   UNL     1      -8.086   9.429  68.926  1.00  0.00    -0.103 A  
HETATM   27  H   UNL     1      -7.993  11.835  69.948  1.00  0.00     0.000 HD 
HETATM   28  C   UNL     1      -8.049  13.062  68.323  1.00  0.00    -0.151 C  
HETATM   29  O   UNL     1      -5.276  18.541  68.204  1.00  0.00    -0.168 OA 
HETATM   30  C   UNL     1      -7.817   8.229  68.284  1.00  0.00    -0.118 A  
HETATM   31  C   UNL     1      -9.377  11.783  63.398  1.00  0.00    -0.075 C  
HETATM   32  O   UNL     1      -8.028   7.037  68.917  1.00  0.00    -0.116 OA 
HETATM   33  O   UNL     1      -8.345  13.263  67.156  1.00  0.00    -0.180 OA 
HETATM   34  C   UNL     1      -7.913  14.139  69.248  1.00  0.00     0.187 C  
HETATM   35  C   UNL     1      -9.728  12.761  64.870  1.00  0.00     0.057 C  
HETATM   36  C   UNL     1      -9.398  18.735  66.957  1.00  0.00    -0.313 C  
HETATM   37  C   UNL     1      -7.546  15.346  68.675  1.00  0.00    -0.129 C  
HETATM   38  C   UNL     1      -8.350  14.214  70.632  1.00  0.00     3.128 C  
HETATM   39  H   UNL     1      -8.421   7.049  69.782  1.00  0.00     0.000 HD 
HETATM   40  C   UNL     1      -9.298  15.057  65.382  1.00  0.00     0.284 C  
HETATM   41  C   UNL     1      -7.834  16.447  69.450  1.00  0.00    -0.047 C  
HETATM   42  H   UNL     1      -7.545  19.361  64.954  1.00  0.00     0.000 HD 
HETATM   43  C   UNL     1      -7.639  17.573  68.863  1.00  0.00    -0.225 C  
HETATM   44  C   UNL     1      -7.620  18.840  69.568  1.00  0.00     0.187 C  
HETATM   45  O   UNL     1      -7.452  19.996  65.655  1.00  0.00    -0.330 OA 
HETATM   46  C   UNL     1      -6.089  19.498  68.785  1.00  0.00    -0.246 C  
HETATM   47  C   UNL     1      -9.119  19.910  69.883  1.00  0.00     0.779 C  
HETATM   48  C   UNL     1      -8.619  17.009  66.393  1.00  0.00    -0.311 C  
HETATM   49  C   UNL     1      -6.736  20.705  70.109  1.00  0.00     0.636 C  
HETATM   50  H   UNL     1      -4.486  18.880  67.799  1.00  0.00     0.000 HD 
HETATM   51  C   UNL     1      -7.253  20.080  68.251  1.00  0.00    -0.312 C  
HETATM   52  C   UNL     1      -7.458  18.676  66.699  1.00  0.00    -0.253 C  
BRANCH  26  53
HETATM   53  C   UNL     1      -8.548   9.391  70.340  1.00  0.00    -0.230 C  
BRANCH  53  54
HETATM   54  N   UNL     1      -8.307   8.384  71.128  1.00  0.00    -0.124 NA 
HETATM   55  H   UNL     1      -8.112   8.515  72.121  1.00  0.00     0.000 HD 
BRANCH  54  56
HETATM   56  N   UNL     1      -8.328   7.156  70.566  1.00  0.00    -0.129 NA 
HETATM   57  C   UNL     1      -9.130   6.088  71.202  1.00  0.00    -0.146 C  
HETATM   58  C   UNL     1      -8.312   4.860  71.667  1.00  0.00    -0.114 C  
HETATM   59  N   UNL     1      -7.393   4.332  70.627  1.00  0.00    -0.047 NA 
HETATM   60  C   UNL     1      -7.279   6.650  69.671  1.00  0.00    -0.078 C  
HETATM   61  C   UNL     1      -6.512   5.450  70.239  1.00  0.00    -0.034 C  
BRANCH  59  62
HETATM   62  C   UNL     1      -8.129   3.787  69.467  1.00  0.00    -0.054 C  
HETATM   63  C   UNL     1      -7.338   2.731  68.690  1.00  0.00    -0.048 C  
HETATM   64  C   UNL     1      -8.732   4.029  67.149  1.00  0.00    -0.118 C  
HETATM   65  C   UNL     1      -7.722   2.893  67.223  1.00  0.00    -0.070 C  
HETATM   66  C   UNL     1      -8.518   4.834  68.417  1.00  0.00    -0.096 C  
ENDBRANCH  59  62
ENDBRANCH  54  56
ENDBRANCH  53  54
ENDBRANCH  26  53
BRANCH  40  67
HETATM   67  O   UNL     1      -9.876  16.858  64.687  1.00  0.00     1.074 OA 
BRANCH  67  68
HETATM   68  C   UNL     1     -10.541  18.041  63.443  1.00  0.00    12.146 C  
HETATM   69  O   UNL     1      -9.607  18.428  62.684  1.00  0.00    18.560 OA 
HETATM   70  C   UNL     1     -12.074  18.876  62.546  1.00  0.00    22.721 C  
ENDBRANCH  67  68
ENDBRANCH  40  67
ENDBRANCH   2   3
TORSDOF 7
ENDMDL
MODEL        8
REMARK 921   NORMALIZED FREE ENERGY PREDICTED BY IDOCK:   83.64 KCAL/MOL
REMARK 922        TOTAL FREE ENERGY PREDICTED BY IDOCK:  118.10 KCAL/MOL
REMARK 923 INTER-LIGAND FREE ENERGY PREDICTED BY IDOCK:   73.27 KCAL/MOL
REMARK 924 INTRA-LIGAND FREE ENERGY PREDICTED BY IDOCK:   44.83 KCAL/MOL
REMARK 927      BINDING AFFINITY PREDICTED BY RF-SCORE:    0.00 PKD
ROOT
HETATM    1  C   UNL     1     -12.164   9.751  63.570  1.00  0.00    10.008 C  
HETATM    2  O   UNL     1     -11.691  10.078  65.361  1.00  0.00     2.513 OA 
ENDROOT
BRANCH   2   3
HETATM    3  C   UNL     1     -10.506  11.321  66.315  1.00  0.00    -0.258 C  
HETATM    4  C   UNL     1      -9.718   9.466  66.381  1.00  0.00    -0.315 C  
HETATM    5  C   UNL     1      -9.066   8.238  65.497  1.00  0.00    -0.065 C  
HETATM    6  O   UNL     1      -8.674   6.554  65.778  1.00  0.00    -0.151 OA 
HETATM    7  C   UNL     1      -7.154   6.213  66.027  1.00  0.00    -0.067 C  
HETATM    8  C   UNL     1      -6.012   5.089  65.885  1.00  0.00    -0.023 C  
HETATM    9  O   UNL     1      -6.458   7.146  65.257  1.00  0.00    -0.045 OA 
HETATM   10  C   UNL     1      -6.495   8.217  66.086  1.00  0.00    -0.050 A  
HETATM   11  C   UNL     1      -7.025   8.027  67.383  1.00  0.00    -0.075 A  
HETATM   12  C   UNL     1      -7.431   6.619  67.427  1.00  0.00    -0.096 C  
HETATM   13  C   UNL     1      -7.474   9.109  68.115  1.00  0.00    -0.083 A  
HETATM   14  O   UNL     1      -8.151   5.994  68.193  1.00  0.00    -0.108 OA 
HETATM   15  C   UNL     1      -7.266  10.388  67.504  1.00  0.00    -0.087 A  
HETATM   16  C   UNL     1      -6.727  10.503  66.166  1.00  0.00    -0.127 A  
HETATM   17  C   UNL     1      -7.643  11.486  68.271  1.00  0.00    -0.115 A  
HETATM   18  O   UNL     1      -7.070  12.685  67.898  1.00  0.00    -0.088 OA 
HETATM   19  C   UNL     1      -8.314  11.367  69.514  1.00  0.00     0.628 A  
HETATM   20  C   UNL     1      -6.372   9.407  65.429  1.00  0.00    -0.066 A  
HETATM   21  O   UNL     1      -6.565  11.642  65.428  1.00  0.00     0.201 OA 
HETATM   22  N   UNL     1      -8.632  12.516  70.252  1.00  0.00     3.667 N  
HETATM   23  C   UNL     1      -6.025   9.445  63.970  1.00  0.00    -0.082 C  
HETATM   24  H   UNL     1      -7.328  13.434  68.421  1.00  0.00     0.000 HD 
HETATM   25  H   UNL     1      -6.210  11.717  64.550  1.00  0.00     0.000 HD 
HETATM   26  C   UNL     1      -8.555  10.095  70.063  1.00  0.00    -0.019 A  
HETATM   27  H   UNL     1      -8.743  12.412  71.261  1.00  0.00     0.000 HD 
HETATM   28  C   UNL     1      -8.804  13.754  69.730  1.00  0.00     1.652 C  
HETATM   29  O   UNL     1      -6.531  19.440  70.204  1.00  0.00    -0.210 OA 
HETATM   30  C   UNL     1      -8.140   8.976  69.357  1.00  0.00    -0.108 A  
HETATM   31  C   UNL     1      -9.696  12.758  64.643  1.00  0.00     0.088 C  
HETATM   32  O   UNL     1      -8.283   7.724  69.885  1.00  0.00    -0.121 OA 
HETATM   33  O   UNL     1      -9.042  14.021  68.562  1.00  0.00    -0.192 OA 
HETATM   34  C   UNL     1      -8.825  14.762  70.738  1.00  0.00     2.340 C  
HETATM   35  C   UNL     1     -10.226  13.584  66.155  1.00  0.00    -0.303 C  
HETATM   36  C   UNL     1     -10.565  19.382  68.687  1.00  0.00    -0.014 C  
HETATM   37  C   UNL     1      -8.531  16.038  70.281  1.00  0.00     1.458 C  
HETATM   38  C   UNL     1      -9.354  14.692  72.089  1.00  0.00     6.053 C  
HETATM   39  H   UNL     1      -8.730   7.635  70.719  1.00  0.00     0.000 HD 
HETATM   40  C   UNL     1     -10.037  15.861  66.860  1.00  0.00    -0.266 C  
HETATM   41  C   UNL     1      -8.965  17.046  71.112  1.00  0.00     6.778 C  
HETATM   42  H   UNL     1      -8.652  20.318  66.870  1.00  0.00     0.000 HD 
HETATM   43  C   UNL     1      -8.835  18.227  70.623  1.00  0.00     4.479 C  
HETATM   44  C   UNL     1      -8.974  19.432  71.418  1.00  0.00     4.015 C  
HETATM   45  O   UNL     1      -8.661  20.901  67.620  1.00  0.00    -0.142 OA 
HETATM   46  C   UNL     1      -7.461  20.277  70.794  1.00  0.00     1.184 C  
HETATM   47  C   UNL     1     -10.580  20.344  71.703  1.00  0.00     4.534 C  
HETATM   48  C   UNL     1      -9.601  17.778  68.055  1.00  0.00    -0.291 C  
HETATM   49  C   UNL     1      -8.296  21.317  72.153  1.00  0.00     4.503 C  
HETATM   50  H   UNL     1      -5.750  19.875  69.881  1.00  0.00     0.000 HD 
HETATM   51  C   UNL     1      -8.636  20.798  70.223  1.00  0.00     2.625 C  
HETATM   52  C   UNL     1      -8.615  19.508  68.563  1.00  0.00    -0.379 C  
BRANCH  26  53
HETATM   53  C   UNL     1      -9.101   9.907  71.435  1.00  0.00     1.671 C  
BRANCH  53  54
HETATM   54  N   UNL     1      -8.810   8.872  72.169  1.00  0.00    -0.380 NA 
HETATM   55  H   UNL     1      -8.752   8.936  73.185  1.00  0.00     0.000 HD 
BRANCH  54  56
HETATM   56  N   UNL     1      -8.588   7.711  71.517  1.00  0.00    -0.114 NA 
HETATM   57  C   UNL     1      -8.088   7.752  70.125  1.00  0.00    -0.117 C  
HETATM   58  C   UNL     1      -9.027   7.100  69.084  1.00  0.00    -0.138 C  
HETATM   59  N   UNL     1      -9.497   5.747  69.474  1.00  0.00    -0.133 NA 
HETATM   60  C   UNL     1      -9.232   6.440  71.873  1.00  0.00    -0.149 C  
HETATM   61  C   UNL     1     -10.163   5.895  70.782  1.00  0.00    -0.211 C  
BRANCH  59  62
HETATM   62  C   UNL     1      -8.385   4.774  69.533  1.00  0.00    -0.082 C  
HETATM   63  C   UNL     1      -8.837   3.325  69.331  1.00  0.00    -0.153 C  
HETATM   64  C   UNL     1      -6.960   3.400  70.903  1.00  0.00    -0.033 C  
HETATM   65  C   UNL     1      -7.933   2.462  70.205  1.00  0.00    -0.053 C  
HETATM   66  C   UNL     1      -7.626   4.763  70.865  1.00  0.00    -0.069 C  
ENDBRANCH  59  62
ENDBRANCH  54  56
ENDBRANCH  53  54
ENDBRANCH  26  53
BRANCH  40  67
HETATM   67  O   UNL     1     -10.728  17.656  66.259  1.00  0.00    -0.245 OA 
BRANCH  67  68
HETATM   68  C   UNL     1     -11.419  18.871  65.062  1.00  0.00     2.565 C  
HETATM   69  O   UNL     1     -10.480  19.388  64.392  1.00  0.00     1.869 OA 
HETATM   70  C   UNL     1     -12.964  19.644  64.130  1.00  0.00    16.258 C  
ENDBRANCH  67  68
ENDBRANCH  40  67
ENDBRANCH   2   3
TORSDOF 7
ENDMDL
