MODEL        1
REMARK 921   NORMALIZED FREE ENERGY PREDICTED BY IDOCK:   -1.39 KCAL/MOL
REMARK 922        TOTAL FREE ENERGY PREDICTED BY IDOCK:   -1.87 KCAL/MOL
REMARK 923 INTER-LIGAND FREE ENERGY PREDICTED BY IDOCK:   -1.72 KCAL/MOL
REMARK 924 INTRA-LIGAND FREE ENERGY PREDICTED BY IDOCK:   -0.15 KCAL/MOL
REMARK 927      BINDING AFFINITY PREDICTED BY RF-SCORE:    0.00 PKD
ROOT
HETATM    1  C   UNL     1     -14.374   7.282  72.946  1.00  0.00     0.896 C  
HETATM    2  O   UNL     1     -13.525   7.221  71.432  1.00  0.00    -0.388 OA 
ENDROOT
BRANCH   2   3
HETATM    3  C   UNL     1     -12.193   8.342  70.846  1.00  0.00    -0.091 C  
HETATM    4  C   UNL     1     -11.403   6.665  70.118  1.00  0.00    -0.440 C  
HETATM    5  C   UNL     1     -10.471   5.302  70.149  1.00  0.00    -0.338 C  
HETATM    6  O   UNL     1     -10.260   3.779  69.225  1.00  0.00     0.325 OA 
HETATM    7  C   UNL     1      -8.951   2.597  68.732  1.00  0.00    -0.123 C  
HETATM    8  C   UNL     1      -7.772   1.482  69.403  1.00  0.00    -0.043 C  
HETATM    9  O   UNL     1      -8.911   2.016  67.214  1.00  0.00    -0.127 OA 
HETATM   10  C   UNL     1      -8.014   2.783  66.457  1.00  0.00    -0.081 A  
HETATM   11  C   UNL     1      -7.687   3.911  67.212  1.00  0.00    -0.080 A  
HETATM   12  C   UNL     1      -8.110   3.772  68.559  1.00  0.00    -0.074 C  
HETATM   13  C   UNL     1      -7.389   5.133  66.676  1.00  0.00    -0.086 A  
HETATM   14  O   UNL     1      -7.802   4.535  69.453  1.00  0.00    -0.061 OA 
HETATM   15  C   UNL     1      -7.476   5.195  65.295  1.00  0.00    -0.073 A  
HETATM   16  C   UNL     1      -7.466   4.022  64.500  1.00  0.00    -0.072 A  
HETATM   17  C   UNL     1      -7.908   6.496  64.705  1.00  0.00    -0.112 C  
HETATM   18  O   UNL     1      -7.583   6.769  63.554  1.00  0.00    -0.081 OA 
HETATM   19  C   UNL     1      -8.772   7.427  65.566  1.00  0.00    -0.026 C  
HETATM   20  C   UNL     1      -7.727   2.745  65.061  1.00  0.00    -0.080 A  
HETATM   21  O   UNL     1      -7.330   4.135  63.136  1.00  0.00    -0.048 OA 
HETATM   22  N   UNL     1      -9.001   8.756  65.092  1.00  0.00    -0.384 N  
HETATM   23  C   UNL     1      -7.753   1.550  64.109  1.00  0.00    -0.060 C  
HETATM   24  H   UNL     1      -7.323   3.348  62.603  1.00  0.00     0.000 HD 
HETATM   25  C   UNL     1      -8.799   7.125  66.887  1.00  0.00    -0.128 C  
HETATM   26  H   UNL     1      -8.794   8.939  64.110  1.00  0.00     0.000 HD 
HETATM   27  C   UNL     1      -9.486   9.833  65.854  1.00  0.00    -0.226 C  
HETATM   28  N   UNL     1      -8.939   8.028  67.902  1.00  0.00    -0.130 NA 
HETATM   29  O   UNL     1     -10.111   9.771  66.910  1.00  0.00    -0.200 OA 
HETATM   30  C   UNL     1      -7.573   8.501  68.099  1.00  0.00    -0.098 C  
HETATM   31  C   UNL     1      -9.179  11.214  65.410  1.00  0.00    -0.225 C  
HETATM   32  N   UNL     1      -6.888   7.121  68.272  1.00  0.00    -0.071 NA 
HETATM   33  C   UNL     1      -9.451  12.148  66.328  1.00  0.00    -0.238 C  
HETATM   34  C   UNL     1      -8.548  11.665  64.153  1.00  0.00     0.838 C  
HETATM   35  C   UNL     1      -6.830   9.087  66.841  1.00  0.00    -0.077 C  
HETATM   36  C   UNL     1      -7.590   6.404  67.376  1.00  0.00    -0.100 C  
HETATM   37  C   UNL     1      -5.422   9.468  67.155  1.00  0.00    -0.040 C  
HETATM   38  C   UNL     1      -9.427  13.517  65.951  1.00  0.00    -0.048 C  
HETATM   39  C   UNL     1      -9.439  14.377  66.928  1.00  0.00    -0.268 C  
HETATM   40  N   UNL     1      -5.440  10.586  68.084  1.00  0.00    -0.037 NA 
HETATM   41  C   UNL     1      -9.617  15.840  66.746  1.00  0.00    -0.253 C  
HETATM   42  C   UNL     1      -6.202  10.208  69.296  1.00  0.00    -0.044 C  
HETATM   43  C   UNL     1     -10.553   9.900  70.197  1.00  0.00    -0.350 C  
HETATM   44  C   UNL     1      -7.609   9.709  69.058  1.00  0.00    -0.076 C  
HETATM   45  C   UNL     1     -12.052  10.515  70.699  1.00  0.00    -0.452 C  
HETATM   46  C   UNL     1      -8.498  16.626  66.103  1.00  0.00    -0.308 C  
HETATM   47  C   UNL     1      -9.650  16.394  68.123  1.00  0.00    -0.227 C  
HETATM   48  O   UNL     1      -9.706  15.301  69.031  1.00  0.00    -0.210 OA 
HETATM   49  H   UNL     1      -9.998  16.498  71.548  1.00  0.00     0.000 HD 
HETATM   50  C   UNL     1     -12.164  12.885  70.743  1.00  0.00    -0.260 C  
HETATM   51  C   UNL     1     -10.762  17.379  68.415  1.00  0.00    -0.301 C  
HETATM   52  H   UNL     1      -9.727  15.655  69.911  1.00  0.00     0.000 HD 
HETATM   53  C   UNL     1     -11.072  16.549  70.004  1.00  0.00    -0.208 C  
HETATM   54  C   UNL     1     -11.649  18.048  67.173  1.00  0.00     1.480 C  
HETATM   55  O   UNL     1      -9.836  16.932  70.718  1.00  0.00     1.977 OA 
HETATM   56  C   UNL     1     -12.079  14.752  69.908  1.00  0.00    -0.381 C  
HETATM   57  C   UNL     1     -13.274  16.215  69.583  1.00  0.00     2.095 C  
BRANCH  40  58
HETATM   58  C   UNL     1      -5.808  11.849  67.395  1.00  0.00    -0.115 C  
HETATM   59  C   UNL     1      -5.277  13.229  69.406  1.00  0.00    -0.075 C  
HETATM   60  C   UNL     1      -6.631  14.240  67.619  1.00  0.00    -0.172 C  
HETATM   61  C   UNL     1      -6.316  12.937  68.340  1.00  0.00    -0.080 C  
ENDBRANCH  40  58
BRANCH  50  62
HETATM   62  O   UNL     1     -12.681  14.247  71.996  1.00  0.00    -0.329 OA 
BRANCH  62  63
HETATM   63  C   UNL     1     -12.325  15.183  73.391  1.00  0.00    -0.484 C  
HETATM   64  C   UNL     1     -11.870  16.927  73.997  1.00  0.00    -0.018 C  
HETATM   65  O   UNL     1     -12.313  14.499  74.448  1.00  0.00    -0.235 OA 
ENDBRANCH  62  63
ENDBRANCH  50  62
ENDBRANCH   2   3
TORSDOF 4
ENDMDL
MODEL        2
REMARK 921   NORMALIZED FREE ENERGY PREDICTED BY IDOCK:   43.36 KCAL/MOL
REMARK 922        TOTAL FREE ENERGY PREDICTED BY IDOCK:   53.35 KCAL/MOL
REMARK 923 INTER-LIGAND FREE ENERGY PREDICTED BY IDOCK:   47.63 KCAL/MOL
REMARK 924 INTRA-LIGAND FREE ENERGY PREDICTED BY IDOCK:    5.72 KCAL/MOL
REMARK 927      BINDING AFFINITY PREDICTED BY RF-SCORE:    0.00 PKD
ROOT
HETATM    1  C   UNL     1     -13.464   9.330  72.481  1.00  0.00    -0.471 C  
HETATM    2  O   UNL     1     -13.707  10.076  70.931  1.00  0.00    -0.217 OA 
ENDROOT
BRANCH   2   3
HETATM    3  C   UNL     1     -12.708   9.848  69.407  1.00  0.00     1.411 C  
HETATM    4  C   UNL     1     -12.629  11.838  69.425  1.00  0.00     0.300 C  
HETATM    5  C   UNL     1     -13.135  13.368  69.065  1.00  0.00     2.041 C  
HETATM    6  O   UNL     1     -12.835  15.057  69.590  1.00  0.00    -0.022 OA 
HETATM    7  C   UNL     1     -12.776  16.757  68.912  1.00  0.00     3.127 C  
HETATM    8  C   UNL     1     -13.776  17.966  68.124  1.00  0.00     9.906 C  
HETATM    9  O   UNL     1     -11.580  17.766  69.354  1.00  0.00     1.801 OA 
HETATM   10  C   UNL     1     -10.567  17.722  68.386  1.00  0.00    -0.291 A  
HETATM   11  C   UNL     1     -10.840  16.643  67.542  1.00  0.00    -0.221 A  
HETATM   12  C   UNL     1     -12.155  16.150  67.744  1.00  0.00     0.851 C  
HETATM   13  C   UNL     1      -9.881  15.896  66.917  1.00  0.00    -0.251 A  
HETATM   14  O   UNL     1     -12.694  15.330  67.027  1.00  0.00     1.017 OA 
HETATM   15  C   UNL     1      -8.579  16.261  67.216  1.00  0.00    -0.199 A  
HETATM   16  C   UNL     1      -8.274  17.527  67.775  1.00  0.00    -0.219 A  
HETATM   17  C   UNL     1      -7.562  15.168  67.238  1.00  0.00    -0.203 C  
HETATM   18  O   UNL     1      -6.383  15.444  67.043  1.00  0.00    -0.267 OA 
HETATM   19  C   UNL     1      -8.043  13.742  67.537  1.00  0.00    -0.185 C  
HETATM   20  C   UNL     1      -9.276  18.328  68.382  1.00  0.00    -0.332 A  
HETATM   21  O   UNL     1      -6.963  17.932  67.848  1.00  0.00    -0.198 OA 
HETATM   22  N   UNL     1      -7.117  12.669  67.345  1.00  0.00    -0.208 N  
HETATM   23  C   UNL     1      -8.835  19.650  69.009  1.00  0.00    -0.164 C  
HETATM   24  H   UNL     1      -6.759  18.782  68.222  1.00  0.00     0.000 HD 
HETATM   25  C   UNL     1      -9.382  13.555  67.441  1.00  0.00    -0.228 C  
HETATM   26  H   UNL     1      -6.131  12.918  67.260  1.00  0.00     0.000 HD 
HETATM   27  C   UNL     1      -7.440  11.304  67.261  1.00  0.00    -0.126 C  
HETATM   28  N   UNL     1      -9.994  12.395  67.061  1.00  0.00    -0.210 NA 
HETATM   29  O   UNL     1      -8.462  10.758  67.670  1.00  0.00    -0.119 OA 
HETATM   30  C   UNL     1      -9.961  12.479  65.605  1.00  0.00    -0.245 C  
HETATM   31  C   UNL     1      -6.508  10.394  66.553  1.00  0.00    -0.089 C  
HETATM   32  N   UNL     1     -10.612  13.878  65.453  1.00  0.00    -0.318 NA 
HETATM   33  C   UNL     1      -7.022   9.185  66.299  1.00  0.00    -0.086 C  
HETATM   34  C   UNL     1      -5.154  10.676  66.032  1.00  0.00    -0.083 C  
HETATM   35  C   UNL     1      -8.554  12.691  64.932  1.00  0.00     2.238 C  
HETATM   36  C   UNL     1     -10.066  14.500  66.514  1.00  0.00    -0.274 C  
HETATM   37  C   UNL     1      -8.662  12.832  63.451  1.00  0.00     4.030 C  
HETATM   38  C   UNL     1      -6.164   8.150  65.844  1.00  0.00    -0.045 C  
HETATM   39  C   UNL     1      -6.753   7.091  65.369  1.00  0.00    -0.051 C  
HETATM   40  N   UNL     1      -9.111  11.566  62.897  1.00  0.00    -0.261 NA 
HETATM   41  C   UNL     1      -6.048   5.829  65.029  1.00  0.00    -0.025 C  
HETATM   42  C   UNL     1     -10.399  11.183  63.519  1.00  0.00    -0.387 C  
HETATM   43  C   UNL     1     -11.480   9.393  67.451  1.00  0.00     1.199 C  
HETATM   44  C   UNL     1     -10.405  11.119  65.029  1.00  0.00    -0.362 C  
HETATM   45  C   UNL     1     -11.763   8.098  68.509  1.00  0.00     1.780 C  
HETATM   46  C   UNL     1      -5.127   5.820  63.831  1.00  0.00    -0.013 C  
HETATM   47  C   UNL     1      -7.122   4.891  64.616  1.00  0.00    -0.054 C  
HETATM   48  O   UNL     1      -8.371   5.505  64.907  1.00  0.00    -0.135 OA 
HETATM   49  H   UNL     1     -10.274   3.540  64.296  1.00  0.00     0.000 HD 
HETATM   50  C   UNL     1     -10.929   6.014  67.737  1.00  0.00    -0.234 C  
HETATM   51  C   UNL     1      -7.061   3.505  65.221  1.00  0.00    -0.066 C  
HETATM   52  H   UNL     1      -9.059   4.905  64.643  1.00  0.00     0.000 HD 
HETATM   53  C   UNL     1      -8.854   3.568  65.529  1.00  0.00    -0.127 C  
HETATM   54  C   UNL     1      -5.688   2.982  66.005  1.00  0.00    -0.018 C  
HETATM   55  O   UNL     1      -9.338   3.507  64.135  1.00  0.00    -0.121 OA 
HETATM   56  C   UNL     1      -9.460   4.727  67.123  1.00  0.00    -0.164 C  
HETATM   57  C   UNL     1      -8.652   3.101  67.738  1.00  0.00    -0.118 C  
BRANCH  40  58
HETATM   58  C   UNL     1      -8.014  10.564  62.892  1.00  0.00    -0.120 C  
HETATM   59  C   UNL     1      -9.581   8.690  62.378  1.00  0.00     1.669 C  
HETATM   60  C   UNL     1      -7.339   8.140  63.223  1.00  0.00    -0.103 C  
HETATM   61  C   UNL     1      -8.466   9.160  63.293  1.00  0.00    -0.197 C  
ENDBRANCH  40  58
BRANCH  50  62
HETATM   62  O   UNL     1     -11.604   4.231  67.493  1.00  0.00     4.658 OA 
BRANCH  62  63
HETATM   63  C   UNL     1     -11.373   2.630  66.917  1.00  0.00     9.250 C  
HETATM   64  C   UNL     1     -11.127   1.580  65.352  1.00  0.00     3.703 C  
HETATM   65  O   UNL     1     -11.400   1.772  67.839  1.00  0.00     6.471 OA 
ENDBRANCH  62  63
ENDBRANCH  50  62
ENDBRANCH   2   3
TORSDOF 4
ENDMDL
MODEL        3
REMARK 921   NORMALIZED FREE ENERGY PREDICTED BY IDOCK:   76.12 KCAL/MOL
REMARK 922        TOTAL FREE ENERGY PREDICTED BY IDOCK:   93.77 KCAL/MOL
REMARK 923 INTER-LIGAND FREE ENERGY PREDICTED BY IDOCK:   92.88 KCAL/MOL
REMARK 924 INTRA-LIGAND FREE ENERGY PREDICTED BY IDOCK:    0.89 KCAL/MOL
REMARK 927      BINDING AFFINITY PREDICTED BY RF-SCORE:    0.00 PKD
ROOT
HETATM    1  C   UNL     1     -14.202  11.317  63.575  1.00  0.00     3.876 C  
HETATM    2  O   UNL     1     -14.299  11.592  65.288  1.00  0.00     6.140 OA 
ENDROOT
BRANCH   2   3
HETATM    3  C   UNL     1     -13.125  12.533  66.342  1.00  0.00     2.783 C  
HETATM    4  C   UNL     1     -12.525  10.720  66.909  1.00  0.00     4.247 C  
HETATM    5  C   UNL     1     -12.527   9.356  67.839  1.00  0.00     6.163 C  
HETATM    6  O   UNL     1     -11.895   7.678  67.791  1.00  0.00     1.491 OA 
HETATM    7  C   UNL     1     -11.258   6.377  68.912  1.00  0.00    -0.307 C  
HETATM    8  C   UNL     1     -11.731   5.369  70.269  1.00  0.00     1.833 C  
HETATM    9  O   UNL     1      -9.944   5.517  68.493  1.00  0.00    -0.138 OA 
HETATM   10  C   UNL     1      -8.813   6.093  69.091  1.00  0.00    -0.123 A  
HETATM   11  C   UNL     1      -9.198   7.331  69.607  1.00  0.00    -0.143 A  
HETATM   12  C   UNL     1     -10.611   7.467  69.628  1.00  0.00    -0.239 C  
HETATM   13  C   UNL     1      -8.372   8.417  69.693  1.00  0.00    -0.122 A  
HETATM   14  O   UNL     1     -11.201   8.375  70.178  1.00  0.00    -0.233 OA 
HETATM   15  C   UNL     1      -7.101   8.218  69.179  1.00  0.00    -0.064 A  
HETATM   16  C   UNL     1      -6.583   6.915  68.972  1.00  0.00    -0.048 A  
HETATM   17  C   UNL     1      -6.435   9.398  68.553  1.00  0.00    -0.053 C  
HETATM   18  O   UNL     1      -5.211   9.434  68.497  1.00  0.00    -0.034 OA 
HETATM   19  C   UNL     1      -7.326  10.506  67.976  1.00  0.00    -0.089 C  
HETATM   20  C   UNL     1      -7.431   5.779  68.931  1.00  0.00    -0.085 A  
HETATM   21  O   UNL     1      -5.249   6.761  68.674  1.00  0.00    -0.014 OA 
HETATM   22  N   UNL     1      -6.700  11.727  67.576  1.00  0.00    -0.095 N  
HETATM   23  C   UNL     1      -6.783   4.426  68.641  1.00  0.00    -0.047 C  
HETATM   24  H   UNL     1      -4.902   5.887  68.536  1.00  0.00     0.000 HD 
HETATM   25  C   UNL     1      -8.622  10.463  68.368  1.00  0.00    -0.128 C  
HETATM   26  H   UNL     1      -5.685  11.713  67.464  1.00  0.00     0.000 HD 
HETATM   27  C   UNL     1      -7.352  12.946  67.325  1.00  0.00    -0.070 C  
HETATM   28  N   UNL     1      -9.437  11.547  68.527  1.00  0.00    -0.187 NA 
HETATM   29  O   UNL     1      -8.541  13.110  67.061  1.00  0.00    -0.205 OA 
HETATM   30  C   UNL     1      -9.106  11.999  69.874  1.00  0.00     2.634 C  
HETATM   31  C   UNL     1      -6.578  14.206  67.444  1.00  0.00     0.058 C  
HETATM   32  N   UNL     1      -9.321  10.654  70.614  1.00  0.00     1.368 NA 
HETATM   33  C   UNL     1      -7.338  15.307  67.447  1.00  0.00    -0.241 C  
HETATM   34  C   UNL     1      -5.125  14.386  67.641  1.00  0.00     0.112 C  
HETATM   35  C   UNL     1      -7.592  12.308  70.175  1.00  0.00     2.240 C  
HETATM   36  C   UNL     1      -8.841   9.805  69.687  1.00  0.00    -0.211 C  
HETATM   37  C   UNL     1      -7.375  12.690  71.600  1.00  0.00     7.968 C  
HETATM   38  C   UNL     1      -6.716  16.577  67.317  1.00  0.00    -0.216 C  
HETATM   39  C   UNL     1      -7.463  17.607  67.588  1.00  0.00    -0.206 C  
HETATM   40  N   UNL     1      -8.031  13.964  71.843  1.00  0.00     6.150 NA 
HETATM   41  C   UNL     1      -7.068  19.014  67.324  1.00  0.00    -0.219 C  
HETATM   42  C   UNL     1      -9.468  13.853  71.505  1.00  0.00     8.068 C  
HETATM   43  C   UNL     1     -11.714  13.878  67.659  1.00  0.00    -0.403 C  
HETATM   44  C   UNL     1      -9.778  13.368  70.107  1.00  0.00     2.926 C  
HETATM   45  C   UNL     1     -12.528  14.631  66.375  1.00  0.00     0.053 C  
HETATM   46  C   UNL     1      -5.972  19.623  68.168  1.00  0.00    -0.244 C  
HETATM   47  C   UNL     1      -8.254  19.821  67.707  1.00  0.00    -0.305 C  
HETATM   48  O   UNL     1      -9.327  18.924  67.964  1.00  0.00    -0.291 OA 
HETATM   49  H   UNL     1     -11.531  20.589  68.438  1.00  0.00     0.000 HD 
HETATM   50  C   UNL     1     -12.147  16.968  66.222  1.00  0.00     3.254 C  
HETATM   51  C   UNL     1      -8.681  20.884  66.716  1.00  0.00     0.111 C  
HETATM   52  H   UNL     1     -10.085  19.440  68.208  1.00  0.00     0.000 HD 
HETATM   53  C   UNL     1     -10.416  20.383  66.937  1.00  0.00    -0.050 C  
HETATM   54  C   UNL     1      -7.671  21.335  65.470  1.00  0.00     1.495 C  
HETATM   55  O   UNL     1     -10.625  20.850  68.323  1.00  0.00     0.281 OA 
HETATM   56  C   UNL     1     -10.984  18.638  65.996  1.00  0.00     0.095 C  
HETATM   57  C   UNL     1     -10.771  20.055  64.722  1.00  0.00     1.291 C  
BRANCH  40  58
HETATM   58  C   UNL     1      -7.260  15.086  71.247  1.00  0.00     1.852 C  
HETATM   59  C   UNL     1      -5.178  14.447  72.466  1.00  0.00    -0.208 C  
HETATM   60  C   UNL     1      -5.311  16.695  71.479  1.00  0.00     0.246 C  
HETATM   61  C   UNL     1      -6.122  15.588  72.135  1.00  0.00     1.447 C  
ENDBRANCH  40  58
BRANCH  50  62
HETATM   62  O   UNL     1     -13.212  18.562  66.085  1.00  0.00     9.961 OA 
BRANCH  62  63
HETATM   63  C   UNL     1     -13.592  20.138  66.651  1.00  0.00     7.537 C  
HETATM   64  C   UNL     1     -14.387  21.109  68.079  1.00  0.00     6.365 C  
HETATM   65  O   UNL     1     -13.276  21.040  65.831  1.00  0.00     5.861 OA 
ENDBRANCH  62  63
ENDBRANCH  50  62
ENDBRANCH   2   3
TORSDOF 4
ENDMDL
MODEL        4
REMARK 921   NORMALIZED FREE ENERGY PREDICTED BY IDOCK:   85.95 KCAL/MOL
REMARK 922        TOTAL FREE ENERGY PREDICTED BY IDOCK:  105.90 KCAL/MOL
REMARK 923 INTER-LIGAND FREE ENERGY PREDICTED BY IDOCK:   79.60 KCAL/MOL
REMARK 924 INTRA-LIGAND FREE ENERGY PREDICTED BY IDOCK:   26.30 KCAL/MOL
REMARK 927      BINDING AFFINITY PREDICTED BY RF-SCORE:    0.00 PKD
ROOT
HETATM    1  C   UNL     1     -12.329   9.518  74.353  1.00  0.00    12.870 C  
HETATM    2  O   UNL     1     -12.437   9.881  72.658  1.00  0.00     0.134 OA 
ENDROOT
BRANCH   2   3
HETATM    3  C   UNL     1     -11.099  10.480  71.551  1.00  0.00     1.236 C  
HETATM    4  C   UNL     1     -11.059   8.586  70.938  1.00  0.00    -0.295 C  
HETATM    5  C   UNL     1     -10.570   7.009  70.952  1.00  0.00    -0.238 C  
HETATM    6  O   UNL     1     -11.075   5.423  70.283  1.00  0.00    -0.162 OA 
HETATM    7  C   UNL     1     -10.355   3.856  69.667  1.00  0.00     1.002 C  
HETATM    8  C   UNL     1      -9.376   2.491  70.178  1.00  0.00    -0.187 C  
HETATM    9  O   UNL     1     -10.944   3.166  68.318  1.00  0.00     4.034 OA 
HETATM   10  C   UNL     1     -10.151   3.550  67.227  1.00  0.00     0.675 A  
HETATM   11  C   UNL     1      -9.314   4.580  67.660  1.00  0.00    -0.176 A  
HETATM   12  C   UNL     1      -9.322   4.693  69.075  1.00  0.00    -0.142 C  
HETATM   13  C   UNL     1      -8.876   5.599  66.861  1.00  0.00    -0.113 A  
HETATM   14  O   UNL     1      -8.559   5.395  69.707  1.00  0.00    -0.098 OA 
HETATM   15  C   UNL     1      -9.365   5.568  65.565  1.00  0.00    -0.013 A  
HETATM   16  C   UNL     1      -9.919   4.388  65.011  1.00  0.00    -0.150 A  
HETATM   17  C   UNL     1      -9.586   6.885  64.898  1.00  0.00     1.877 C  
HETATM   18  O   UNL     1      -9.571   6.945  63.673  1.00  0.00     2.639 OA 
HETATM   19  C   UNL     1      -9.856   8.107  65.786  1.00  0.00     0.435 C  
HETATM   20  C   UNL     1     -10.330   3.307  65.833  1.00  0.00     1.031 A  
HETATM   21  O   UNL     1     -10.185   4.337  63.663  1.00  0.00    -0.368 OA 
HETATM   22  N   UNL     1      -9.851   9.396  65.169  1.00  0.00    -0.421 N  
HETATM   23  C   UNL     1     -10.972   2.103  65.145  1.00  0.00     2.731 C  
HETATM   24  H   UNL     1     -10.556   3.545  63.292  1.00  0.00     0.000 HD 
HETATM   25  C   UNL     1      -9.556   7.941  67.097  1.00  0.00    -0.171 C  
HETATM   26  H   UNL     1      -9.914   9.423  64.151  1.00  0.00     0.000 HD 
HETATM   27  C   UNL     1      -9.766  10.631  65.835  1.00  0.00    -0.223 C  
HETATM   28  N   UNL     1      -9.125   8.925  67.940  1.00  0.00    -0.139 NA 
HETATM   29  O   UNL     1     -10.026  10.855  67.015  1.00  0.00    -0.183 OA 
HETATM   30  C   UNL     1      -7.691   8.965  67.678  1.00  0.00    -0.101 C  
HETATM   31  C   UNL     1      -9.247  11.806  65.094  1.00  0.00     0.062 C  
HETATM   32  N   UNL     1      -7.387   7.461  67.896  1.00  0.00    -0.090 NA 
HETATM   33  C   UNL     1      -8.958  12.852  65.876  1.00  0.00     0.378 C  
HETATM   34  C   UNL     1      -8.938  11.931  63.655  1.00  0.00     0.516 C  
HETATM   35  C   UNL     1      -7.241   9.184  66.185  1.00  0.00    -0.090 C  
HETATM   36  C   UNL     1      -8.499   6.924  67.359  1.00  0.00    -0.121 C  
HETATM   37  C   UNL     1      -5.758   9.133  66.037  1.00  0.00    -0.049 C  
HETATM   38  C   UNL     1      -8.682  14.109  65.276  1.00  0.00     2.581 C  
HETATM   39  C   UNL     1      -8.158  15.009  66.056  1.00  0.00     1.469 C  
HETATM   40  N   UNL     1      -5.185  10.276  66.730  1.00  0.00    -0.040 NA 
HETATM   41  C   UNL     1      -7.979  16.435  65.679  1.00  0.00     1.219 C  
HETATM   42  C   UNL     1      -5.608  10.257  68.148  1.00  0.00    -0.037 C  
HETATM   43  C   UNL     1      -9.381  11.392  70.226  1.00  0.00     2.855 C  
HETATM   44  C   UNL     1      -7.099  10.201  68.388  1.00  0.00    -0.071 C  
HETATM   45  C   UNL     1     -10.426  12.481  70.999  1.00  0.00     5.740 C  
HETATM   46  C   UNL     1      -6.943  16.777  64.634  1.00  0.00     7.167 C  
HETATM   47  C   UNL     1      -7.434  17.085  66.897  1.00  0.00    -0.212 C  
HETATM   48  O   UNL     1      -7.502  16.144  67.961  1.00  0.00    -0.127 OA 
HETATM   49  H   UNL     1      -6.667  17.581  70.218  1.00  0.00     0.000 HD 
HETATM   50  C   UNL     1      -9.871  14.764  70.661  1.00  0.00     1.196 C  
HETATM   51  C   UNL     1      -8.090  18.388  67.303  1.00  0.00    -0.243 C  
HETATM   52  H   UNL     1      -7.153  16.560  68.740  1.00  0.00     0.000 HD 
HETATM   53  C   UNL     1      -8.108  17.832  69.035  1.00  0.00    -0.056 C  
HETATM   54  C   UNL     1      -9.100  19.192  66.250  1.00  0.00    -0.326 C  
HETATM   55  O   UNL     1      -6.657  17.871  69.314  1.00  0.00    -0.250 OA 
HETATM   56  C   UNL     1      -9.544  16.435  69.525  1.00  0.00    -0.045 C  
HETATM   57  C   UNL     1     -10.336  18.165  69.287  1.00  0.00     0.094 C  
BRANCH  40  58
HETATM   58  C   UNL     1      -5.390  11.528  65.958  1.00  0.00     0.142 C  
HETATM   59  C   UNL     1      -7.456  12.106  67.234  1.00  0.00    -0.152 C  
HETATM   60  C   UNL     1      -7.034  13.264  65.106  1.00  0.00    10.105 C  
HETATM   61  C   UNL     1      -6.855  11.948  65.850  1.00  0.00     1.246 C  
ENDBRANCH  40  58
BRANCH  50  62
HETATM   62  O   UNL     1      -9.586  16.320  71.753  1.00  0.00     4.434 OA 
BRANCH  62  63
HETATM   63  C   UNL     1      -9.551  18.029  71.908  1.00  0.00     8.849 C  
HETATM   64  C   UNL     1      -9.223  19.651  70.973  1.00  0.00     2.383 C  
HETATM   65  O   UNL     1      -9.797  18.418  73.081  1.00  0.00     5.593 OA 
ENDBRANCH  62  63
ENDBRANCH  50  62
ENDBRANCH   2   3
TORSDOF 4
ENDMDL
MODEL        5
REMARK 921   NORMALIZED FREE ENERGY PREDICTED BY IDOCK:  140.62 KCAL/MOL
REMARK 922        TOTAL FREE ENERGY PREDICTED BY IDOCK:  173.36 KCAL/MOL
REMARK 923 INTER-LIGAND FREE ENERGY PREDICTED BY IDOCK:  168.32 KCAL/MOL
REMARK 924 INTRA-LIGAND FREE ENERGY PREDICTED BY IDOCK:    5.04 KCAL/MOL
REMARK 927      BINDING AFFINITY PREDICTED BY RF-SCORE:    0.00 PKD
ROOT
HETATM    1  C   UNL     1     -13.599   8.980  64.582  1.00  0.00    21.403 C  
HETATM    2  O   UNL     1     -13.839   9.608  66.184  1.00  0.00    18.460 OA 
ENDROOT
BRANCH   2   3
HETATM    3  C   UNL     1     -12.839  10.881  67.052  1.00  0.00     6.558 C  
HETATM    4  C   UNL     1     -12.285   9.349  68.198  1.00  0.00     3.816 C  
HETATM    5  C   UNL     1     -12.387   8.315  69.481  1.00  0.00     2.155 C  
HETATM    6  O   UNL     1     -11.720   6.735  70.009  1.00  0.00    -0.337 OA 
HETATM    7  C   UNL     1     -11.216   5.855  71.534  1.00  0.00    -0.225 C  
HETATM    8  C   UNL     1     -11.850   5.256  73.057  1.00  0.00    -0.129 C  
HETATM    9  O   UNL     1      -9.840   4.990  71.554  1.00  0.00    -0.164 OA 
HETATM   10  C   UNL     1      -8.813   5.780  72.091  1.00  0.00    -0.137 A  
HETATM   11  C   UNL     1      -9.290   7.090  72.168  1.00  0.00    -0.146 A  
HETATM   12  C   UNL     1     -10.694   7.142  71.971  1.00  0.00    -0.214 C  
HETATM   13  C   UNL     1      -8.505   8.201  72.032  1.00  0.00    -0.206 A  
HETATM   14  O   UNL     1     -11.373   8.133  72.152  1.00  0.00    -0.287 OA 
HETATM   15  C   UNL     1      -7.172   7.937  71.762  1.00  0.00    -0.071 A  
HETATM   16  C   UNL     1      -6.604   6.664  72.014  1.00  0.00    -0.054 A  
HETATM   17  C   UNL     1      -6.451   8.923  70.904  1.00  0.00    -0.058 C  
HETATM   18  O   UNL     1      -5.231   9.014  70.993  1.00  0.00    -0.027 OA 
HETATM   19  C   UNL     1      -7.277   9.762  69.919  1.00  0.00    -0.116 C  
HETATM   20  C   UNL     1      -7.416   5.516  72.204  1.00  0.00    -0.099 A  
HETATM   21  O   UNL     1      -5.240   6.509  71.944  1.00  0.00    -0.026 OA 
HETATM   22  N   UNL     1      -6.627  10.850  69.259  1.00  0.00    -0.068 N  
HETATM   23  C   UNL     1      -6.707   4.178  72.409  1.00  0.00    -0.037 C  
HETATM   24  H   UNL     1      -4.859   5.655  72.113  1.00  0.00     0.000 HD 
HETATM   25  C   UNL     1      -8.613   9.757  70.142  1.00  0.00    -0.181 C  
HETATM   26  H   UNL     1      -5.607  10.864  69.283  1.00  0.00     0.000 HD 
HETATM   27  C   UNL     1      -7.263  11.903  68.580  1.00  0.00    -0.109 C  
HETATM   28  N   UNL     1      -9.464  10.791  69.872  1.00  0.00     0.360 NA 
HETATM   29  O   UNL     1      -8.408  11.912  68.134  1.00  0.00    -0.146 OA 
HETATM   30  C   UNL     1      -9.330  11.632  71.056  1.00  0.00     8.359 C  
HETATM   31  C   UNL     1      -6.539  13.187  68.418  1.00  0.00    -0.092 C  
HETATM   32  N   UNL     1      -9.616  10.548  72.127  1.00  0.00     6.200 NA 
HETATM   33  C   UNL     1      -7.313  14.195  68.002  1.00  0.00    -0.142 C  
HETATM   34  C   UNL     1      -5.130  13.502  68.732  1.00  0.00    -0.073 C  
HETATM   35  C   UNL     1      -7.877  12.104  71.438  1.00  0.00     9.855 C  
HETATM   36  C   UNL     1      -8.997   9.497  71.558  1.00  0.00     0.690 C  
HETATM   37  C   UNL     1      -7.864  12.895  72.703  1.00  0.00    14.377 C  
HETATM   38  C   UNL     1      -6.705  15.407  67.582  1.00  0.00    -0.198 C  
HETATM   39  C   UNL     1      -7.504  16.425  67.442  1.00  0.00    -0.178 C  
HETATM   40  N   UNL     1      -8.573  14.143  72.476  1.00  0.00     7.753 NA 
HETATM   41  C   UNL     1      -7.105  17.717  66.826  1.00  0.00    -0.236 C  
HETATM   42  C   UNL     1      -9.948  13.853  72.010  1.00  0.00     8.017 C  
HETATM   43  C   UNL     1     -11.648  12.632  68.079  1.00  0.00    -0.394 C  
HETATM   44  C   UNL     1     -10.055  12.968  70.790  1.00  0.00     5.616 C  
HETATM   45  C   UNL     1     -12.294  12.931  66.539  1.00  0.00    -0.088 C  
HETATM   46  C   UNL     1      -6.146  18.608  67.583  1.00  0.00    -0.187 C  
HETATM   47  C   UNL     1      -8.348  18.528  66.803  1.00  0.00    -0.269 C  
HETATM   48  O   UNL     1      -9.427  17.682  67.178  1.00  0.00    -0.257 OA 
HETATM   49  H   UNL     1     -11.709  19.279  66.862  1.00  0.00     0.000 HD 
HETATM   50  C   UNL     1     -11.943  15.142  65.753  1.00  0.00     0.165 C  
HETATM   51  C   UNL     1      -8.656  19.231  65.498  1.00  0.00     0.723 C  
HETATM   52  H   UNL     1     -10.222  18.201  67.163  1.00  0.00     0.000 HD 
HETATM   53  C   UNL     1     -10.395  18.714  65.639  1.00  0.00    -0.034 C  
HETATM   54  C   UNL     1      -7.495  19.362  64.311  1.00  0.00     2.898 C  
HETATM   55  O   UNL     1     -10.801  19.549  66.788  1.00  0.00    -0.460 OA 
HETATM   56  C   UNL     1     -10.794  16.741  65.191  1.00  0.00    -0.150 C  
HETATM   57  C   UNL     1     -10.437  17.739  63.593  1.00  0.00     9.373 C  
BRANCH  40  58
HETATM   58  C   UNL     1      -7.751  15.088  71.676  1.00  0.00     3.741 C  
HETATM   59  C   UNL     1      -5.653  13.810  72.122  1.00  0.00    -0.109 C  
HETATM   60  C   UNL     1      -5.463  16.111  71.274  1.00  0.00     0.177 C  
HETATM   61  C   UNL     1      -6.299  15.183  72.144  1.00  0.00     1.387 C  
ENDBRANCH  40  58
BRANCH  50  62
HETATM   62  O   UNL     1     -13.012  16.562  65.021  1.00  0.00     2.714 OA 
BRANCH  62  63
HETATM   63  C   UNL     1     -13.123  18.162  64.409  1.00  0.00    14.635 C  
HETATM   64  C   UNL     1     -12.354  19.898  64.496  1.00  0.00     7.975 C  
HETATM   65  O   UNL     1     -14.090  18.315  63.616  1.00  0.00    16.614 OA 
ENDBRANCH  62  63
ENDBRANCH  50  62
ENDBRANCH   2   3
TORSDOF 4
ENDMDL
