MODEL        1
REMARK 921   NORMALIZED FREE ENERGY PREDICTED BY IDOCK:   -4.57 KCAL/MOL
REMARK 922        TOTAL FREE ENERGY PREDICTED BY IDOCK:   -6.07 KCAL/MOL
REMARK 923 INTER-LIGAND FREE ENERGY PREDICTED BY IDOCK:   -5.63 KCAL/MOL
REMARK 924 INTRA-LIGAND FREE ENERGY PREDICTED BY IDOCK:   -0.44 KCAL/MOL
REMARK 927      BINDING AFFINITY PREDICTED BY RF-SCORE:    0.00 PKD
ROOT
HETATM    1  C   UNL     1     -12.463  15.419  73.862  1.00  0.00    -0.763 C  
HETATM    2  C   UNL     1     -13.605  15.831  72.981  1.00  0.00    -0.638 C  
HETATM    3  C   UNL     1     -12.184  15.947  72.472  1.00  0.00    -0.597 C  
ENDROOT
BRANCH   3   4
HETATM    4  C   UNL     1     -11.613  15.014  71.428  1.00  0.00    -0.346 C  
BRANCH   4   5
HETATM    5  N   UNL     1     -12.677  14.206  70.873  1.00  0.00    -0.348 NA 
HETATM    6  H   UNL     1     -13.402  14.653  70.312  1.00  0.00     0.000 HD 
BRANCH   5   7
HETATM    7  C   UNL     1     -12.730  12.871  71.086  1.00  0.00    -0.276 A  
HETATM    8  N   UNL     1     -13.393  12.224  71.981  1.00  0.00    -0.477 NA 
HETATM    9  C   UNL     1     -13.092  10.819  71.717  1.00  0.00    -0.468 A  
HETATM   10  C   UNL     1     -12.258  10.814  70.457  1.00  0.00    -0.366 A  
HETATM   11  O   UNL     1     -11.991  12.180  70.188  1.00  0.00    -0.339 OA 
ENDBRANCH   5   7
ENDBRANCH   4   5
BRANCH   4  12
HETATM   12  C   UNL     1     -10.976  15.798  70.302  1.00  0.00    -0.368 C  
HETATM   13  C   UNL     1     -11.587  15.772  68.919  1.00  0.00    -0.400 C  
HETATM   14  C   UNL     1     -10.273  15.092  69.166  1.00  0.00    -0.249 C  
ENDBRANCH   4  12
ENDBRANCH   3   4
TORSDOF 4
ENDMDL
MODEL        2
REMARK 921   NORMALIZED FREE ENERGY PREDICTED BY IDOCK:   -4.51 KCAL/MOL
REMARK 922        TOTAL FREE ENERGY PREDICTED BY IDOCK:   -6.00 KCAL/MOL
REMARK 923 INTER-LIGAND FREE ENERGY PREDICTED BY IDOCK:   -5.65 KCAL/MOL
REMARK 924 INTRA-LIGAND FREE ENERGY PREDICTED BY IDOCK:   -0.36 KCAL/MOL
REMARK 927      BINDING AFFINITY PREDICTED BY RF-SCORE:    0.00 PKD
ROOT
HETATM    1  C   UNL     1     -13.652  14.001  72.476  1.00  0.00    -0.670 C  
HETATM    2  C   UNL     1     -13.589  14.870  71.255  1.00  0.00    -0.504 C  
HETATM    3  C   UNL     1     -12.589  13.747  71.430  1.00  0.00    -0.433 C  
ENDROOT
BRANCH   3   4
HETATM    4  C   UNL     1     -12.642  12.473  70.618  1.00  0.00    -0.155 C  
BRANCH   4   5
HETATM    5  N   UNL     1     -11.519  12.438  69.706  1.00  0.00    -0.486 NA 
HETATM    6  H   UNL     1     -10.594  12.200  70.063  1.00  0.00     0.000 HD 
BRANCH   5   7
HETATM    7  C   UNL     1     -11.672  12.716  68.391  1.00  0.00    -0.333 A  
HETATM    8  N   UNL     1     -11.835  11.898  67.409  1.00  0.00    -0.611 NA 
HETATM    9  C   UNL     1     -11.971  12.756  66.235  1.00  0.00    -0.395 A  
HETATM   10  C   UNL     1     -11.980  14.171  66.766  1.00  0.00    -0.447 A  
HETATM   11  O   UNL     1     -11.676  14.047  68.145  1.00  0.00    -0.313 OA 
ENDBRANCH   5   7
ENDBRANCH   4   5
BRANCH   4  12
HETATM   12  C   UNL     1     -12.558  11.261  71.519  1.00  0.00    -0.418 C  
HETATM   13  C   UNL     1     -11.647  10.108  71.159  1.00  0.00    -0.430 C  
HETATM   14  C   UNL     1     -13.136   9.932  71.090  1.00  0.00    -0.453 C  
ENDBRANCH   4  12
ENDBRANCH   3   4
TORSDOF 4
ENDMDL
MODEL        3
REMARK 921   NORMALIZED FREE ENERGY PREDICTED BY IDOCK:   -4.42 KCAL/MOL
REMARK 922        TOTAL FREE ENERGY PREDICTED BY IDOCK:   -5.89 KCAL/MOL
REMARK 923 INTER-LIGAND FREE ENERGY PREDICTED BY IDOCK:   -5.38 KCAL/MOL
REMARK 924 INTRA-LIGAND FREE ENERGY PREDICTED BY IDOCK:   -0.52 KCAL/MOL
REMARK 927      BINDING AFFINITY PREDICTED BY RF-SCORE:    0.00 PKD
ROOT
HETATM    1  C   UNL     1     -11.931  13.133  67.801  1.00  0.00    -0.352 C  
HETATM    2  C   UNL     1     -10.779  12.405  67.175  1.00  0.00    -0.264 C  
HETATM    3  C   UNL     1     -11.945  12.846  66.316  1.00  0.00    -0.472 C  
ENDROOT
BRANCH   3   4
HETATM    4  C   UNL     1     -11.850  13.998  65.341  1.00  0.00    -0.359 C  
BRANCH   4   5
HETATM    5  N   UNL     1     -10.578  14.666  65.511  1.00  0.00    -0.331 NA 
HETATM    6  H   UNL     1      -9.715  14.137  65.384  1.00  0.00     0.000 HD 
BRANCH   5   7
HETATM    7  C   UNL     1     -10.510  15.978  65.835  1.00  0.00    -0.359 A  
HETATM    8  N   UNL     1     -10.702  17.004  65.079  1.00  0.00    -0.693 NA 
HETATM    9  C   UNL     1     -10.524  18.151  65.967  1.00  0.00    -0.335 A  
HETATM   10  C   UNL     1     -10.328  17.568  67.347  1.00  0.00    -0.351 A  
HETATM   11  O   UNL     1     -10.229  16.169  67.144  1.00  0.00    -0.269 OA 
ENDBRANCH   5   7
ENDBRANCH   4   5
BRANCH   4  12
HETATM   12  C   UNL     1     -11.936  13.500  63.915  1.00  0.00    -0.491 C  
HETATM   13  C   UNL     1     -12.457  12.110  63.627  1.00  0.00    -0.658 C  
HETATM   14  C   UNL     1     -11.006  12.421  63.412  1.00  0.00    -0.442 C  
ENDBRANCH   4  12
ENDBRANCH   3   4
TORSDOF 4
ENDMDL
MODEL        4
REMARK 921   NORMALIZED FREE ENERGY PREDICTED BY IDOCK:   -4.36 KCAL/MOL
REMARK 922        TOTAL FREE ENERGY PREDICTED BY IDOCK:   -5.82 KCAL/MOL
REMARK 923 INTER-LIGAND FREE ENERGY PREDICTED BY IDOCK:   -5.37 KCAL/MOL
REMARK 924 INTRA-LIGAND FREE ENERGY PREDICTED BY IDOCK:   -0.44 KCAL/MOL
REMARK 927      BINDING AFFINITY PREDICTED BY RF-SCORE:    0.00 PKD
ROOT
HETATM    1  C   UNL     1      -9.456  16.440  68.136  1.00  0.00    -0.213 C  
HETATM    2  C   UNL     1     -10.704  17.243  67.921  1.00  0.00    -0.351 C  
HETATM    3  C   UNL     1     -10.710  15.756  67.639  1.00  0.00    -0.310 C  
ENDROOT
BRANCH   3   4
HETATM    4  C   UNL     1     -11.411  14.759  68.535  1.00  0.00    -0.290 C  
BRANCH   4   5
HETATM    5  N   UNL     1     -12.470  15.427  69.259  1.00  0.00    -0.603 NA 
HETATM    6  H   UNL     1     -13.247  15.837  68.742  1.00  0.00     0.000 HD 
BRANCH   5   7
HETATM    7  C   UNL     1     -12.449  15.520  70.609  1.00  0.00    -0.435 A  
HETATM    8  N   UNL     1     -11.430  15.567  71.397  1.00  0.00    -0.382 NA 
HETATM    9  C   UNL     1     -12.006  15.690  72.734  1.00  0.00    -0.484 A  
HETATM   10  C   UNL     1     -13.496  15.825  72.522  1.00  0.00    -0.498 A  
HETATM   11  O   UNL     1     -13.692  15.598  71.137  1.00  0.00    -0.591 OA 
ENDBRANCH   5   7
ENDBRANCH   4   5
BRANCH   4  12
HETATM   12  C   UNL     1     -12.026  13.646  67.717  1.00  0.00    -0.387 C  
HETATM   13  C   UNL     1     -11.177  12.859  66.744  1.00  0.00    -0.337 C  
HETATM   14  C   UNL     1     -12.227  13.797  66.226  1.00  0.00    -0.489 C  
ENDBRANCH   4  12
ENDBRANCH   3   4
TORSDOF 4
ENDMDL
MODEL        5
REMARK 921   NORMALIZED FREE ENERGY PREDICTED BY IDOCK:   -4.35 KCAL/MOL
REMARK 922        TOTAL FREE ENERGY PREDICTED BY IDOCK:   -5.81 KCAL/MOL
REMARK 923 INTER-LIGAND FREE ENERGY PREDICTED BY IDOCK:   -5.34 KCAL/MOL
REMARK 924 INTRA-LIGAND FREE ENERGY PREDICTED BY IDOCK:   -0.47 KCAL/MOL
REMARK 927      BINDING AFFINITY PREDICTED BY RF-SCORE:    0.00 PKD
ROOT
HETATM    1  C   UNL     1      -9.415  16.082  67.986  1.00  0.00    -0.207 C  
HETATM    2  C   UNL     1     -10.597  16.991  67.825  1.00  0.00    -0.350 C  
HETATM    3  C   UNL     1     -10.791  15.491  67.775  1.00  0.00    -0.309 C  
ENDROOT
BRANCH   3   4
HETATM    4  C   UNL     1     -11.441  14.715  68.898  1.00  0.00    -0.298 C  
BRANCH   4   5
HETATM    5  N   UNL     1     -12.601  15.438  69.372  1.00  0.00    -0.596 NA 
HETATM    6  H   UNL     1     -13.248  15.843  68.695  1.00  0.00     0.000 HD 
BRANCH   5   7
HETATM    7  C   UNL     1     -12.844  15.587  70.694  1.00  0.00    -0.413 A  
HETATM    8  N   UNL     1     -13.884  15.232  71.367  1.00  0.00    -0.507 NA 
HETATM    9  C   UNL     1     -13.581  15.618  72.743  1.00  0.00    -0.593 A  
HETATM   10  C   UNL     1     -12.158  16.126  72.716  1.00  0.00    -0.553 A  
HETATM   11  O   UNL     1     -11.808  16.167  71.344  1.00  0.00    -0.441 OA 
ENDBRANCH   5   7
ENDBRANCH   4   5
BRANCH   4  12
HETATM   12  C   UNL     1     -11.896  13.355  68.414  1.00  0.00    -0.401 C  
HETATM   13  C   UNL     1     -10.907  12.407  67.773  1.00  0.00    -0.257 C  
HETATM   14  C   UNL     1     -11.978  13.044  66.938  1.00  0.00    -0.415 C  
ENDBRANCH   4  12
ENDBRANCH   3   4
TORSDOF 4
ENDMDL
MODEL        6
REMARK 921   NORMALIZED FREE ENERGY PREDICTED BY IDOCK:   -4.31 KCAL/MOL
REMARK 922        TOTAL FREE ENERGY PREDICTED BY IDOCK:   -5.76 KCAL/MOL
REMARK 923 INTER-LIGAND FREE ENERGY PREDICTED BY IDOCK:   -5.33 KCAL/MOL
REMARK 924 INTRA-LIGAND FREE ENERGY PREDICTED BY IDOCK:   -0.43 KCAL/MOL
REMARK 927      BINDING AFFINITY PREDICTED BY RF-SCORE:    0.00 PKD
ROOT
HETATM    1  C   UNL     1     -12.527  12.015  63.564  1.00  0.00    -0.654 C  
HETATM    2  C   UNL     1     -11.125  11.484  63.524  1.00  0.00    -0.434 C  
HETATM    3  C   UNL     1     -11.362  12.964  63.736  1.00  0.00    -0.490 C  
ENDROOT
BRANCH   3   4
HETATM    4  C   UNL     1     -11.152  13.640  65.072  1.00  0.00    -0.332 C  
BRANCH   4   5
HETATM    5  N   UNL     1     -11.366  15.064  64.927  1.00  0.00    -0.408 NA 
HETATM    6  H   UNL     1     -12.212  15.397  64.466  1.00  0.00     0.000 HD 
BRANCH   5   7
HETATM    7  C   UNL     1     -10.465  15.961  65.391  1.00  0.00    -0.405 A  
HETATM    8  N   UNL     1     -10.596  17.235  65.529  1.00  0.00    -0.589 NA 
HETATM    9  C   UNL     1      -9.323  17.676  66.094  1.00  0.00    -0.136 A  
HETATM   10  C   UNL     1      -8.535  16.412  66.352  1.00  0.00    -0.329 A  
HETATM   11  O   UNL     1      -9.306  15.374  65.771  1.00  0.00    -0.325 OA 
ENDBRANCH   5   7
ENDBRANCH   4   5
BRANCH   4  12
HETATM   12  C   UNL     1     -12.134  13.116  66.096  1.00  0.00    -0.479 C  
HETATM   13  C   UNL     1     -12.115  13.650  67.511  1.00  0.00    -0.352 C  
HETATM   14  C   UNL     1     -11.672  12.242  67.239  1.00  0.00    -0.394 C  
ENDBRANCH   4  12
ENDBRANCH   3   4
TORSDOF 4
ENDMDL
MODEL        7
REMARK 921   NORMALIZED FREE ENERGY PREDICTED BY IDOCK:   -4.27 KCAL/MOL
REMARK 922        TOTAL FREE ENERGY PREDICTED BY IDOCK:   -5.71 KCAL/MOL
REMARK 923 INTER-LIGAND FREE ENERGY PREDICTED BY IDOCK:   -5.28 KCAL/MOL
REMARK 924 INTRA-LIGAND FREE ENERGY PREDICTED BY IDOCK:   -0.43 KCAL/MOL
REMARK 927      BINDING AFFINITY PREDICTED BY RF-SCORE:    0.00 PKD
ROOT
HETATM    1  C   UNL     1     -11.804  12.162  69.482  1.00  0.00    -0.386 C  
HETATM    2  C   UNL     1     -12.114  13.592  69.812  1.00  0.00    -0.381 C  
HETATM    3  C   UNL     1     -10.946  13.267  68.906  1.00  0.00    -0.278 C  
ENDROOT
BRANCH   3   4
HETATM    4  C   UNL     1     -10.973  13.522  67.416  1.00  0.00    -0.272 C  
BRANCH   4   5
HETATM    5  N   UNL     1     -12.005  12.710  66.810  1.00  0.00    -0.519 NA 
HETATM    6  H   UNL     1     -12.764  12.352  67.389  1.00  0.00     0.000 HD 
BRANCH   5   7
HETATM    7  C   UNL     1     -11.983  12.415  65.490  1.00  0.00    -0.391 A  
HETATM    8  N   UNL     1     -12.914  12.575  64.613  1.00  0.00    -0.844 NA 
HETATM    9  C   UNL     1     -12.322  12.110  63.361  1.00  0.00    -0.538 A  
HETATM   10  C   UNL     1     -10.881  11.792  63.687  1.00  0.00    -0.440 A  
HETATM   11  O   UNL     1     -10.788  11.917  65.096  1.00  0.00    -0.284 OA 
ENDBRANCH   5   7
ENDBRANCH   4   5
BRANCH   4  12
HETATM   12  C   UNL     1     -11.284  14.974  67.129  1.00  0.00    -0.336 C  
HETATM   13  C   UNL     1     -10.458  15.743  66.122  1.00  0.00    -0.326 C  
HETATM   14  C   UNL     1     -10.350  16.073  67.581  1.00  0.00    -0.284 C  
ENDBRANCH   4  12
ENDBRANCH   3   4
TORSDOF 4
ENDMDL
MODEL        8
REMARK 921   NORMALIZED FREE ENERGY PREDICTED BY IDOCK:   -4.26 KCAL/MOL
REMARK 922        TOTAL FREE ENERGY PREDICTED BY IDOCK:   -5.70 KCAL/MOL
REMARK 923 INTER-LIGAND FREE ENERGY PREDICTED BY IDOCK:   -5.33 KCAL/MOL
REMARK 924 INTRA-LIGAND FREE ENERGY PREDICTED BY IDOCK:   -0.38 KCAL/MOL
REMARK 927      BINDING AFFINITY PREDICTED BY RF-SCORE:    0.00 PKD
ROOT
HETATM    1  C   UNL     1     -12.442  11.192  71.229  1.00  0.00    -0.466 C  
HETATM    2  C   UNL     1     -11.672  11.478  69.974  1.00  0.00    -0.414 C  
HETATM    3  C   UNL     1     -12.757  12.434  70.424  1.00  0.00     0.033 C  
ENDROOT
BRANCH   3   4
HETATM    4  C   UNL     1     -12.454  13.792  71.014  1.00  0.00    -0.380 C  
BRANCH   4   5
HETATM    5  N   UNL     1     -12.806  14.819  70.059  1.00  0.00    -0.588 NA 
HETATM    6  H   UNL     1     -13.790  15.000  69.860  1.00  0.00     0.000 HD 
BRANCH   5   7
HETATM    7  C   UNL     1     -11.856  15.545  69.424  1.00  0.00    -0.374 A  
HETATM    8  N   UNL     1     -10.985  16.347  69.930  1.00  0.00    -0.361 NA 
HETATM    9  C   UNL     1     -10.213  16.821  68.783  1.00  0.00    -0.299 A  
HETATM   10  C   UNL     1     -10.734  16.045  67.596  1.00  0.00    -0.320 A  
HETATM   11  O   UNL     1     -11.856  15.331  68.088  1.00  0.00    -0.330 OA 
ENDBRANCH   5   7
ENDBRANCH   4   5
BRANCH   4  12
HETATM   12  C   UNL     1     -13.261  14.019  72.273  1.00  0.00    -0.558 C  
HETATM   13  C   UNL     1     -14.040  15.302  72.455  1.00  0.00    -0.622 C  
HETATM   14  C   UNL     1     -12.829  15.040  73.300  1.00  0.00    -0.647 C  
ENDBRANCH   4  12
ENDBRANCH   3   4
TORSDOF 4
ENDMDL
MODEL        9
REMARK 921   NORMALIZED FREE ENERGY PREDICTED BY IDOCK:   -4.26 KCAL/MOL
REMARK 922        TOTAL FREE ENERGY PREDICTED BY IDOCK:   -5.70 KCAL/MOL
REMARK 923 INTER-LIGAND FREE ENERGY PREDICTED BY IDOCK:   -5.29 KCAL/MOL
REMARK 924 INTRA-LIGAND FREE ENERGY PREDICTED BY IDOCK:   -0.41 KCAL/MOL
REMARK 927      BINDING AFFINITY PREDICTED BY RF-SCORE:    0.00 PKD
ROOT
HETATM    1  C   UNL     1     -12.031  11.293  70.064  1.00  0.00    -0.447 C  
HETATM    2  C   UNL     1     -10.870  10.989  69.166  1.00  0.00    -0.283 C  
HETATM    3  C   UNL     1     -11.904  12.008  68.737  1.00  0.00    -0.358 C  
ENDROOT
BRANCH   3   4
HETATM    4  C   UNL     1     -11.628  13.494  68.722  1.00  0.00    -0.325 C  
BRANCH   4   5
HETATM    5  N   UNL     1     -12.479  14.130  67.740  1.00  0.00    -0.476 NA 
HETATM    6  H   UNL     1     -13.312  14.630  68.050  1.00  0.00     0.000 HD 
BRANCH   5   7
HETATM    7  C   UNL     1     -12.192  14.074  66.419  1.00  0.00    -0.460 A  
HETATM    8  N   UNL     1     -12.988  13.845  65.432  1.00  0.00    -0.748 NA 
HETATM    9  C   UNL     1     -12.136  13.932  64.247  1.00  0.00    -0.440 A  
HETATM   10  C   UNL     1     -10.781  14.367  64.754  1.00  0.00    -0.403 A  
HETATM   11  O   UNL     1     -10.887  14.329  66.167  1.00  0.00    -0.301 OA 
ENDBRANCH   5   7
ENDBRANCH   4   5
BRANCH   4  12
HETATM   12  C   UNL     1     -11.926  14.106  70.073  1.00  0.00    -0.404 C  
HETATM   13  C   UNL     1     -12.407  15.536  70.170  1.00  0.00    -0.384 C  
HETATM   14  C   UNL     1     -11.033  15.178  70.654  1.00  0.00    -0.260 C  
ENDBRANCH   4  12
ENDBRANCH   3   4
TORSDOF 4
ENDMDL
MODEL       10
REMARK 921   NORMALIZED FREE ENERGY PREDICTED BY IDOCK:   -4.24 KCAL/MOL
REMARK 922        TOTAL FREE ENERGY PREDICTED BY IDOCK:   -5.68 KCAL/MOL
REMARK 923 INTER-LIGAND FREE ENERGY PREDICTED BY IDOCK:   -5.24 KCAL/MOL
REMARK 924 INTRA-LIGAND FREE ENERGY PREDICTED BY IDOCK:   -0.44 KCAL/MOL
REMARK 927      BINDING AFFINITY PREDICTED BY RF-SCORE:    0.00 PKD
ROOT
HETATM    1  C   UNL     1     -13.620  15.535  72.488  1.00  0.00    -0.646 C  
HETATM    2  C   UNL     1     -12.716  15.009  73.563  1.00  0.00    -0.667 C  
HETATM    3  C   UNL     1     -13.359  14.048  72.586  1.00  0.00    -0.643 C  
ENDROOT
BRANCH   3   4
HETATM    4  C   UNL     1     -12.582  13.360  71.486  1.00  0.00    -0.236 C  
BRANCH   4   5
HETATM    5  N   UNL     1     -13.251  12.130  71.124  1.00  0.00    -0.011 NA 
HETATM    6  H   UNL     1     -14.151  12.172  70.647  1.00  0.00     0.000 HD 
BRANCH   5   7
HETATM    7  C   UNL     1     -12.706  10.924  71.407  1.00  0.00    -0.434 A  
HETATM    8  N   UNL     1     -13.167   9.990  72.165  1.00  0.00    -0.436 NA 
HETATM    9  C   UNL     1     -12.177   8.919  72.072  1.00  0.00    -0.377 A  
HETATM   10  C   UNL     1     -11.173   9.385  71.043  1.00  0.00    -0.342 A  
HETATM   11  O   UNL     1     -11.538  10.723  70.753  1.00  0.00    -0.322 OA 
ENDBRANCH   5   7
ENDBRANCH   4   5
BRANCH   4  12
HETATM   12  C   UNL     1     -12.508  14.238  70.256  1.00  0.00    -0.422 C  
HETATM   13  C   UNL     1     -12.004  13.671  68.948  1.00  0.00    -0.392 C  
HETATM   14  C   UNL     1     -11.175  14.675  69.693  1.00  0.00    -0.307 C  
ENDBRANCH   4  12
ENDBRANCH   3   4
TORSDOF 4
ENDMDL
MODEL       11
REMARK 921   NORMALIZED FREE ENERGY PREDICTED BY IDOCK:   -4.21 KCAL/MOL
REMARK 922        TOTAL FREE ENERGY PREDICTED BY IDOCK:   -5.64 KCAL/MOL
REMARK 923 INTER-LIGAND FREE ENERGY PREDICTED BY IDOCK:   -5.23 KCAL/MOL
REMARK 924 INTRA-LIGAND FREE ENERGY PREDICTED BY IDOCK:   -0.40 KCAL/MOL
REMARK 927      BINDING AFFINITY PREDICTED BY RF-SCORE:    0.00 PKD
ROOT
HETATM    1  C   UNL     1     -11.683   9.940  70.962  1.00  0.00    -0.466 C  
HETATM    2  C   UNL     1     -13.081  10.100  71.479  1.00  0.00    -0.529 C  
HETATM    3  C   UNL     1     -12.197  11.318  71.317  1.00  0.00    -0.275 C  
ENDROOT
BRANCH   3   4
HETATM    4  C   UNL     1     -12.402  12.335  70.217  1.00  0.00    -0.189 C  
BRANCH   4   5
HETATM    5  N   UNL     1     -11.809  13.594  70.611  1.00  0.00    -0.522 NA 
HETATM    6  H   UNL     1     -10.923  13.880  70.195  1.00  0.00     0.000 HD 
BRANCH   5   7
HETATM    7  C   UNL     1     -12.406  14.398  71.521  1.00  0.00    -0.353 A  
HETATM    8  N   UNL     1     -11.863  15.094  72.459  1.00  0.00    -0.396 NA 
HETATM    9  C   UNL     1     -12.982  15.779  73.103  1.00  0.00    -0.544 A  
HETATM   10  C   UNL     1     -14.198  15.433  72.275  1.00  0.00    -0.545 A  
HETATM   11  O   UNL     1     -13.747  14.459  71.349  1.00  0.00    -0.372 OA 
ENDBRANCH   5   7
ENDBRANCH   4   5
BRANCH   4  12
HETATM   12  C   UNL     1     -11.738  11.879  68.937  1.00  0.00    -0.381 C  
HETATM   13  C   UNL     1     -10.424  12.489  68.503  1.00  0.00    -0.246 C  
HETATM   14  C   UNL     1     -11.674  12.785  67.729  1.00  0.00    -0.412 C  
ENDBRANCH   4  12
ENDBRANCH   3   4
TORSDOF 4
ENDMDL
MODEL       12
REMARK 921   NORMALIZED FREE ENERGY PREDICTED BY IDOCK:   -4.19 KCAL/MOL
REMARK 922        TOTAL FREE ENERGY PREDICTED BY IDOCK:   -5.61 KCAL/MOL
REMARK 923 INTER-LIGAND FREE ENERGY PREDICTED BY IDOCK:   -5.18 KCAL/MOL
REMARK 924 INTRA-LIGAND FREE ENERGY PREDICTED BY IDOCK:   -0.43 KCAL/MOL
REMARK 927      BINDING AFFINITY PREDICTED BY RF-SCORE:    0.00 PKD
ROOT
HETATM    1  C   UNL     1     -11.248  10.703  67.796  1.00  0.00    -0.383 C  
HETATM    2  C   UNL     1     -10.501  10.868  69.086  1.00  0.00    -0.248 C  
HETATM    3  C   UNL     1     -10.792  12.080  68.227  1.00  0.00    -0.263 C  
ENDROOT
BRANCH   3   4
HETATM    4  C   UNL     1     -11.827  13.117  68.602  1.00  0.00    -0.328 C  
BRANCH   4   5
HETATM    5  N   UNL     1     -11.453  13.737  69.854  1.00  0.00    -0.448 NA 
HETATM    6  H   UNL     1     -10.465  13.878  70.066  1.00  0.00     0.000 HD 
BRANCH   5   7
HETATM    7  C   UNL     1     -12.387  14.134  70.749  1.00  0.00    -0.369 A  
HETATM    8  N   UNL     1     -12.917  15.300  70.895  1.00  0.00    -0.443 NA 
HETATM    9  C   UNL     1     -13.872  15.134  71.988  1.00  0.00    -0.504 A  
HETATM   10  C   UNL     1     -13.856  13.659  72.319  1.00  0.00    -0.590 A  
HETATM   11  O   UNL     1     -12.797  13.121  71.546  1.00  0.00    -0.358 OA 
ENDBRANCH   5   7
ENDBRANCH   4   5
BRANCH   4  12
HETATM   12  C   UNL     1     -11.910  14.196  67.545  1.00  0.00    -0.437 C  
HETATM   13  C   UNL     1     -12.393  13.859  66.152  1.00  0.00    -0.504 C  
HETATM   14  C   UNL     1     -10.952  14.213  66.376  1.00  0.00    -0.311 C  
ENDBRANCH   4  12
ENDBRANCH   3   4
TORSDOF 4
ENDMDL
MODEL       13
REMARK 921   NORMALIZED FREE ENERGY PREDICTED BY IDOCK:   -4.19 KCAL/MOL
REMARK 922        TOTAL FREE ENERGY PREDICTED BY IDOCK:   -5.61 KCAL/MOL
REMARK 923 INTER-LIGAND FREE ENERGY PREDICTED BY IDOCK:   -5.22 KCAL/MOL
REMARK 924 INTRA-LIGAND FREE ENERGY PREDICTED BY IDOCK:   -0.39 KCAL/MOL
REMARK 927      BINDING AFFINITY PREDICTED BY RF-SCORE:    0.00 PKD
ROOT
HETATM    1  C   UNL     1     -11.744   9.842  70.852  1.00  0.00    -0.449 C  
HETATM    2  C   UNL     1     -10.399   9.986  70.204  1.00  0.00    -0.321 C  
HETATM    3  C   UNL     1     -11.644  10.397  69.448  1.00  0.00    -0.272 C  
ENDROOT
BRANCH   3   4
HETATM    4  C   UNL     1     -12.008  11.843  69.198  1.00  0.00    -0.276 C  
BRANCH   4   5
HETATM    5  N   UNL     1     -11.709  12.622  70.380  1.00  0.00    -0.542 NA 
HETATM    6  H   UNL     1     -10.767  12.598  70.770  1.00  0.00     0.000 HD 
BRANCH   5   7
HETATM    7  C   UNL     1     -12.655  13.383  70.978  1.00  0.00    -0.343 A  
HETATM    8  N   UNL     1     -13.408  13.089  71.982  1.00  0.00    -0.494 NA 
HETATM    9  C   UNL     1     -14.209  14.290  72.204  1.00  0.00    -0.542 A  
HETATM   10  C   UNL     1     -13.674  15.319  71.235  1.00  0.00    -0.490 A  
HETATM   11  O   UNL     1     -12.754  14.612  70.420  1.00  0.00    -0.348 OA 
ENDBRANCH   5   7
ENDBRANCH   4   5
BRANCH   4  12
HETATM   12  C   UNL     1     -11.205  12.404  68.046  1.00  0.00    -0.317 C  
HETATM   13  C   UNL     1     -11.907  13.079  66.889  1.00  0.00    -0.442 C  
HETATM   14  C   UNL     1     -11.240  11.751  66.684  1.00  0.00    -0.383 C  
ENDBRANCH   4  12
ENDBRANCH   3   4
TORSDOF 4
ENDMDL
MODEL       14
REMARK 921   NORMALIZED FREE ENERGY PREDICTED BY IDOCK:   -4.19 KCAL/MOL
REMARK 922        TOTAL FREE ENERGY PREDICTED BY IDOCK:   -5.61 KCAL/MOL
REMARK 923 INTER-LIGAND FREE ENERGY PREDICTED BY IDOCK:   -5.21 KCAL/MOL
REMARK 924 INTRA-LIGAND FREE ENERGY PREDICTED BY IDOCK:   -0.40 KCAL/MOL
REMARK 927      BINDING AFFINITY PREDICTED BY RF-SCORE:    0.00 PKD
ROOT
HETATM    1  C   UNL     1     -13.257  15.482  71.245  1.00  0.00    -0.588 C  
HETATM    2  C   UNL     1     -12.028  15.812  72.038  1.00  0.00    -0.570 C  
HETATM    3  C   UNL     1     -11.945  14.808  70.908  1.00  0.00    -0.384 C  
ENDROOT
BRANCH   3   4
HETATM    4  C   UNL     1     -11.274  15.118  69.589  1.00  0.00    -0.272 C  
BRANCH   4   5
HETATM    5  N   UNL     1     -12.219  14.917  68.512  1.00  0.00    -0.597 NA 
HETATM    6  H   UNL     1     -13.071  15.476  68.485  1.00  0.00     0.000 HD 
BRANCH   5   7
HETATM    7  C   UNL     1     -11.993  14.003  67.541  1.00  0.00    -0.395 A  
HETATM    8  N   UNL     1     -11.313  12.910  67.606  1.00  0.00    -0.285 NA 
HETATM    9  C   UNL     1     -11.437  12.321  66.275  1.00  0.00    -0.380 A  
HETATM   10  C   UNL     1     -12.398  13.214  65.525  1.00  0.00    -0.474 A  
HETATM   11  O   UNL     1     -12.616  14.321  66.382  1.00  0.00    -0.396 OA 
ENDBRANCH   5   7
ENDBRANCH   4   5
BRANCH   4  12
HETATM   12  C   UNL     1     -10.811  16.558  69.551  1.00  0.00    -0.315 C  
HETATM   13  C   UNL     1     -10.871  17.340  68.258  1.00  0.00    -0.287 C  
HETATM   14  C   UNL     1      -9.541  16.946  68.830  1.00  0.00    -0.268 C  
ENDBRANCH   4  12
ENDBRANCH   3   4
TORSDOF 4
ENDMDL
MODEL       15
REMARK 921   NORMALIZED FREE ENERGY PREDICTED BY IDOCK:   -4.17 KCAL/MOL
REMARK 922        TOTAL FREE ENERGY PREDICTED BY IDOCK:   -5.58 KCAL/MOL
REMARK 923 INTER-LIGAND FREE ENERGY PREDICTED BY IDOCK:   -5.10 KCAL/MOL
REMARK 924 INTRA-LIGAND FREE ENERGY PREDICTED BY IDOCK:   -0.49 KCAL/MOL
REMARK 927      BINDING AFFINITY PREDICTED BY RF-SCORE:    0.00 PKD
ROOT
HETATM    1  C   UNL     1     -11.702  12.212  67.780  1.00  0.00    -0.390 C  
HETATM    2  C   UNL     1     -10.358  11.796  67.261  1.00  0.00    -0.231 C  
HETATM    3  C   UNL     1     -11.455  12.173  66.288  1.00  0.00    -0.433 C  
ENDROOT
BRANCH   3   4
HETATM    4  C   UNL     1     -11.443  13.468  65.507  1.00  0.00    -0.304 C  
BRANCH   4   5
HETATM    5  N   UNL     1     -10.237  14.204  65.818  1.00  0.00    -0.318 NA 
HETATM    6  H   UNL     1      -9.330  13.774  65.639  1.00  0.00     0.000 HD 
BRANCH   5   7
HETATM    7  C   UNL     1     -10.290  15.450  66.342  1.00  0.00    -0.296 A  
HETATM    8  N   UNL     1     -10.243  15.805  67.580  1.00  0.00    -0.261 NA 
HETATM    9  C   UNL     1     -10.313  17.264  67.546  1.00  0.00    -0.346 A  
HETATM   10  C   UNL     1     -10.280  17.637  66.082  1.00  0.00    -0.343 A  
HETATM   11  O   UNL     1     -10.372  16.405  65.387  1.00  0.00    -0.535 OA 
ENDBRANCH   5   7
ENDBRANCH   4   5
BRANCH   4  12
HETATM   12  C   UNL     1     -11.461  13.195  64.019  1.00  0.00    -0.455 C  
HETATM   13  C   UNL     1     -12.354  12.112  63.456  1.00  0.00    -0.682 C  
HETATM   14  C   UNL     1     -10.866  11.926  63.455  1.00  0.00    -0.502 C  
ENDBRANCH   4  12
ENDBRANCH   3   4
TORSDOF 4
ENDMDL
MODEL       16
REMARK 921   NORMALIZED FREE ENERGY PREDICTED BY IDOCK:   -4.17 KCAL/MOL
REMARK 922        TOTAL FREE ENERGY PREDICTED BY IDOCK:   -5.58 KCAL/MOL
REMARK 923 INTER-LIGAND FREE ENERGY PREDICTED BY IDOCK:   -5.15 KCAL/MOL
REMARK 924 INTRA-LIGAND FREE ENERGY PREDICTED BY IDOCK:   -0.43 KCAL/MOL
REMARK 927      BINDING AFFINITY PREDICTED BY RF-SCORE:    0.00 PKD
ROOT
HETATM    1  C   UNL     1      -9.935  20.080  66.512  1.00  0.00    -0.603 C  
HETATM    2  C   UNL     1     -10.311  19.758  67.928  1.00  0.00    -0.569 C  
HETATM    3  C   UNL     1     -10.651  18.783  66.821  1.00  0.00    -0.458 C  
ENDROOT
BRANCH   3   4
HETATM    4  C   UNL     1      -9.919  17.473  66.634  1.00  0.00    -0.314 C  
BRANCH   4   5
HETATM    5  N   UNL     1     -10.296  16.891  65.365  1.00  0.00    -0.638 NA 
HETATM    6  H   UNL     1     -10.165  17.430  64.509  1.00  0.00     0.000 HD 
BRANCH   5   7
HETATM    7  C   UNL     1     -10.818  15.645  65.290  1.00  0.00    -0.406 A  
HETATM    8  N   UNL     1     -10.573  14.623  66.035  1.00  0.00    -0.298 NA 
HETATM    9  C   UNL     1     -11.438  13.570  65.511  1.00  0.00    -0.304 A  
HETATM   10  C   UNL     1     -12.278  14.231  64.442  1.00  0.00    -0.447 A  
HETATM   11  O   UNL     1     -11.735  15.532  64.301  1.00  0.00    -0.370 OA 
ENDBRANCH   5   7
ENDBRANCH   4   5
BRANCH   4  12
HETATM   12  C   UNL     1      -8.423  17.694  66.628  1.00  0.00    -0.285 C  
HETATM   13  C   UNL     1      -7.482  16.518  66.494  1.00  0.00    -0.270 C  
HETATM   14  C   UNL     1      -7.568  17.258  67.796  1.00  0.00    -0.189 C  
ENDBRANCH   4  12
ENDBRANCH   3   4
TORSDOF 4
ENDMDL
MODEL       17
REMARK 921   NORMALIZED FREE ENERGY PREDICTED BY IDOCK:   -4.16 KCAL/MOL
REMARK 922        TOTAL FREE ENERGY PREDICTED BY IDOCK:   -5.58 KCAL/MOL
REMARK 923 INTER-LIGAND FREE ENERGY PREDICTED BY IDOCK:   -5.10 KCAL/MOL
REMARK 924 INTRA-LIGAND FREE ENERGY PREDICTED BY IDOCK:   -0.48 KCAL/MOL
REMARK 927      BINDING AFFINITY PREDICTED BY RF-SCORE:    0.00 PKD
ROOT
HETATM    1  C   UNL     1      -9.686  15.227  65.719  1.00  0.00    -0.385 C  
HETATM    2  C   UNL     1     -10.996  15.465  65.030  1.00  0.00    -0.450 C  
HETATM    3  C   UNL     1     -10.289  14.137  64.861  1.00  0.00    -0.435 C  
ENDROOT
BRANCH   3   4
HETATM    4  C   UNL     1     -10.775  12.865  65.518  1.00  0.00    -0.279 C  
BRANCH   4   5
HETATM    5  N   UNL     1     -11.912  13.165  66.360  1.00  0.00    -0.401 NA 
HETATM    6  H   UNL     1     -12.742  13.590  65.947  1.00  0.00     0.000 HD 
BRANCH   5   7
HETATM    7  C   UNL     1     -11.896  12.893  67.685  1.00  0.00    -0.346 A  
HETATM    8  N   UNL     1     -11.897  13.717  68.676  1.00  0.00    -0.357 NA 
HETATM    9  C   UNL     1     -11.903  12.865  69.863  1.00  0.00    -0.303 A  
HETATM   10  C   UNL     1     -12.030  11.451  69.344  1.00  0.00    -0.339 A  
HETATM   11  O   UNL     1     -11.911  11.564  67.936  1.00  0.00    -0.565 OA 
ENDBRANCH   5   7
ENDBRANCH   4   5
BRANCH   4  12
HETATM   12  C   UNL     1     -11.211  11.859  64.475  1.00  0.00    -0.380 C  
HETATM   13  C   UNL     1     -10.509  11.799  63.137  1.00  0.00    -0.359 C  
HETATM   14  C   UNL     1     -11.920  12.301  63.217  1.00  0.00    -0.499 C  
ENDBRANCH   4  12
ENDBRANCH   3   4
TORSDOF 4
ENDMDL
MODEL       18
REMARK 921   NORMALIZED FREE ENERGY PREDICTED BY IDOCK:   -4.15 KCAL/MOL
REMARK 922        TOTAL FREE ENERGY PREDICTED BY IDOCK:   -5.56 KCAL/MOL
REMARK 923 INTER-LIGAND FREE ENERGY PREDICTED BY IDOCK:   -5.09 KCAL/MOL
REMARK 924 INTRA-LIGAND FREE ENERGY PREDICTED BY IDOCK:   -0.48 KCAL/MOL
REMARK 927      BINDING AFFINITY PREDICTED BY RF-SCORE:    0.00 PKD
ROOT
HETATM    1  C   UNL     1      -9.622  15.704  65.814  1.00  0.00    -0.361 C  
HETATM    2  C   UNL     1     -10.859  15.863  64.983  1.00  0.00    -0.444 C  
HETATM    3  C   UNL     1     -10.376  14.477  65.351  1.00  0.00    -0.405 C  
ENDROOT
BRANCH   3   4
HETATM    4  C   UNL     1     -11.079  13.613  66.374  1.00  0.00    -0.303 C  
BRANCH   4   5
HETATM    5  N   UNL     1     -12.066  14.406  67.074  1.00  0.00    -0.524 NA 
HETATM    6  H   UNL     1     -12.804  14.867  66.542  1.00  0.00     0.000 HD 
BRANCH   5   7
HETATM    7  C   UNL     1     -12.028  14.548  68.418  1.00  0.00    -0.274 A  
HETATM    8  N   UNL     1     -12.104  13.637  69.327  1.00  0.00    -0.335 NA 
HETATM    9  C   UNL     1     -11.982  14.365  70.588  1.00  0.00    -0.323 A  
HETATM   10  C   UNL     1     -11.703  15.799  70.202  1.00  0.00    -0.356 A  
HETATM   11  O   UNL     1     -11.858  15.837  68.793  1.00  0.00    -0.387 OA 
ENDBRANCH   5   7
ENDBRANCH   4   5
BRANCH   4  12
HETATM   12  C   UNL     1     -11.789  12.459  65.701  1.00  0.00    -0.468 C  
HETATM   13  C   UNL     1     -11.234  11.865  64.426  1.00  0.00    -0.401 C  
HETATM   14  C   UNL     1     -12.511  12.651  64.388  1.00  0.00    -0.509 C  
ENDBRANCH   4  12
ENDBRANCH   3   4
TORSDOF 4
ENDMDL
MODEL       19
REMARK 921   NORMALIZED FREE ENERGY PREDICTED BY IDOCK:   -4.14 KCAL/MOL
REMARK 922        TOTAL FREE ENERGY PREDICTED BY IDOCK:   -5.55 KCAL/MOL
REMARK 923 INTER-LIGAND FREE ENERGY PREDICTED BY IDOCK:   -5.18 KCAL/MOL
REMARK 924 INTRA-LIGAND FREE ENERGY PREDICTED BY IDOCK:   -0.37 KCAL/MOL
REMARK 927      BINDING AFFINITY PREDICTED BY RF-SCORE:    0.00 PKD
ROOT
HETATM    1  C   UNL     1      -9.532  15.003  67.276  1.00  0.00    -0.212 C  
HETATM    2  C   UNL     1     -10.576  16.040  66.983  1.00  0.00    -0.302 C  
HETATM    3  C   UNL     1     -10.840  14.590  66.638  1.00  0.00    -0.311 C  
ENDROOT
BRANCH   3   4
HETATM    4  C   UNL     1     -11.803  13.727  67.421  1.00  0.00    -0.396 C  
BRANCH   4   5
HETATM    5  N   UNL     1     -11.850  12.406  66.833  1.00  0.00    -0.557 NA 
HETATM    6  H   UNL     1     -11.758  11.587  67.434  1.00  0.00     0.000 HD 
BRANCH   5   7
HETATM    7  C   UNL     1     -12.014  12.235  65.501  1.00  0.00    -0.321 A  
HETATM    8  N   UNL     1     -12.992  12.617  64.754  1.00  0.00    -0.867 NA 
HETATM    9  C   UNL     1     -12.618  12.187  63.409  1.00  0.00    -0.463 A  
HETATM   10  C   UNL     1     -11.222  11.623  63.539  1.00  0.00    -0.373 A  
HETATM   11  O   UNL     1     -10.963  11.600  64.932  1.00  0.00    -0.303 OA 
ENDBRANCH   5   7
ENDBRANCH   4   5
BRANCH   4  12
HETATM   12  C   UNL     1     -11.349  13.589  68.858  1.00  0.00    -0.332 C  
HETATM   13  C   UNL     1     -11.810  12.414  69.691  1.00  0.00    -0.380 C  
HETATM   14  C   UNL     1     -12.316  13.791  70.001  1.00  0.00    -0.364 C  
ENDBRANCH   4  12
ENDBRANCH   3   4
TORSDOF 4
ENDMDL
MODEL       20
REMARK 921   NORMALIZED FREE ENERGY PREDICTED BY IDOCK:   -4.14 KCAL/MOL
REMARK 922        TOTAL FREE ENERGY PREDICTED BY IDOCK:   -5.55 KCAL/MOL
REMARK 923 INTER-LIGAND FREE ENERGY PREDICTED BY IDOCK:   -5.14 KCAL/MOL
REMARK 924 INTRA-LIGAND FREE ENERGY PREDICTED BY IDOCK:   -0.41 KCAL/MOL
REMARK 927      BINDING AFFINITY PREDICTED BY RF-SCORE:    0.00 PKD
ROOT
HETATM    1  C   UNL     1     -12.845  15.205  70.647  1.00  0.00    -0.440 C  
HETATM    2  C   UNL     1     -11.443  15.132  71.176  1.00  0.00    -0.387 C  
HETATM    3  C   UNL     1     -11.809  14.383  69.912  1.00  0.00    -0.382 C  
ENDROOT
BRANCH   3   4
HETATM    4  C   UNL     1     -11.353  14.826  68.540  1.00  0.00    -0.290 C  
BRANCH   4   5
HETATM    5  N   UNL     1     -12.388  14.533  67.573  1.00  0.00    -0.582 NA 
HETATM    6  H   UNL     1     -13.337  14.867  67.741  1.00  0.00     0.000 HD 
BRANCH   5   7
HETATM    7  C   UNL     1     -12.123  13.825  66.451  1.00  0.00    -0.444 A  
HETATM    8  N   UNL     1     -12.823  13.733  65.374  1.00  0.00    -0.705 NA 
HETATM    9  C   UNL     1     -12.039  12.862  64.500  1.00  0.00    -0.413 A  
HETATM   10  C   UNL     1     -10.747  12.605  65.240  1.00  0.00    -0.289 A  
HETATM   11  O   UNL     1     -10.938  13.176  66.523  1.00  0.00    -0.281 OA 
ENDBRANCH   5   7
ENDBRANCH   4   5
BRANCH   4  12
HETATM   12  C   UNL     1     -11.093  16.316  68.519  1.00  0.00    -0.368 C  
HETATM   13  C   UNL     1     -10.479  16.963  67.298  1.00  0.00    -0.301 C  
HETATM   14  C   UNL     1      -9.683  16.859  68.566  1.00  0.00    -0.264 C  
ENDBRANCH   4  12
ENDBRANCH   3   4
TORSDOF 4
ENDMDL
MODEL       21
REMARK 921   NORMALIZED FREE ENERGY PREDICTED BY IDOCK:   -4.14 KCAL/MOL
REMARK 922        TOTAL FREE ENERGY PREDICTED BY IDOCK:   -5.54 KCAL/MOL
REMARK 923 INTER-LIGAND FREE ENERGY PREDICTED BY IDOCK:   -5.21 KCAL/MOL
REMARK 924 INTRA-LIGAND FREE ENERGY PREDICTED BY IDOCK:   -0.33 KCAL/MOL
REMARK 927      BINDING AFFINITY PREDICTED BY RF-SCORE:    0.00 PKD
ROOT
HETATM    1  C   UNL     1     -11.936  14.158  66.736  1.00  0.00    -0.475 C  
HETATM    2  C   UNL     1     -10.694  13.323  66.836  1.00  0.00    -0.274 C  
HETATM    3  C   UNL     1     -11.069  14.251  67.973  1.00  0.00    -0.286 C  
ENDROOT
BRANCH   3   4
HETATM    4  C   UNL     1     -11.609  13.747  69.292  1.00  0.00    -0.312 C  
BRANCH   4   5
HETATM    5  N   UNL     1     -12.767  14.530  69.666  1.00  0.00    -0.540 NA 
HETATM    6  H   UNL     1     -13.496  14.706  68.974  1.00  0.00     0.000 HD 
BRANCH   5   7
HETATM    7  C   UNL     1     -12.901  15.035  70.914  1.00  0.00    -0.391 A  
HETATM    8  N   UNL     1     -13.977  15.203  71.602  1.00  0.00    -0.475 NA 
HETATM    9  C   UNL     1     -13.516  15.753  72.875  1.00  0.00    -0.580 A  
HETATM   10  C   UNL     1     -12.007  15.734  72.801  1.00  0.00    -0.492 A  
HETATM   11  O   UNL     1     -11.709  15.358  71.467  1.00  0.00    -0.330 OA 
ENDBRANCH   5   7
ENDBRANCH   4   5
BRANCH   4  12
HETATM   12  C   UNL     1     -12.034  12.300  69.178  1.00  0.00    -0.303 C  
HETATM   13  C   UNL     1     -12.241  11.468  70.424  1.00  0.00    -0.442 C  
HETATM   14  C   UNL     1     -11.078  11.180  69.520  1.00  0.00    -0.311 C  
ENDBRANCH   4  12
ENDBRANCH   3   4
TORSDOF 4
ENDMDL
MODEL       22
REMARK 921   NORMALIZED FREE ENERGY PREDICTED BY IDOCK:   -4.13 KCAL/MOL
REMARK 922        TOTAL FREE ENERGY PREDICTED BY IDOCK:   -5.54 KCAL/MOL
REMARK 923 INTER-LIGAND FREE ENERGY PREDICTED BY IDOCK:   -5.13 KCAL/MOL
REMARK 924 INTRA-LIGAND FREE ENERGY PREDICTED BY IDOCK:   -0.40 KCAL/MOL
REMARK 927      BINDING AFFINITY PREDICTED BY RF-SCORE:    0.00 PKD
ROOT
HETATM    1  C   UNL     1     -10.659  13.398  67.789  1.00  0.00    -0.252 C  
HETATM    2  C   UNL     1     -11.915  12.999  68.505  1.00  0.00    -0.296 C  
HETATM    3  C   UNL     1     -11.086  14.152  69.030  1.00  0.00    -0.292 C  
ENDROOT
BRANCH   3   4
HETATM    4  C   UNL     1     -11.522  15.594  68.903  1.00  0.00    -0.361 C  
BRANCH   4   5
HETATM    5  N   UNL     1     -11.427  16.239  70.195  1.00  0.00    -0.415 NA 
HETATM    6  H   UNL     1     -10.831  17.060  70.300  1.00  0.00     0.000 HD 
BRANCH   5   7
HETATM    7  C   UNL     1     -12.112  15.774  71.264  1.00  0.00    -0.437 A  
HETATM    8  N   UNL     1     -11.658  15.406  72.413  1.00  0.00    -0.461 NA 
HETATM    9  C   UNL     1     -12.847  15.028  73.173  1.00  0.00    -0.506 A  
HETATM   10  C   UNL     1     -14.021  15.371  72.286  1.00  0.00    -0.562 A  
HETATM   11  O   UNL     1     -13.447  15.744  71.045  1.00  0.00    -0.581 OA 
ENDBRANCH   5   7
ENDBRANCH   4   5
BRANCH   4  12
HETATM   12  C   UNL     1     -10.629  16.339  67.935  1.00  0.00    -0.318 C  
HETATM   13  C   UNL     1      -9.399  17.061  68.438  1.00  0.00    -0.266 C  
HETATM   14  C   UNL     1     -10.572  17.849  67.936  1.00  0.00    -0.387 C  
ENDBRANCH   4  12
ENDBRANCH   3   4
TORSDOF 4
ENDMDL
MODEL       23
REMARK 921   NORMALIZED FREE ENERGY PREDICTED BY IDOCK:   -4.13 KCAL/MOL
REMARK 922        TOTAL FREE ENERGY PREDICTED BY IDOCK:   -5.53 KCAL/MOL
REMARK 923 INTER-LIGAND FREE ENERGY PREDICTED BY IDOCK:   -5.07 KCAL/MOL
REMARK 924 INTRA-LIGAND FREE ENERGY PREDICTED BY IDOCK:   -0.46 KCAL/MOL
REMARK 927      BINDING AFFINITY PREDICTED BY RF-SCORE:    0.00 PKD
ROOT
HETATM    1  C   UNL     1     -10.500  17.845  67.614  1.00  0.00    -0.406 C  
HETATM    2  C   UNL     1      -9.307  17.004  67.955  1.00  0.00    -0.245 C  
HETATM    3  C   UNL     1     -10.590  16.841  68.742  1.00  0.00    -0.348 C  
ENDROOT
BRANCH   3   4
HETATM    4  C   UNL     1     -11.493  15.639  68.590  1.00  0.00    -0.375 C  
BRANCH   4   5
HETATM    5  N   UNL     1     -10.834  14.645  67.772  1.00  0.00    -0.262 NA 
HETATM    6  H   UNL     1      -9.909  14.309  68.042  1.00  0.00     0.000 HD 
BRANCH   5   7
HETATM    7  C   UNL     1     -11.418  14.152  66.655  1.00  0.00    -0.366 A  
HETATM    8  N   UNL     1     -12.081  13.056  66.511  1.00  0.00    -0.406 NA 
HETATM    9  C   UNL     1     -12.494  13.060  65.109  1.00  0.00    -0.496 A  
HETATM   10  C   UNL     1     -12.051  14.396  64.560  1.00  0.00    -0.481 A  
HETATM   11  O   UNL     1     -11.278  14.980  65.595  1.00  0.00    -0.339 OA 
ENDBRANCH   5   7
ENDBRANCH   4   5
BRANCH   4  12
HETATM   12  C   UNL     1     -11.792  15.021  69.938  1.00  0.00    -0.362 C  
HETATM   13  C   UNL     1     -12.976  15.499  70.747  1.00  0.00    -0.490 C  
HETATM   14  C   UNL     1     -11.583  15.802  71.214  1.00  0.00    -0.499 C  
ENDBRANCH   4  12
ENDBRANCH   3   4
TORSDOF 4
ENDMDL
MODEL       24
REMARK 921   NORMALIZED FREE ENERGY PREDICTED BY IDOCK:   -4.10 KCAL/MOL
REMARK 922        TOTAL FREE ENERGY PREDICTED BY IDOCK:   -5.50 KCAL/MOL
REMARK 923 INTER-LIGAND FREE ENERGY PREDICTED BY IDOCK:   -5.33 KCAL/MOL
REMARK 924 INTRA-LIGAND FREE ENERGY PREDICTED BY IDOCK:   -0.17 KCAL/MOL
REMARK 927      BINDING AFFINITY PREDICTED BY RF-SCORE:    0.00 PKD
ROOT
HETATM    1  C   UNL     1     -10.722  19.532  67.321  1.00  0.00    -0.604 C  
HETATM    2  C   UNL     1     -10.654  19.686  65.831  1.00  0.00    -0.566 C  
HETATM    3  C   UNL     1     -10.097  18.439  66.483  1.00  0.00    -0.406 C  
ENDROOT
BRANCH   3   4
HETATM    4  C   UNL     1     -10.784  17.095  66.392  1.00  0.00    -0.072 C  
BRANCH   4   5
HETATM    5  N   UNL     1     -10.424  16.456  65.145  1.00  0.00    -0.657 NA 
HETATM    6  H   UNL     1      -9.697  16.872  64.563  1.00  0.00     0.000 HD 
BRANCH   5   7
HETATM    7  C   UNL     1     -11.034  15.320  64.736  1.00  0.00    -0.386 A  
HETATM    8  N   UNL     1     -12.216  15.173  64.243  1.00  0.00    -0.539 NA 
HETATM    9  C   UNL     1     -12.321  13.743  63.962  1.00  0.00    -0.317 A  
HETATM   10  C   UNL     1     -10.957  13.169  64.269  1.00  0.00    -0.403 A  
HETATM   11  O   UNL     1     -10.233  14.236  64.859  1.00  0.00    -0.413 OA 
ENDBRANCH   5   7
ENDBRANCH   4   5
BRANCH   4  12
HETATM   12  C   UNL     1     -10.349  16.195  67.528  1.00  0.00    -0.286 C  
HETATM   13  C   UNL     1     -11.375  15.396  68.300  1.00  0.00    -0.354 C  
HETATM   14  C   UNL     1     -10.671  16.543  68.962  1.00  0.00    -0.332 C  
ENDBRANCH   4  12
ENDBRANCH   3   4
TORSDOF 4
ENDMDL
MODEL       25
REMARK 921   NORMALIZED FREE ENERGY PREDICTED BY IDOCK:   -4.10 KCAL/MOL
REMARK 922        TOTAL FREE ENERGY PREDICTED BY IDOCK:   -5.50 KCAL/MOL
REMARK 923 INTER-LIGAND FREE ENERGY PREDICTED BY IDOCK:   -5.06 KCAL/MOL
REMARK 924 INTRA-LIGAND FREE ENERGY PREDICTED BY IDOCK:   -0.44 KCAL/MOL
REMARK 927      BINDING AFFINITY PREDICTED BY RF-SCORE:    0.00 PKD
ROOT
HETATM    1  C   UNL     1     -12.273  14.136  70.821  1.00  0.00    -0.435 C  
HETATM    2  C   UNL     1     -13.138  15.354  70.958  1.00  0.00    -0.565 C  
HETATM    3  C   UNL     1     -11.809  15.453  70.238  1.00  0.00    -0.368 C  
ENDROOT
BRANCH   3   4
HETATM    4  C   UNL     1     -11.704  15.600  68.737  1.00  0.00    -0.370 C  
BRANCH   4   5
HETATM    5  N   UNL     1     -10.440  16.219  68.404  1.00  0.00    -0.268 NA 
HETATM    6  H   UNL     1      -9.572  15.731  68.623  1.00  0.00     0.000 HD 
BRANCH   5   7
HETATM    7  C   UNL     1     -10.387  17.433  67.808  1.00  0.00    -0.358 A  
HETATM    8  N   UNL     1     -10.401  17.713  66.550  1.00  0.00    -0.349 NA 
HETATM    9  C   UNL     1     -10.349  19.172  66.499  1.00  0.00    -0.442 A  
HETATM   10  C   UNL     1     -10.431  19.631  67.936  1.00  0.00    -0.423 A  
HETATM   11  O   UNL     1     -10.345  18.444  68.706  1.00  0.00    -0.349 OA 
ENDBRANCH   5   7
ENDBRANCH   4   5
BRANCH   4  12
HETATM   12  C   UNL     1     -11.761  14.247  68.063  1.00  0.00    -0.386 C  
HETATM   13  C   UNL     1     -10.619  13.788  67.184  1.00  0.00    -0.277 C  
HETATM   14  C   UNL     1     -11.942  14.132  66.567  1.00  0.00    -0.466 C  
ENDBRANCH   4  12
ENDBRANCH   3   4
TORSDOF 4
ENDMDL
MODEL       26
REMARK 921   NORMALIZED FREE ENERGY PREDICTED BY IDOCK:   -4.10 KCAL/MOL
REMARK 922        TOTAL FREE ENERGY PREDICTED BY IDOCK:   -5.50 KCAL/MOL
REMARK 923 INTER-LIGAND FREE ENERGY PREDICTED BY IDOCK:   -5.01 KCAL/MOL
REMARK 924 INTRA-LIGAND FREE ENERGY PREDICTED BY IDOCK:   -0.49 KCAL/MOL
REMARK 927      BINDING AFFINITY PREDICTED BY RF-SCORE:    0.00 PKD
ROOT
HETATM    1  C   UNL     1     -11.366  11.982  64.663  1.00  0.00    -0.377 C  
HETATM    2  C   UNL     1     -12.154  12.870  63.747  1.00  0.00    -0.583 C  
HETATM    3  C   UNL     1     -12.343  12.979  65.245  1.00  0.00    -0.537 C  
ENDROOT
BRANCH   3   4
HETATM    4  C   UNL     1     -11.815  14.144  66.052  1.00  0.00    -0.398 C  
BRANCH   4   5
HETATM    5  N   UNL     1     -11.175  13.646  67.250  1.00  0.00    -0.300 NA 
HETATM    6  H   UNL     1     -10.350  13.053  67.166  1.00  0.00     0.000 HD 
BRANCH   5   7
HETATM    7  C   UNL     1     -11.650  13.952  68.479  1.00  0.00    -0.332 A  
HETATM    8  N   UNL     1     -11.825  13.173  69.491  1.00  0.00    -0.316 NA 
HETATM    9  C   UNL     1     -12.331  14.049  70.545  1.00  0.00    -0.367 A  
HETATM   10  C   UNL     1     -12.281  15.446  69.970  1.00  0.00    -0.361 A  
HETATM   11  O   UNL     1     -11.932  15.269  68.607  1.00  0.00    -0.320 OA 
ENDBRANCH   5   7
ENDBRANCH   4   5
BRANCH   4  12
HETATM   12  C   UNL     1     -10.791  14.924  65.257  1.00  0.00    -0.398 C  
HETATM   13  C   UNL     1      -9.420  15.189  65.837  1.00  0.00    -0.334 C  
HETATM   14  C   UNL     1     -10.389  16.321  65.668  1.00  0.00    -0.385 C  
ENDBRANCH   4  12
ENDBRANCH   3   4
TORSDOF 4
ENDMDL
MODEL       27
REMARK 921   NORMALIZED FREE ENERGY PREDICTED BY IDOCK:   -4.09 KCAL/MOL
REMARK 922        TOTAL FREE ENERGY PREDICTED BY IDOCK:   -5.49 KCAL/MOL
REMARK 923 INTER-LIGAND FREE ENERGY PREDICTED BY IDOCK:   -5.26 KCAL/MOL
REMARK 924 INTRA-LIGAND FREE ENERGY PREDICTED BY IDOCK:   -0.22 KCAL/MOL
REMARK 927      BINDING AFFINITY PREDICTED BY RF-SCORE:    0.00 PKD
ROOT
HETATM    1  C   UNL     1     -10.901  15.655  68.994  1.00  0.00    -0.254 C  
HETATM    2  C   UNL     1     -10.662  15.963  67.546  1.00  0.00    -0.318 C  
HETATM    3  C   UNL     1     -10.797  14.524  67.996  1.00  0.00    -0.249 C  
ENDROOT
BRANCH   3   4
HETATM    4  C   UNL     1     -12.022  13.688  67.698  1.00  0.00    -0.351 C  
BRANCH   4   5
HETATM    5  N   UNL     1     -12.560  14.069  66.410  1.00  0.00    -0.502 NA 
HETATM    6  H   UNL     1     -13.237  14.829  66.357  1.00  0.00     0.000 HD 
BRANCH   5   7
HETATM    7  C   UNL     1     -12.184  13.435  65.276  1.00  0.00    -0.440 A  
HETATM    8  N   UNL     1     -11.046  13.472  64.673  1.00  0.00    -0.356 NA 
HETATM    9  C   UNL     1     -11.208  12.580  63.527  1.00  0.00    -0.462 A  
HETATM   10  C   UNL     1     -12.579  11.963  63.686  1.00  0.00    -0.439 A  
HETATM   11  O   UNL     1     -13.168  12.652  64.775  1.00  0.00    -0.846 OA 
ENDBRANCH   5   7
ENDBRANCH   4   5
BRANCH   4  12
HETATM   12  C   UNL     1     -11.666  12.219  67.647  1.00  0.00    -0.403 C  
HETATM   13  C   UNL     1     -11.885  11.341  68.859  1.00  0.00    -0.413 C  
HETATM   14  C   UNL     1     -10.489  11.677  68.424  1.00  0.00    -0.230 C  
ENDBRANCH   4  12
ENDBRANCH   3   4
TORSDOF 4
ENDMDL
MODEL       28
REMARK 921   NORMALIZED FREE ENERGY PREDICTED BY IDOCK:   -4.08 KCAL/MOL
REMARK 922        TOTAL FREE ENERGY PREDICTED BY IDOCK:   -5.47 KCAL/MOL
REMARK 923 INTER-LIGAND FREE ENERGY PREDICTED BY IDOCK:   -5.08 KCAL/MOL
REMARK 924 INTRA-LIGAND FREE ENERGY PREDICTED BY IDOCK:   -0.39 KCAL/MOL
REMARK 927      BINDING AFFINITY PREDICTED BY RF-SCORE:    0.00 PKD
ROOT
HETATM    1  C   UNL     1     -10.211   9.801  68.899  1.00  0.00    -0.213 C  
HETATM    2  C   UNL     1     -10.486   9.421  67.474  1.00  0.00    -0.343 C  
HETATM    3  C   UNL     1     -11.239  10.575  68.102  1.00  0.00    -0.357 C  
ENDROOT
BRANCH   3   4
HETATM    4  C   UNL     1     -10.964  12.019  67.747  1.00  0.00    -0.232 C  
BRANCH   4   5
HETATM    5  N   UNL     1     -11.989  12.494  66.844  1.00  0.00    -0.543 NA 
HETATM    6  H   UNL     1     -12.859  12.863  67.226  1.00  0.00     0.000 HD 
BRANCH   5   7
HETATM    7  C   UNL     1     -11.816  12.457  65.503  1.00  0.00    -0.412 A  
HETATM    8  N   UNL     1     -10.717  12.386  64.835  1.00  0.00    -0.283 NA 
HETATM    9  C   UNL     1     -11.138  12.352  63.436  1.00  0.00    -0.402 A  
HETATM   10  C   UNL     1     -12.648  12.291  63.470  1.00  0.00    -0.476 A  
HETATM   11  O   UNL     1     -12.992  12.470  64.833  1.00  0.00    -0.821 OA 
ENDBRANCH   5   7
ENDBRANCH   4   5
BRANCH   4  12
HETATM   12  C   UNL     1     -10.985  12.886  68.986  1.00  0.00    -0.244 C  
HETATM   13  C   UNL     1     -12.127  12.776  69.972  1.00  0.00    -0.355 C  
HETATM   14  C   UNL     1     -11.986  14.010  69.131  1.00  0.00    -0.400 C  
ENDBRANCH   4  12
ENDBRANCH   3   4
TORSDOF 4
ENDMDL
MODEL       29
REMARK 921   NORMALIZED FREE ENERGY PREDICTED BY IDOCK:   -4.07 KCAL/MOL
REMARK 922        TOTAL FREE ENERGY PREDICTED BY IDOCK:   -5.46 KCAL/MOL
REMARK 923 INTER-LIGAND FREE ENERGY PREDICTED BY IDOCK:   -5.22 KCAL/MOL
REMARK 924 INTRA-LIGAND FREE ENERGY PREDICTED BY IDOCK:   -0.23 KCAL/MOL
REMARK 927      BINDING AFFINITY PREDICTED BY RF-SCORE:    0.00 PKD
ROOT
HETATM    1  C   UNL     1     -10.813  15.843  70.277  1.00  0.00    -0.349 C  
HETATM    2  C   UNL     1     -11.688  15.987  71.487  1.00  0.00    -0.554 C  
HETATM    3  C   UNL     1     -12.258  15.397  70.214  1.00  0.00    -0.414 C  
ENDROOT
BRANCH   3   4
HETATM    4  C   UNL     1     -12.569  13.925  70.066  1.00  0.00    -0.169 C  
BRANCH   4   5
HETATM    5  N   UNL     1     -11.636  13.329  69.135  1.00  0.00    -0.299 NA 
HETATM    6  H   UNL     1     -10.780  12.904  69.489  1.00  0.00     0.000 HD 
BRANCH   5   7
HETATM    7  C   UNL     1     -11.877  13.326  67.803  1.00  0.00    -0.353 A  
HETATM    8  N   UNL     1     -12.153  14.321  67.033  1.00  0.00    -0.428 NA 
HETATM    9  C   UNL     1     -12.284  13.730  65.703  1.00  0.00    -0.454 A  
HETATM   10  C   UNL     1     -11.911  12.275  65.868  1.00  0.00    -0.354 A  
HETATM   11  O   UNL     1     -11.769  12.089  67.266  1.00  0.00    -0.481 OA 
ENDBRANCH   5   7
ENDBRANCH   4   5
BRANCH   4  12
HETATM   12  C   UNL     1     -12.433  13.214  71.394  1.00  0.00    -0.270 C  
HETATM   13  C   UNL     1     -13.115  11.883  71.616  1.00  0.00    -0.433 C  
HETATM   14  C   UNL     1     -13.606  13.102  72.339  1.00  0.00    -0.667 C  
ENDBRANCH   4  12
ENDBRANCH   3   4
TORSDOF 4
ENDMDL
MODEL       30
REMARK 921   NORMALIZED FREE ENERGY PREDICTED BY IDOCK:   -4.06 KCAL/MOL
REMARK 922        TOTAL FREE ENERGY PREDICTED BY IDOCK:   -5.46 KCAL/MOL
REMARK 923 INTER-LIGAND FREE ENERGY PREDICTED BY IDOCK:   -4.99 KCAL/MOL
REMARK 924 INTRA-LIGAND FREE ENERGY PREDICTED BY IDOCK:   -0.46 KCAL/MOL
REMARK 927      BINDING AFFINITY PREDICTED BY RF-SCORE:    0.00 PKD
ROOT
HETATM    1  C   UNL     1     -12.534  11.860  63.618  1.00  0.00    -0.583 C  
HETATM    2  C   UNL     1     -11.122  12.282  63.339  1.00  0.00    -0.487 C  
HETATM    3  C   UNL     1     -12.016  13.163  64.185  1.00  0.00    -0.499 C  
ENDROOT
BRANCH   3   4
HETATM    4  C   UNL     1     -11.846  13.301  65.681  1.00  0.00    -0.380 C  
BRANCH   4   5
HETATM    5  N   UNL     1     -10.917  12.297  66.152  1.00  0.00    -0.281 NA 
HETATM    6  H   UNL     1     -10.134  12.023  65.558  1.00  0.00     0.000 HD 
BRANCH   5   7
HETATM    7  C   UNL     1     -11.066  11.715  67.364  1.00  0.00    -0.281 A  
HETATM    8  N   UNL     1     -12.137  11.586  68.069  1.00  0.00    -0.598 NA 
HETATM    9  C   UNL     1     -11.707  10.859  69.261  1.00  0.00    -0.324 A  
HETATM   10  C   UNL     1     -10.256  10.511  69.021  1.00  0.00    -0.216 A  
HETATM   11  O   UNL     1      -9.907  11.193  67.828  1.00  0.00    -0.168 OA 
ENDBRANCH   5   7
ENDBRANCH   4   5
BRANCH   4  12
HETATM   12  C   UNL     1     -11.289  14.663  66.032  1.00  0.00    -0.344 C  
HETATM   13  C   UNL     1     -10.919  15.638  64.937  1.00  0.00    -0.447 C  
HETATM   14  C   UNL     1      -9.841  15.003  65.764  1.00  0.00    -0.386 C  
ENDBRANCH   4  12
ENDBRANCH   3   4
TORSDOF 4
ENDMDL
MODEL       31
REMARK 921   NORMALIZED FREE ENERGY PREDICTED BY IDOCK:   -4.06 KCAL/MOL
REMARK 922        TOTAL FREE ENERGY PREDICTED BY IDOCK:   -5.45 KCAL/MOL
REMARK 923 INTER-LIGAND FREE ENERGY PREDICTED BY IDOCK:   -5.07 KCAL/MOL
REMARK 924 INTRA-LIGAND FREE ENERGY PREDICTED BY IDOCK:   -0.37 KCAL/MOL
REMARK 927      BINDING AFFINITY PREDICTED BY RF-SCORE:    0.00 PKD
ROOT
HETATM    1  C   UNL     1     -11.543  13.380  68.890  1.00  0.00    -0.356 C  
HETATM    2  C   UNL     1     -11.674  14.695  69.598  1.00  0.00    -0.358 C  
HETATM    3  C   UNL     1     -10.829  14.597  68.346  1.00  0.00    -0.250 C  
ENDROOT
BRANCH   3   4
HETATM    4  C   UNL     1     -11.266  15.177  67.019  1.00  0.00    -0.308 C  
BRANCH   4   5
HETATM    5  N   UNL     1     -10.273  16.124  66.561  1.00  0.00    -0.287 NA 
HETATM    6  H   UNL     1      -9.417  15.780  66.127  1.00  0.00     0.000 HD 
BRANCH   5   7
HETATM    7  C   UNL     1     -10.459  17.457  66.696  1.00  0.00    -0.253 A  
HETATM    8  N   UNL     1     -10.536  18.154  67.777  1.00  0.00    -0.407 NA 
HETATM    9  C   UNL     1     -10.712  19.529  67.316  1.00  0.00    -0.484 A  
HETATM   10  C   UNL     1     -10.591  19.470  65.811  1.00  0.00    -0.427 A  
HETATM   11  O   UNL     1     -10.536  18.088  65.501  1.00  0.00    -0.639 OA 
ENDBRANCH   5   7
ENDBRANCH   4   5
BRANCH   4  12
HETATM   12  C   UNL     1     -11.397  14.087  65.978  1.00  0.00    -0.328 C  
HETATM   13  C   UNL     1     -11.822  14.432  64.568  1.00  0.00    -0.463 C  
HETATM   14  C   UNL     1     -12.754  13.667  65.461  1.00  0.00    -0.514 C  
ENDBRANCH   4  12
ENDBRANCH   3   4
TORSDOF 4
ENDMDL
MODEL       32
REMARK 921   NORMALIZED FREE ENERGY PREDICTED BY IDOCK:   -4.05 KCAL/MOL
REMARK 922        TOTAL FREE ENERGY PREDICTED BY IDOCK:   -5.44 KCAL/MOL
REMARK 923 INTER-LIGAND FREE ENERGY PREDICTED BY IDOCK:   -5.03 KCAL/MOL
REMARK 924 INTRA-LIGAND FREE ENERGY PREDICTED BY IDOCK:   -0.41 KCAL/MOL
REMARK 927      BINDING AFFINITY PREDICTED BY RF-SCORE:    0.00 PKD
ROOT
HETATM    1  C   UNL     1     -11.289  16.044  68.717  1.00  0.00    -0.380 C  
HETATM    2  C   UNL     1     -10.369  15.760  69.866  1.00  0.00    -0.313 C  
HETATM    3  C   UNL     1     -11.865  15.790  70.092  1.00  0.00    -0.369 C  
ENDROOT
BRANCH   3   4
HETATM    4  C   UNL     1     -12.679  14.538  70.331  1.00  0.00    -0.322 C  
BRANCH   4   5
HETATM    5  N   UNL     1     -11.789  13.439  70.637  1.00  0.00    -0.528 NA 
HETATM    6  H   UNL     1     -11.196  13.493  71.465  1.00  0.00     0.000 HD 
BRANCH   5   7
HETATM    7  C   UNL     1     -11.729  12.342  69.847  1.00  0.00    -0.266 A  
HETATM    8  N   UNL     1     -11.671  12.279  68.561  1.00  0.00    -0.317 NA 
HETATM    9  C   UNL     1     -11.597  10.849  68.268  1.00  0.00    -0.262 A  
HETATM   10  C   UNL     1     -11.500  10.164  69.611  1.00  0.00    -0.198 A  
HETATM   11  O   UNL     1     -11.699  11.195  70.564  1.00  0.00    -0.333 OA 
ENDBRANCH   5   7
ENDBRANCH   4   5
BRANCH   4  12
HETATM   12  C   UNL     1     -13.619  14.727  71.502  1.00  0.00    -0.495 C  
HETATM   13  C   UNL     1     -13.094  14.641  72.918  1.00  0.00    -0.609 C  
HETATM   14  C   UNL     1     -13.995  13.564  72.391  1.00  0.00    -0.638 C  
ENDBRANCH   4  12
ENDBRANCH   3   4
TORSDOF 4
ENDMDL
MODEL       33
REMARK 921   NORMALIZED FREE ENERGY PREDICTED BY IDOCK:   -4.05 KCAL/MOL
REMARK 922        TOTAL FREE ENERGY PREDICTED BY IDOCK:   -5.44 KCAL/MOL
REMARK 923 INTER-LIGAND FREE ENERGY PREDICTED BY IDOCK:   -5.01 KCAL/MOL
REMARK 924 INTRA-LIGAND FREE ENERGY PREDICTED BY IDOCK:   -0.43 KCAL/MOL
REMARK 927      BINDING AFFINITY PREDICTED BY RF-SCORE:    0.00 PKD
ROOT
HETATM    1  C   UNL     1     -12.047  13.434  63.722  1.00  0.00    -0.516 C  
HETATM    2  C   UNL     1     -12.472  11.999  63.641  1.00  0.00    -0.637 C  
HETATM    3  C   UNL     1     -11.099  12.346  64.176  1.00  0.00    -0.425 C  
ENDROOT
BRANCH   3   4
HETATM    4  C   UNL     1     -10.744  12.240  65.642  1.00  0.00    -0.267 C  
BRANCH   4   5
HETATM    5  N   UNL     1     -11.933  12.449  66.439  1.00  0.00    -0.607 NA 
HETATM    6  H   UNL     1     -12.797  11.972  66.181  1.00  0.00     0.000 HD 
BRANCH   5   7
HETATM    7  C   UNL     1     -11.922  13.264  67.519  1.00  0.00    -0.324 A  
HETATM    8  N   UNL     1     -11.904  12.945  68.767  1.00  0.00    -0.319 NA 
HETATM    9  C   UNL     1     -11.871  14.225  69.472  1.00  0.00    -0.329 A  
HETATM   10  C   UNL     1     -11.750  15.277  68.394  1.00  0.00    -0.321 A  
HETATM   11  O   UNL     1     -11.897  14.572  67.174  1.00  0.00    -0.392 OA 
ENDBRANCH   5   7
ENDBRANCH   4   5
BRANCH   4  12
HETATM   12  C   UNL     1     -10.195  10.867  65.961  1.00  0.00    -0.311 C  
HETATM   13  C   UNL     1      -8.703  10.621  65.933  1.00  0.00    -0.186 C  
HETATM   14  C   UNL     1      -9.580  10.007  64.882  1.00  0.00    -0.375 C  
ENDBRANCH   4  12
ENDBRANCH   3   4
TORSDOF 4
ENDMDL
MODEL       34
REMARK 921   NORMALIZED FREE ENERGY PREDICTED BY IDOCK:   -4.03 KCAL/MOL
REMARK 922        TOTAL FREE ENERGY PREDICTED BY IDOCK:   -5.42 KCAL/MOL
REMARK 923 INTER-LIGAND FREE ENERGY PREDICTED BY IDOCK:   -4.96 KCAL/MOL
REMARK 924 INTRA-LIGAND FREE ENERGY PREDICTED BY IDOCK:   -0.46 KCAL/MOL
REMARK 927      BINDING AFFINITY PREDICTED BY RF-SCORE:    0.00 PKD
ROOT
HETATM    1  C   UNL     1     -10.202   7.964  70.086  1.00  0.00    -0.202 C  
HETATM    2  C   UNL     1      -9.996   7.607  71.528  1.00  0.00    -0.200 C  
HETATM    3  C   UNL     1     -10.341   9.032  71.149  1.00  0.00    -0.362 C  
ENDROOT
BRANCH   3   4
HETATM    4  C   UNL     1     -11.701   9.639  71.410  1.00  0.00    -0.404 C  
BRANCH   4   5
HETATM    5  N   UNL     1     -12.354   9.912  70.149  1.00  0.00    -0.490 NA 
HETATM    6  H   UNL     1     -13.007   9.229  69.766  1.00  0.00     0.000 HD 
BRANCH   5   7
HETATM    7  C   UNL     1     -12.115  11.056  69.467  1.00  0.00    -0.329 A  
HETATM    8  N   UNL     1     -12.010  11.228  68.194  1.00  0.00    -0.641 NA 
HETATM    9  C   UNL     1     -11.779  12.662  68.035  1.00  0.00    -0.350 A  
HETATM   10  C   UNL     1     -11.902  13.248  69.422  1.00  0.00    -0.329 A  
HETATM   11  O   UNL     1     -12.012  12.129  70.285  1.00  0.00    -0.348 OA 
ENDBRANCH   5   7
ENDBRANCH   4   5
BRANCH   4  12
HETATM   12  C   UNL     1     -12.571   8.682  72.196  1.00  0.00    -0.451 C  
HETATM   13  C   UNL     1     -13.617   7.851  71.488  1.00  0.00    -0.363 C  
HETATM   14  C   UNL     1     -14.042   8.961  72.403  1.00  0.00    -0.493 C  
ENDBRANCH   4  12
ENDBRANCH   3   4
TORSDOF 4
ENDMDL
MODEL       35
REMARK 921   NORMALIZED FREE ENERGY PREDICTED BY IDOCK:   -4.03 KCAL/MOL
REMARK 922        TOTAL FREE ENERGY PREDICTED BY IDOCK:   -5.41 KCAL/MOL
REMARK 923 INTER-LIGAND FREE ENERGY PREDICTED BY IDOCK:   -5.13 KCAL/MOL
REMARK 924 INTRA-LIGAND FREE ENERGY PREDICTED BY IDOCK:   -0.28 KCAL/MOL
REMARK 927      BINDING AFFINITY PREDICTED BY RF-SCORE:    0.00 PKD
ROOT
HETATM    1  C   UNL     1     -11.027  12.004  63.898  1.00  0.00    -0.465 C  
HETATM    2  C   UNL     1     -12.413  12.156  63.346  1.00  0.00    -0.625 C  
HETATM    3  C   UNL     1     -12.169  12.353  64.827  1.00  0.00    -0.493 C  
ENDROOT
BRANCH   3   4
HETATM    4  C   UNL     1     -12.196  13.714  65.485  1.00  0.00    -0.443 C  
BRANCH   4   5
HETATM    5  N   UNL     1     -12.116  13.555  66.921  1.00  0.00    -0.387 NA 
HETATM    6  H   UNL     1     -12.621  14.203  67.524  1.00  0.00     0.000 HD 
BRANCH   5   7
HETATM    7  C   UNL     1     -11.384  12.563  67.478  1.00  0.00    -0.312 A  
HETATM    8  N   UNL     1     -10.111  12.510  67.667  1.00  0.00    -0.213 NA 
HETATM    9  C   UNL     1      -9.890  11.225  68.326  1.00  0.00    -0.197 A  
HETATM   10  C   UNL     1     -11.267  10.653  68.570  1.00  0.00    -0.282 A  
HETATM   11  O   UNL     1     -12.154  11.532  67.897  1.00  0.00    -0.630 OA 
ENDBRANCH   5   7
ENDBRANCH   4   5
BRANCH   4  12
HETATM   12  C   UNL     1     -11.016  14.548  65.035  1.00  0.00    -0.408 C  
HETATM   13  C   UNL     1     -10.597  15.763  65.831  1.00  0.00    -0.350 C  
HETATM   14  C   UNL     1     -11.215  15.938  64.476  1.00  0.00    -0.324 C  
ENDBRANCH   4  12
ENDBRANCH   3   4
TORSDOF 4
ENDMDL
MODEL       36
REMARK 921   NORMALIZED FREE ENERGY PREDICTED BY IDOCK:   -4.00 KCAL/MOL
REMARK 922        TOTAL FREE ENERGY PREDICTED BY IDOCK:   -5.38 KCAL/MOL
REMARK 923 INTER-LIGAND FREE ENERGY PREDICTED BY IDOCK:   -4.98 KCAL/MOL
REMARK 924 INTRA-LIGAND FREE ENERGY PREDICTED BY IDOCK:   -0.40 KCAL/MOL
REMARK 927      BINDING AFFINITY PREDICTED BY RF-SCORE:    0.00 PKD
ROOT
HETATM    1  C   UNL     1      -9.148   8.674  71.396  1.00  0.00    -0.295 C  
HETATM    2  C   UNL     1      -9.415   9.520  70.187  1.00  0.00    -0.287 C  
HETATM    3  C   UNL     1     -10.552   8.763  70.840  1.00  0.00    -0.276 C  
ENDROOT
BRANCH   3   4
HETATM    4  C   UNL     1     -11.626   9.447  71.655  1.00  0.00    -0.396 C  
BRANCH   4   5
HETATM    5  N   UNL     1     -12.437  10.270  70.784  1.00  0.00    -0.329 NA 
HETATM    6  H   UNL     1     -12.884   9.848  69.971  1.00  0.00     0.000 HD 
BRANCH   5   7
HETATM    7  C   UNL     1     -12.613  11.589  71.028  1.00  0.00    -0.357 A  
HETATM    8  N   UNL     1     -12.165  12.598  70.363  1.00  0.00    -0.335 NA 
HETATM    9  C   UNL     1     -12.690  13.765  71.068  1.00  0.00    -0.343 A  
HETATM   10  C   UNL     1     -13.594  13.214  72.146  1.00  0.00    -0.544 A  
HETATM   11  O   UNL     1     -13.397  11.810  72.109  1.00  0.00    -0.497 OA 
ENDBRANCH   5   7
ENDBRANCH   4   5
BRANCH   4  12
HETATM   12  C   UNL     1     -12.527   8.426  72.315  1.00  0.00    -0.417 C  
HETATM   13  C   UNL     1     -12.863   7.136  71.602  1.00  0.00    -0.420 C  
HETATM   14  C   UNL     1     -13.925   8.176  71.800  1.00  0.00    -0.479 C  
ENDBRANCH   4  12
ENDBRANCH   3   4
TORSDOF 4
ENDMDL
MODEL       37
REMARK 921   NORMALIZED FREE ENERGY PREDICTED BY IDOCK:   -4.00 KCAL/MOL
REMARK 922        TOTAL FREE ENERGY PREDICTED BY IDOCK:   -5.37 KCAL/MOL
REMARK 923 INTER-LIGAND FREE ENERGY PREDICTED BY IDOCK:   -4.90 KCAL/MOL
REMARK 924 INTRA-LIGAND FREE ENERGY PREDICTED BY IDOCK:   -0.48 KCAL/MOL
REMARK 927      BINDING AFFINITY PREDICTED BY RF-SCORE:    0.00 PKD
ROOT
HETATM    1  C   UNL     1     -10.950   7.610  69.962  1.00  0.00    -0.237 C  
HETATM    2  C   UNL     1     -10.076   7.922  71.141  1.00  0.00    -0.210 C  
HETATM    3  C   UNL     1     -10.337   8.987  70.097  1.00  0.00    -0.237 C  
ENDROOT
BRANCH   3   4
HETATM    4  C   UNL     1     -11.239  10.174  70.351  1.00  0.00    -0.330 C  
BRANCH   4   5
HETATM    5  N   UNL     1     -12.077  10.395  69.192  1.00  0.00    -0.651 NA 
HETATM    6  H   UNL     1     -12.813   9.723  68.973  1.00  0.00     0.000 HD 
BRANCH   5   7
HETATM    7  C   UNL     1     -11.904  11.474  68.395  1.00  0.00    -0.283 A  
HETATM    8  N   UNL     1     -11.801  11.518  67.111  1.00  0.00    -0.572 NA 
HETATM    9  C   UNL     1     -11.658  12.939  66.803  1.00  0.00    -0.360 A  
HETATM   10  C   UNL     1     -11.827  13.658  68.122  1.00  0.00    -0.372 A  
HETATM   11  O   UNL     1     -11.874  12.630  69.097  1.00  0.00    -0.298 OA 
ENDBRANCH   5   7
ENDBRANCH   4   5
BRANCH   4  12
HETATM   12  C   UNL     1     -12.136   9.918  71.542  1.00  0.00    -0.496 C  
HETATM   13  C   UNL     1     -13.604   9.622  71.338  1.00  0.00    -0.343 C  
HETATM   14  C   UNL     1     -13.186  10.924  71.954  1.00  0.00    -0.508 C  
ENDBRANCH   4  12
ENDBRANCH   3   4
TORSDOF 4
ENDMDL
MODEL       38
REMARK 921   NORMALIZED FREE ENERGY PREDICTED BY IDOCK:   -4.00 KCAL/MOL
REMARK 922        TOTAL FREE ENERGY PREDICTED BY IDOCK:   -5.37 KCAL/MOL
REMARK 923 INTER-LIGAND FREE ENERGY PREDICTED BY IDOCK:   -4.99 KCAL/MOL
REMARK 924 INTRA-LIGAND FREE ENERGY PREDICTED BY IDOCK:   -0.38 KCAL/MOL
REMARK 927      BINDING AFFINITY PREDICTED BY RF-SCORE:    0.00 PKD
ROOT
HETATM    1  C   UNL     1     -11.697  11.868  63.950  1.00  0.00    -0.509 C  
HETATM    2  C   UNL     1     -12.116  13.294  63.745  1.00  0.00    -0.546 C  
HETATM    3  C   UNL     1     -12.395  12.612  65.067  1.00  0.00    -0.561 C  
ENDROOT
BRANCH   3   4
HETATM    4  C   UNL     1     -11.628  12.936  66.330  1.00  0.00    -0.372 C  
BRANCH   4   5
HETATM    5  N   UNL     1     -12.314  13.985  67.051  1.00  0.00    -0.538 NA 
HETATM    6  H   UNL     1     -13.315  13.899  67.226  1.00  0.00     0.000 HD 
BRANCH   5   7
HETATM    7  C   UNL     1     -11.654  15.079  67.497  1.00  0.00    -0.301 A  
HETATM    8  N   UNL     1     -11.687  15.616  68.668  1.00  0.00    -0.375 NA 
HETATM    9  C   UNL     1     -10.763  16.745  68.579  1.00  0.00    -0.358 A  
HETATM   10  C   UNL     1     -10.137  16.649  67.207  1.00  0.00    -0.279 A  
HETATM   11  O   UNL     1     -10.849  15.614  66.551  1.00  0.00    -0.311 OA 
ENDBRANCH   5   7
ENDBRANCH   4   5
BRANCH   4  12
HETATM   12  C   UNL     1     -11.542  11.722  67.228  1.00  0.00    -0.344 C  
HETATM   13  C   UNL     1     -10.681  11.756  68.471  1.00  0.00    -0.251 C  
HETATM   14  C   UNL     1     -10.276  10.902  67.307  1.00  0.00    -0.242 C  
ENDBRANCH   4  12
ENDBRANCH   3   4
TORSDOF 4
ENDMDL
MODEL       39
REMARK 921   NORMALIZED FREE ENERGY PREDICTED BY IDOCK:   -3.95 KCAL/MOL
REMARK 922        TOTAL FREE ENERGY PREDICTED BY IDOCK:   -5.32 KCAL/MOL
REMARK 923 INTER-LIGAND FREE ENERGY PREDICTED BY IDOCK:   -5.10 KCAL/MOL
REMARK 924 INTRA-LIGAND FREE ENERGY PREDICTED BY IDOCK:   -0.22 KCAL/MOL
REMARK 927      BINDING AFFINITY PREDICTED BY RF-SCORE:    0.00 PKD
ROOT
HETATM    1  C   UNL     1     -11.713  13.260  67.612  1.00  0.00    -0.408 C  
HETATM    2  C   UNL     1     -10.683  14.073  68.340  1.00  0.00    -0.261 C  
HETATM    3  C   UNL     1     -12.084  13.960  68.901  1.00  0.00    -0.355 C  
ENDROOT
BRANCH   3   4
HETATM    4  C   UNL     1     -12.408  13.130  70.124  1.00  0.00    -0.213 C  
BRANCH   4   5
HETATM    5  N   UNL     1     -11.462  12.041  70.228  1.00  0.00    -0.497 NA 
HETATM    6  H   UNL     1     -10.521  12.159  69.852  1.00  0.00     0.000 HD 
BRANCH   5   7
HETATM    7  C   UNL     1     -11.800  10.870  70.816  1.00  0.00    -0.319 A  
HETATM    8  N   UNL     1     -11.069   9.827  71.009  1.00  0.00    -0.350 NA 
HETATM    9  C   UNL     1     -11.947   8.888  71.705  1.00  0.00    -0.345 A  
HETATM   10  C   UNL     1     -13.228   9.647  71.962  1.00  0.00    -0.453 A  
HETATM   11  O   UNL     1     -13.077  10.871  71.263  1.00  0.00    -0.374 OA 
ENDBRANCH   5   7
ENDBRANCH   4   5
BRANCH   4  12
HETATM   12  C   UNL     1     -12.308  13.968  71.379  1.00  0.00    -0.410 C  
HETATM   13  C   UNL     1     -13.485  14.067  72.323  1.00  0.00    -0.597 C  
HETATM   14  C   UNL     1     -13.076  15.262  71.513  1.00  0.00    -0.517 C  
ENDBRANCH   4  12
ENDBRANCH   3   4
TORSDOF 4
ENDMDL
MODEL       40
REMARK 921   NORMALIZED FREE ENERGY PREDICTED BY IDOCK:   -3.90 KCAL/MOL
REMARK 922        TOTAL FREE ENERGY PREDICTED BY IDOCK:   -5.26 KCAL/MOL
REMARK 923 INTER-LIGAND FREE ENERGY PREDICTED BY IDOCK:   -4.81 KCAL/MOL
REMARK 924 INTRA-LIGAND FREE ENERGY PREDICTED BY IDOCK:   -0.44 KCAL/MOL
REMARK 927      BINDING AFFINITY PREDICTED BY RF-SCORE:    0.00 PKD
ROOT
HETATM    1  C   UNL     1     -10.743   7.601  67.217  1.00  0.00    -0.344 C  
HETATM    2  C   UNL     1      -9.290   7.970  67.232  1.00  0.00    -0.177 C  
HETATM    3  C   UNL     1     -10.340   9.059  67.176  1.00  0.00    -0.342 C  
ENDROOT
BRANCH   3   4
HETATM    4  C   UNL     1     -10.660   9.946  68.358  1.00  0.00    -0.222 C  
BRANCH   4   5
HETATM    5  N   UNL     1     -11.895  10.655  68.104  1.00  0.00    -0.788 NA 
HETATM    6  H   UNL     1     -12.783  10.161  68.193  1.00  0.00     0.000 HD 
BRANCH   5   7
HETATM    7  C   UNL     1     -11.895  11.962  67.751  1.00  0.00    -0.219 A  
HETATM    8  N   UNL     1     -11.611  12.990  68.473  1.00  0.00    -0.305 NA 
HETATM    9  C   UNL     1     -11.753  14.126  67.565  1.00  0.00    -0.386 A  
HETATM   10  C   UNL     1     -12.039  13.526  66.208  1.00  0.00    -0.428 A  
HETATM   11  O   UNL     1     -12.216  12.141  66.449  1.00  0.00    -0.592 OA 
ENDBRANCH   5   7
ENDBRANCH   4   5
BRANCH   4  12
HETATM   12  C   UNL     1     -10.838   9.120  69.613  1.00  0.00    -0.210 C  
HETATM   13  C   UNL     1     -11.440   9.742  70.853  1.00  0.00    -0.447 C  
HETATM   14  C   UNL     1      -9.987   9.371  70.836  1.00  0.00    -0.353 C  
ENDBRANCH   4  12
ENDBRANCH   3   4
TORSDOF 4
ENDMDL
MODEL       41
REMARK 921   NORMALIZED FREE ENERGY PREDICTED BY IDOCK:   -3.90 KCAL/MOL
REMARK 922        TOTAL FREE ENERGY PREDICTED BY IDOCK:   -5.25 KCAL/MOL
REMARK 923 INTER-LIGAND FREE ENERGY PREDICTED BY IDOCK:   -4.87 KCAL/MOL
REMARK 924 INTRA-LIGAND FREE ENERGY PREDICTED BY IDOCK:   -0.38 KCAL/MOL
REMARK 927      BINDING AFFINITY PREDICTED BY RF-SCORE:    0.00 PKD
ROOT
HETATM    1  C   UNL     1     -13.217  11.215  71.847  1.00  0.00    -0.488 C  
HETATM    2  C   UNL     1     -13.243   9.740  72.118  1.00  0.00    -0.530 C  
HETATM    3  C   UNL     1     -12.978  10.240  70.714  1.00  0.00    -0.408 C  
ENDROOT
BRANCH   3   4
HETATM    4  C   UNL     1     -11.612  10.178  70.070  1.00  0.00    -0.253 C  
BRANCH   4   5
HETATM    5  N   UNL     1     -11.154  11.520  69.787  1.00  0.00    -0.467 NA 
HETATM    6  H   UNL     1     -10.731  12.072  70.534  1.00  0.00     0.000 HD 
BRANCH   5   7
HETATM    7  C   UNL     1     -11.275  12.059  68.552  1.00  0.00    -0.256 A  
HETATM    8  N   UNL     1     -11.936  11.612  67.540  1.00  0.00    -0.621 NA 
HETATM    9  C   UNL     1     -11.728  12.611  66.495  1.00  0.00    -0.400 A  
HETATM   10  C   UNL     1     -10.950  13.728  67.152  1.00  0.00    -0.290 A  
HETATM   11  O   UNL     1     -10.616  13.235  68.439  1.00  0.00    -0.240 OA 
ENDBRANCH   5   7
ENDBRANCH   4   5
BRANCH   4  12
HETATM   12  C   UNL     1     -10.613   9.522  70.999  1.00  0.00    -0.392 C  
HETATM   13  C   UNL     1      -9.188   9.298  70.545  1.00  0.00    -0.311 C  
HETATM   14  C   UNL     1     -10.104   8.125  70.730  1.00  0.00    -0.211 C  
ENDBRANCH   4  12
ENDBRANCH   3   4
TORSDOF 4
ENDMDL
MODEL       42
REMARK 921   NORMALIZED FREE ENERGY PREDICTED BY IDOCK:   -3.89 KCAL/MOL
REMARK 922        TOTAL FREE ENERGY PREDICTED BY IDOCK:   -5.24 KCAL/MOL
REMARK 923 INTER-LIGAND FREE ENERGY PREDICTED BY IDOCK:   -4.84 KCAL/MOL
REMARK 924 INTRA-LIGAND FREE ENERGY PREDICTED BY IDOCK:   -0.41 KCAL/MOL
REMARK 927      BINDING AFFINITY PREDICTED BY RF-SCORE:    0.00 PKD
ROOT
HETATM    1  C   UNL     1      -9.176   9.605  69.847  1.00  0.00    -0.255 C  
HETATM    2  C   UNL     1     -10.135   8.468  69.650  1.00  0.00    -0.202 C  
HETATM    3  C   UNL     1     -10.579   9.703  70.406  1.00  0.00    -0.354 C  
ENDROOT
BRANCH   3   4
HETATM    4  C   UNL     1     -11.536  10.717  69.822  1.00  0.00    -0.309 C  
BRANCH   4   5
HETATM    5  N   UNL     1     -11.746  10.425  68.420  1.00  0.00    -0.717 NA 
HETATM    6  H   UNL     1     -11.980   9.474  68.138  1.00  0.00     0.000 HD 
BRANCH   5   7
HETATM    7  C   UNL     1     -11.639  11.390  67.478  1.00  0.00    -0.219 A  
HETATM    8  N   UNL     1     -12.155  12.571  67.472  1.00  0.00    -0.444 NA 
HETATM    9  C   UNL     1     -11.683  13.172  66.227  1.00  0.00    -0.375 A  
HETATM   10  C   UNL     1     -10.729  12.164  65.628  1.00  0.00    -0.275 A  
HETATM   11  O   UNL     1     -10.849  11.013  66.446  1.00  0.00    -0.257 OA 
ENDBRANCH   5   7
ENDBRANCH   4   5
BRANCH   4  12
HETATM   12  C   UNL     1     -12.874  10.654  70.524  1.00  0.00    -0.356 C  
HETATM   13  C   UNL     1     -13.086  11.397  71.824  1.00  0.00    -0.523 C  
HETATM   14  C   UNL     1     -13.035   9.898  71.823  1.00  0.00    -0.549 C  
ENDBRANCH   4  12
ENDBRANCH   3   4
TORSDOF 4
ENDMDL
MODEL       43
REMARK 921   NORMALIZED FREE ENERGY PREDICTED BY IDOCK:   -3.89 KCAL/MOL
REMARK 922        TOTAL FREE ENERGY PREDICTED BY IDOCK:   -5.24 KCAL/MOL
REMARK 923 INTER-LIGAND FREE ENERGY PREDICTED BY IDOCK:   -4.78 KCAL/MOL
REMARK 924 INTRA-LIGAND FREE ENERGY PREDICTED BY IDOCK:   -0.46 KCAL/MOL
REMARK 927      BINDING AFFINITY PREDICTED BY RF-SCORE:    0.00 PKD
ROOT
HETATM    1  C   UNL     1     -10.925  13.192  66.834  1.00  0.00    -0.295 C  
HETATM    2  C   UNL     1     -12.297  13.784  66.704  1.00  0.00    -0.403 C  
HETATM    3  C   UNL     1     -11.729  13.499  68.078  1.00  0.00    -0.394 C  
ENDROOT
BRANCH   3   4
HETATM    4  C   UNL     1     -11.258  14.594  69.009  1.00  0.00    -0.269 C  
BRANCH   4   5
HETATM    5  N   UNL     1     -11.661  15.879  68.480  1.00  0.00    -0.399 NA 
HETATM    6  H   UNL     1     -12.652  16.069  68.331  1.00  0.00     0.000 HD 
BRANCH   5   7
HETATM    7  C   UNL     1     -10.750  16.833  68.180  1.00  0.00    -0.361 A  
HETATM    8  N   UNL     1     -10.244  17.734  68.950  1.00  0.00    -0.374 NA 
HETATM    9  C   UNL     1      -9.305  18.459  68.098  1.00  0.00    -0.317 A  
HETATM   10  C   UNL     1      -9.300  17.720  66.780  1.00  0.00    -0.280 A  
HETATM   11  O   UNL     1     -10.335  16.759  66.894  1.00  0.00    -0.295 OA 
ENDBRANCH   5   7
ENDBRANCH   4   5
BRANCH   4  12
HETATM   12  C   UNL     1     -11.875  14.431  70.380  1.00  0.00    -0.381 C  
HETATM   13  C   UNL     1     -12.928  15.405  70.860  1.00  0.00    -0.539 C  
HETATM   14  C   UNL     1     -11.567  15.409  71.491  1.00  0.00    -0.475 C  
ENDBRANCH   4  12
ENDBRANCH   3   4
TORSDOF 4
ENDMDL
MODEL       44
REMARK 921   NORMALIZED FREE ENERGY PREDICTED BY IDOCK:   -3.87 KCAL/MOL
REMARK 922        TOTAL FREE ENERGY PREDICTED BY IDOCK:   -5.22 KCAL/MOL
REMARK 923 INTER-LIGAND FREE ENERGY PREDICTED BY IDOCK:   -5.02 KCAL/MOL
REMARK 924 INTRA-LIGAND FREE ENERGY PREDICTED BY IDOCK:   -0.20 KCAL/MOL
REMARK 927      BINDING AFFINITY PREDICTED BY RF-SCORE:    0.00 PKD
ROOT
HETATM    1  C   UNL     1     -13.025  13.950  71.386  1.00  0.00    -0.430 C  
HETATM    2  C   UNL     1     -13.076  15.351  70.853  1.00  0.00    -0.528 C  
HETATM    3  C   UNL     1     -12.049  14.379  70.312  1.00  0.00    -0.396 C  
ENDROOT
BRANCH   3   4
HETATM    4  C   UNL     1     -12.152  13.766  68.934  1.00  0.00    -0.313 C  
BRANCH   4   5
HETATM    5  N   UNL     1     -11.732  14.736  67.946  1.00  0.00    -0.397 NA 
HETATM    6  H   UNL     1     -11.637  15.714  68.215  1.00  0.00     0.000 HD 
BRANCH   5   7
HETATM    7  C   UNL     1     -11.463  14.369  66.671  1.00  0.00    -0.363 A  
HETATM    8  N   UNL     1     -10.327  14.339  66.065  1.00  0.00    -0.298 NA 
HETATM    9  C   UNL     1     -10.637  13.840  64.727  1.00  0.00    -0.428 A  
HETATM   10  C   UNL     1     -12.107  13.491  64.757  1.00  0.00    -0.404 A  
HETATM   11  O   UNL     1     -12.572  13.963  66.010  1.00  0.00    -0.467 OA 
ENDBRANCH   5   7
ENDBRANCH   4   5
BRANCH   4  12
HETATM   12  C   UNL     1     -11.253  12.554  68.820  1.00  0.00    -0.318 C  
HETATM   13  C   UNL     1     -11.801  11.250  68.285  1.00  0.00    -0.299 C  
HETATM   14  C   UNL     1     -11.434  11.365  69.735  1.00  0.00    -0.376 C  
ENDBRANCH   4  12
ENDBRANCH   3   4
TORSDOF 4
ENDMDL
MODEL       45
REMARK 921   NORMALIZED FREE ENERGY PREDICTED BY IDOCK:   -3.86 KCAL/MOL
REMARK 922        TOTAL FREE ENERGY PREDICTED BY IDOCK:   -5.21 KCAL/MOL
REMARK 923 INTER-LIGAND FREE ENERGY PREDICTED BY IDOCK:   -4.81 KCAL/MOL
REMARK 924 INTRA-LIGAND FREE ENERGY PREDICTED BY IDOCK:   -0.40 KCAL/MOL
REMARK 927      BINDING AFFINITY PREDICTED BY RF-SCORE:    0.00 PKD
ROOT
HETATM    1  C   UNL     1     -11.475   9.989  71.016  1.00  0.00    -0.463 C  
HETATM    2  C   UNL     1     -12.890  10.407  70.750  1.00  0.00    -0.450 C  
HETATM    3  C   UNL     1     -11.752  11.129  70.060  1.00  0.00    -0.438 C  
ENDROOT
BRANCH   3   4
HETATM    4  C   UNL     1     -11.445  10.950  68.590  1.00  0.00    -0.311 C  
BRANCH   4   5
HETATM    5  N   UNL     1     -10.879  12.174  68.067  1.00  0.00    -0.213 NA 
HETATM    6  H   UNL     1     -10.005  12.527  68.456  1.00  0.00     0.000 HD 
BRANCH   5   7
HETATM    7  C   UNL     1     -11.487  12.861  67.072  1.00  0.00    -0.339 A  
HETATM    8  N   UNL     1     -11.613  14.136  66.934  1.00  0.00    -0.371 NA 
HETATM    9  C   UNL     1     -12.328  14.299  65.670  1.00  0.00    -0.405 A  
HETATM   10  C   UNL     1     -12.454  12.908  65.094  1.00  0.00    -0.501 A  
HETATM   11  O   UNL     1     -11.981  12.044  66.113  1.00  0.00    -0.581 OA 
ENDBRANCH   5   7
ENDBRANCH   4   5
BRANCH   4  12
HETATM   12  C   UNL     1     -10.440   9.839  68.386  1.00  0.00    -0.250 C  
HETATM   13  C   UNL     1      -9.525   9.854  67.182  1.00  0.00    -0.190 C  
HETATM   14  C   UNL     1     -10.615   8.827  67.277  1.00  0.00    -0.303 C  
ENDBRANCH   4  12
ENDBRANCH   3   4
TORSDOF 4
ENDMDL
MODEL       46
REMARK 921   NORMALIZED FREE ENERGY PREDICTED BY IDOCK:   -3.85 KCAL/MOL
REMARK 922        TOTAL FREE ENERGY PREDICTED BY IDOCK:   -5.19 KCAL/MOL
REMARK 923 INTER-LIGAND FREE ENERGY PREDICTED BY IDOCK:   -4.80 KCAL/MOL
REMARK 924 INTRA-LIGAND FREE ENERGY PREDICTED BY IDOCK:   -0.39 KCAL/MOL
REMARK 927      BINDING AFFINITY PREDICTED BY RF-SCORE:    0.00 PKD
ROOT
HETATM    1  C   UNL     1     -12.124   9.053  71.369  1.00  0.00    -0.392 C  
HETATM    2  C   UNL     1     -13.566   9.464  71.399  1.00  0.00    -0.362 C  
HETATM    3  C   UNL     1     -12.485  10.502  71.609  1.00  0.00    -0.443 C  
ENDROOT
BRANCH   3   4
HETATM    4  C   UNL     1     -12.130  11.534  70.562  1.00  0.00    -0.378 C  
BRANCH   4   5
HETATM    5  N   UNL     1     -12.369  10.982  69.246  1.00  0.00    -0.584 NA 
HETATM    6  H   UNL     1     -13.229  10.464  69.070  1.00  0.00     0.000 HD 
BRANCH   5   7
HETATM    7  C   UNL     1     -11.473  11.141  68.244  1.00  0.00    -0.303 A  
HETATM    8  N   UNL     1     -10.222  10.832  68.227  1.00  0.00    -0.161 NA 
HETATM    9  C   UNL     1      -9.771  11.202  66.888  1.00  0.00    -0.191 A  
HETATM   10  C   UNL     1     -11.014  11.643  66.150  1.00  0.00    -0.288 A  
HETATM   11  O   UNL     1     -12.034  11.670  67.133  1.00  0.00    -0.614 OA 
ENDBRANCH   5   7
ENDBRANCH   4   5
BRANCH   4  12
HETATM   12  C   UNL     1     -12.987  12.771  70.719  1.00  0.00     0.007 C  
HETATM   13  C   UNL     1     -12.414  14.015  71.359  1.00  0.00    -0.438 C  
HETATM   14  C   UNL     1     -13.460  13.220  72.082  1.00  0.00    -0.655 C  
ENDBRANCH   4  12
ENDBRANCH   3   4
TORSDOF 4
ENDMDL
MODEL       47
REMARK 921   NORMALIZED FREE ENERGY PREDICTED BY IDOCK:   -3.82 KCAL/MOL
REMARK 922        TOTAL FREE ENERGY PREDICTED BY IDOCK:   -5.16 KCAL/MOL
REMARK 923 INTER-LIGAND FREE ENERGY PREDICTED BY IDOCK:   -4.71 KCAL/MOL
REMARK 924 INTRA-LIGAND FREE ENERGY PREDICTED BY IDOCK:   -0.45 KCAL/MOL
REMARK 927      BINDING AFFINITY PREDICTED BY RF-SCORE:    0.00 PKD
ROOT
HETATM    1  C   UNL     1      -7.544  16.832  68.104  1.00  0.00    -0.177 C  
HETATM    2  C   UNL     1      -8.378  16.139  69.140  1.00  0.00    -0.230 C  
HETATM    3  C   UNL     1      -8.917  17.369  68.442  1.00  0.00    -0.277 C  
ENDROOT
BRANCH   3   4
HETATM    4  C   UNL     1     -10.012  17.302  67.401  1.00  0.00    -0.278 C  
BRANCH   4   5
HETATM    5  N   UNL     1     -10.939  16.247  67.748  1.00  0.00    -0.314 NA 
HETATM    6  H   UNL     1     -11.451  16.302  68.628  1.00  0.00     0.000 HD 
BRANCH   5   7
HETATM    7  C   UNL     1     -11.140  15.190  66.928  1.00  0.00    -0.314 A  
HETATM    8  N   UNL     1     -11.919  14.177  67.097  1.00  0.00    -0.421 NA 
HETATM    9  C   UNL     1     -11.747  13.376  65.887  1.00  0.00    -0.356 A  
HETATM   10  C   UNL     1     -10.843  14.189  64.989  1.00  0.00    -0.398 A  
HETATM   11  O   UNL     1     -10.422  15.283  65.785  1.00  0.00    -0.304 OA 
ENDBRANCH   5   7
ENDBRANCH   4   5
BRANCH   4  12
HETATM   12  C   UNL     1     -10.777  18.605  67.345  1.00  0.00    -0.456 C  
HETATM   13  C   UNL     1     -10.226  19.777  66.564  1.00  0.00    -0.606 C  
HETATM   14  C   UNL     1     -10.270  19.835  68.063  1.00  0.00    -0.581 C  
ENDBRANCH   4  12
ENDBRANCH   3   4
TORSDOF 4
ENDMDL
MODEL       48
REMARK 921   NORMALIZED FREE ENERGY PREDICTED BY IDOCK:   -3.82 KCAL/MOL
REMARK 922        TOTAL FREE ENERGY PREDICTED BY IDOCK:   -5.15 KCAL/MOL
REMARK 923 INTER-LIGAND FREE ENERGY PREDICTED BY IDOCK:   -4.79 KCAL/MOL
REMARK 924 INTRA-LIGAND FREE ENERGY PREDICTED BY IDOCK:   -0.37 KCAL/MOL
REMARK 927      BINDING AFFINITY PREDICTED BY RF-SCORE:    0.00 PKD
ROOT
HETATM    1  C   UNL     1     -10.551  18.053  67.450  1.00  0.00    -0.378 C  
HETATM    2  C   UNL     1      -9.517  17.806  66.392  1.00  0.00    -0.277 C  
HETATM    3  C   UNL     1     -10.136  16.635  67.125  1.00  0.00    -0.276 C  
ENDROOT
BRANCH   3   4
HETATM    4  C   UNL     1     -11.136  15.704  66.477  1.00  0.00    -0.135 C  
BRANCH   4   5
HETATM    5  N   UNL     1     -10.588  15.200  65.237  1.00  0.00    -0.379 NA 
HETATM    6  H   UNL     1      -9.756  15.639  64.843  1.00  0.00     0.000 HD 
BRANCH   5   7
HETATM    7  C   UNL     1     -11.157  14.158  64.589  1.00  0.00    -0.371 A  
HETATM    8  N   UNL     1     -12.348  14.065  64.104  1.00  0.00    -0.672 NA 
HETATM    9  C   UNL     1     -12.395  12.735  63.500  1.00  0.00    -0.467 A  
HETATM   10  C   UNL     1     -10.996  12.180  63.632  1.00  0.00    -0.461 A  
HETATM   11  O   UNL     1     -10.303  13.120  64.437  1.00  0.00    -0.402 OA 
ENDBRANCH   5   7
ENDBRANCH   4   5
BRANCH   4  12
HETATM   12  C   UNL     1     -11.429  14.525  67.379  1.00  0.00    -0.385 C  
HETATM   13  C   UNL     1     -11.827  14.751  68.820  1.00  0.00    -0.330 C  
HETATM   14  C   UNL     1     -10.489  14.152  68.502  1.00  0.00    -0.252 C  
ENDBRANCH   4  12
ENDBRANCH   3   4
TORSDOF 4
ENDMDL
MODEL       49
REMARK 921   NORMALIZED FREE ENERGY PREDICTED BY IDOCK:   -3.80 KCAL/MOL
REMARK 922        TOTAL FREE ENERGY PREDICTED BY IDOCK:   -5.13 KCAL/MOL
REMARK 923 INTER-LIGAND FREE ENERGY PREDICTED BY IDOCK:   -4.70 KCAL/MOL
REMARK 924 INTRA-LIGAND FREE ENERGY PREDICTED BY IDOCK:   -0.44 KCAL/MOL
REMARK 927      BINDING AFFINITY PREDICTED BY RF-SCORE:    0.00 PKD
ROOT
HETATM    1  C   UNL     1     -11.106  14.574  69.240  1.00  0.00    -0.296 C  
HETATM    2  C   UNL     1     -12.170  13.937  70.083  1.00  0.00    -0.425 C  
HETATM    3  C   UNL     1     -12.019  13.533  68.632  1.00  0.00    -0.378 C  
ENDROOT
BRANCH   3   4
HETATM    4  C   UNL     1     -11.441  12.200  68.212  1.00  0.00    -0.305 C  
BRANCH   4   5
HETATM    5  N   UNL     1     -12.245  11.133  68.767  1.00  0.00    -0.676 NA 
HETATM    6  H   UNL     1     -13.183  10.972  68.401  1.00  0.00     0.000 HD 
BRANCH   5   7
HETATM    7  C   UNL     1     -11.776  10.344  69.761  1.00  0.00    -0.237 A  
HETATM    8  N   UNL     1     -12.014  10.418  71.026  1.00  0.00    -0.367 NA 
HETATM    9  C   UNL     1     -11.268   9.302  71.604  1.00  0.00    -0.379 A  
HETATM   10  C   UNL     1     -10.693   8.546  70.428  1.00  0.00    -0.228 A  
HETATM   11  O   UNL     1     -10.984   9.350  69.298  1.00  0.00    -0.208 OA 
ENDBRANCH   5   7
ENDBRANCH   4   5
BRANCH   4  12
HETATM   12  C   UNL     1     -11.450  12.065  66.705  1.00  0.00    -0.411 C  
HETATM   13  C   UNL     1     -10.588  12.972  65.856  1.00  0.00    -0.288 C  
HETATM   14  C   UNL     1     -12.080  13.127  65.834  1.00  0.00    -0.501 C  
ENDBRANCH   4  12
ENDBRANCH   3   4
TORSDOF 4
ENDMDL
MODEL       50
REMARK 921   NORMALIZED FREE ENERGY PREDICTED BY IDOCK:   -3.77 KCAL/MOL
REMARK 922        TOTAL FREE ENERGY PREDICTED BY IDOCK:   -5.10 KCAL/MOL
REMARK 923 INTER-LIGAND FREE ENERGY PREDICTED BY IDOCK:   -4.85 KCAL/MOL
REMARK 924 INTRA-LIGAND FREE ENERGY PREDICTED BY IDOCK:   -0.24 KCAL/MOL
REMARK 927      BINDING AFFINITY PREDICTED BY RF-SCORE:    0.00 PKD
ROOT
HETATM    1  C   UNL     1      -9.804   8.081  72.865  1.00  0.00    -0.357 C  
HETATM    2  C   UNL     1     -10.285   7.026  73.816  1.00  0.00    -0.401 C  
HETATM    3  C   UNL     1     -11.262   7.675  72.859  1.00  0.00    -0.426 C  
ENDROOT
BRANCH   3   4
HETATM    4  C   UNL     1     -11.823   6.955  71.653  1.00  0.00    -0.324 C  
BRANCH   4   5
HETATM    5  N   UNL     1     -12.847   7.773  71.041  1.00  0.00    -0.540 NA 
HETATM    6  H   UNL     1     -13.564   7.329  70.467  1.00  0.00     0.000 HD 
BRANCH   5   7
HETATM    7  C   UNL     1     -12.873   9.114  71.214  1.00  0.00    -0.264 A  
HETATM    8  N   UNL     1     -13.530   9.801  72.085  1.00  0.00    -0.436 NA 
HETATM    9  C   UNL     1     -13.154  11.187  71.818  1.00  0.00    -0.431 A  
HETATM   10  C   UNL     1     -12.093  11.119  70.744  1.00  0.00    -0.357 A  
HETATM   11  O   UNL     1     -12.058   9.759  70.348  1.00  0.00    -0.215 OA 
ENDBRANCH   5   7
ENDBRANCH   4   5
BRANCH   4  12
HETATM   12  C   UNL     1     -10.739   6.707  70.628  1.00  0.00    -0.286 C  
HETATM   13  C   UNL     1     -11.100   6.208  69.247  1.00  0.00    -0.463 C  
HETATM   14  C   UNL     1     -10.379   5.303  70.202  1.00  0.00    -0.354 C  
ENDBRANCH   4  12
ENDBRANCH   3   4
TORSDOF 4
ENDMDL
MODEL       51
REMARK 921   NORMALIZED FREE ENERGY PREDICTED BY IDOCK:   -3.77 KCAL/MOL
REMARK 922        TOTAL FREE ENERGY PREDICTED BY IDOCK:   -5.10 KCAL/MOL
REMARK 923 INTER-LIGAND FREE ENERGY PREDICTED BY IDOCK:   -4.60 KCAL/MOL
REMARK 924 INTRA-LIGAND FREE ENERGY PREDICTED BY IDOCK:   -0.50 KCAL/MOL
REMARK 927      BINDING AFFINITY PREDICTED BY RF-SCORE:    0.00 PKD
ROOT
HETATM    1  C   UNL     1      -9.854  10.361  66.681  1.00  0.00    -0.251 C  
HETATM    2  C   UNL     1      -9.031  11.608  66.556  1.00  0.00    -0.191 C  
HETATM    3  C   UNL     1     -10.377  11.525  65.868  1.00  0.00    -0.293 C  
ENDROOT
BRANCH   3   4
HETATM    4  C   UNL     1     -11.591  12.281  66.357  1.00  0.00    -0.383 C  
BRANCH   4   5
HETATM    5  N   UNL     1     -11.163  13.443  67.105  1.00  0.00    -0.293 NA 
HETATM    6  H   UNL     1     -10.505  14.096  66.680  1.00  0.00     0.000 HD 
BRANCH   5   7
HETATM    7  C   UNL     1     -11.617  13.679  68.357  1.00  0.00    -0.342 A  
HETATM    8  N   UNL     1     -12.016  14.791  68.872  1.00  0.00    -0.289 NA 
HETATM    9  C   UNL     1     -12.413  14.443  70.234  1.00  0.00    -0.354 A  
HETATM   10  C   UNL     1     -12.279  12.940  70.324  1.00  0.00    -0.289 A  
HETATM   11  O   UNL     1     -11.662  12.554  69.107  1.00  0.00    -0.289 OA 
ENDBRANCH   5   7
ENDBRANCH   4   5
BRANCH   4  12
HETATM   12  C   UNL     1     -12.432  12.752  65.191  1.00  0.00    -0.565 C  
HETATM   13  C   UNL     1     -11.877  12.703  63.785  1.00  0.00    -0.574 C  
HETATM   14  C   UNL     1     -12.094  14.028  64.454  1.00  0.00    -0.486 C  
ENDBRANCH   4  12
ENDBRANCH   3   4
TORSDOF 4
ENDMDL
MODEL       52
REMARK 921   NORMALIZED FREE ENERGY PREDICTED BY IDOCK:   -3.75 KCAL/MOL
REMARK 922        TOTAL FREE ENERGY PREDICTED BY IDOCK:   -5.07 KCAL/MOL
REMARK 923 INTER-LIGAND FREE ENERGY PREDICTED BY IDOCK:   -4.69 KCAL/MOL
REMARK 924 INTRA-LIGAND FREE ENERGY PREDICTED BY IDOCK:   -0.38 KCAL/MOL
REMARK 927      BINDING AFFINITY PREDICTED BY RF-SCORE:    0.00 PKD
ROOT
HETATM    1  C   UNL     1     -10.670   9.677  67.527  1.00  0.00    -0.321 C  
HETATM    2  C   UNL     1     -10.326  11.131  67.402  1.00  0.00    -0.231 C  
HETATM    3  C   UNL     1     -11.422  10.698  68.352  1.00  0.00    -0.330 C  
ENDROOT
BRANCH   3   4
HETATM    4  C   UNL     1     -11.250  10.705  69.854  1.00  0.00    -0.308 C  
BRANCH   4   5
HETATM    5  N   UNL     1     -12.474  11.162  70.475  1.00  0.00    -0.331 NA 
HETATM    6  H   UNL     1     -13.285  10.545  70.493  1.00  0.00     0.000 HD 
BRANCH   5   7
HETATM    7  C   UNL     1     -12.563  12.391  71.032  1.00  0.00    -0.254 A  
HETATM    8  N   UNL     1     -12.063  13.503  70.613  1.00  0.00    -0.338 NA 
HETATM    9  C   UNL     1     -12.501  14.495  71.593  1.00  0.00    -0.352 A  
HETATM   10  C   UNL     1     -13.420  13.753  72.537  1.00  0.00    -0.578 A  
HETATM   11  O   UNL     1     -13.312  12.391  72.159  1.00  0.00    -0.528 OA 
ENDBRANCH   5   7
ENDBRANCH   4   5
BRANCH   4  12
HETATM   12  C   UNL     1     -10.952   9.312  70.364  1.00  0.00    -0.302 C  
HETATM   13  C   UNL     1     -11.158   8.977  71.824  1.00  0.00    -0.444 C  
HETATM   14  C   UNL     1      -9.768   9.051  71.266  1.00  0.00    -0.371 C  
ENDBRANCH   4  12
ENDBRANCH   3   4
TORSDOF 4
ENDMDL
MODEL       53
REMARK 921   NORMALIZED FREE ENERGY PREDICTED BY IDOCK:   -3.75 KCAL/MOL
REMARK 922        TOTAL FREE ENERGY PREDICTED BY IDOCK:   -5.07 KCAL/MOL
REMARK 923 INTER-LIGAND FREE ENERGY PREDICTED BY IDOCK:   -4.64 KCAL/MOL
REMARK 924 INTRA-LIGAND FREE ENERGY PREDICTED BY IDOCK:   -0.43 KCAL/MOL
REMARK 927      BINDING AFFINITY PREDICTED BY RF-SCORE:    0.00 PKD
ROOT
HETATM    1  C   UNL     1     -12.104  14.239  65.604  1.00  0.00    -0.399 C  
HETATM    2  C   UNL     1     -11.121  13.781  64.568  1.00  0.00    -0.388 C  
HETATM    3  C   UNL     1     -11.079  15.211  65.063  1.00  0.00    -0.428 C  
ENDROOT
BRANCH   3   4
HETATM    4  C   UNL     1      -9.993  15.725  65.981  1.00  0.00    -0.332 C  
BRANCH   4   5
HETATM    5  N   UNL     1     -10.598  16.425  67.093  1.00  0.00    -0.302 NA 
HETATM    6  H   UNL     1     -11.138  15.900  67.780  1.00  0.00     0.000 HD 
BRANCH   5   7
HETATM    7  C   UNL     1     -10.462  17.763  67.238  1.00  0.00    -0.353 A  
HETATM    8  N   UNL     1     -10.348  18.447  68.325  1.00  0.00    -0.374 NA 
HETATM    9  C   UNL     1     -10.206  19.830  67.874  1.00  0.00    -0.444 A  
HETATM   10  C   UNL     1     -10.139  19.760  66.366  1.00  0.00    -0.491 A  
HETATM   11  O   UNL     1     -10.418  18.407  66.049  1.00  0.00    -0.441 OA 
ENDBRANCH   5   7
ENDBRANCH   4   5
BRANCH   4  12
HETATM   12  C   UNL     1      -9.174  14.579  66.532  1.00  0.00    -0.282 C  
HETATM   13  C   UNL     1      -9.299  14.186  67.987  1.00  0.00    -0.203 C  
HETATM   14  C   UNL     1      -8.037  14.831  67.496  1.00  0.00    -0.199 C  
ENDBRANCH   4  12
ENDBRANCH   3   4
TORSDOF 4
ENDMDL
MODEL       54
REMARK 921   NORMALIZED FREE ENERGY PREDICTED BY IDOCK:   -3.75 KCAL/MOL
REMARK 922        TOTAL FREE ENERGY PREDICTED BY IDOCK:   -5.07 KCAL/MOL
REMARK 923 INTER-LIGAND FREE ENERGY PREDICTED BY IDOCK:   -4.68 KCAL/MOL
REMARK 924 INTRA-LIGAND FREE ENERGY PREDICTED BY IDOCK:   -0.39 KCAL/MOL
REMARK 927      BINDING AFFINITY PREDICTED BY RF-SCORE:    0.00 PKD
ROOT
HETATM    1  C   UNL     1      -8.752  10.477  68.755  1.00  0.00    -0.154 C  
HETATM    2  C   UNL     1      -9.130  10.224  67.326  1.00  0.00    -0.150 C  
HETATM    3  C   UNL     1     -10.198  10.211  68.399  1.00  0.00    -0.192 C  
ENDROOT
BRANCH   3   4
HETATM    4  C   UNL     1     -11.212  11.322  68.554  1.00  0.00    -0.252 C  
BRANCH   4   5
HETATM    5  N   UNL     1     -11.905  11.518  67.299  1.00  0.00    -0.604 NA 
HETATM    6  H   UNL     1     -12.500  10.774  66.936  1.00  0.00     0.000 HD 
BRANCH   5   7
HETATM    7  C   UNL     1     -11.777  12.668  66.598  1.00  0.00    -0.398 A  
HETATM    8  N   UNL     1     -10.972  13.653  66.806  1.00  0.00    -0.290 NA 
HETATM    9  C   UNL     1     -11.261  14.596  65.728  1.00  0.00    -0.336 A  
HETATM   10  C   UNL     1     -12.265  13.900  64.839  1.00  0.00    -0.422 A  
HETATM   11  O   UNL     1     -12.613  12.716  65.535  1.00  0.00    -0.634 OA 
ENDBRANCH   5   7
ENDBRANCH   4   5
BRANCH   4  12
HETATM   12  C   UNL     1     -12.236  10.967  69.610  1.00  0.00    -0.370 C  
HETATM   13  C   UNL     1     -12.260  11.711  70.926  1.00  0.00    -0.401 C  
HETATM   14  C   UNL     1     -11.826  10.276  70.889  1.00  0.00    -0.473 C  
ENDBRANCH   4  12
ENDBRANCH   3   4
TORSDOF 4
ENDMDL
MODEL       55
REMARK 921   NORMALIZED FREE ENERGY PREDICTED BY IDOCK:   -3.75 KCAL/MOL
REMARK 922        TOTAL FREE ENERGY PREDICTED BY IDOCK:   -5.06 KCAL/MOL
REMARK 923 INTER-LIGAND FREE ENERGY PREDICTED BY IDOCK:   -4.63 KCAL/MOL
REMARK 924 INTRA-LIGAND FREE ENERGY PREDICTED BY IDOCK:   -0.44 KCAL/MOL
REMARK 927      BINDING AFFINITY PREDICTED BY RF-SCORE:    0.00 PKD
ROOT
HETATM    1  C   UNL     1     -11.339  10.867  67.852  1.00  0.00    -0.380 C  
HETATM    2  C   UNL     1     -10.177  11.601  68.452  1.00  0.00    -0.211 C  
HETATM    3  C   UNL     1     -10.944  12.221  67.304  1.00  0.00    -0.301 C  
ENDROOT
BRANCH   3   4
HETATM    4  C   UNL     1     -11.881  13.393  67.487  1.00  0.00    -0.366 C  
BRANCH   4   5
HETATM    5  N   UNL     1     -11.162  14.491  68.096  1.00  0.00    -0.272 NA 
HETATM    6  H   UNL     1     -10.390  14.924  67.590  1.00  0.00     0.000 HD 
BRANCH   5   7
HETATM    7  C   UNL     1     -11.493  14.953  69.324  1.00  0.00    -0.303 A  
HETATM    8  N   UNL     1     -10.813  15.719  70.106  1.00  0.00    -0.326 NA 
HETATM    9  C   UNL     1     -11.671  15.906  71.274  1.00  0.00    -0.448 A  
HETATM   10  C   UNL     1     -12.972  15.216  70.934  1.00  0.00    -0.429 A  
HETATM   11  O   UNL     1     -12.724  14.545  69.710  1.00  0.00    -0.216 OA 
ENDBRANCH   5   7
ENDBRANCH   4   5
BRANCH   4  12
HETATM   12  C   UNL     1     -12.418  13.861  66.153  1.00  0.00    -0.478 C  
HETATM   13  C   UNL     1     -12.505  12.900  64.989  1.00  0.00    -0.553 C  
HETATM   14  C   UNL     1     -11.505  14.017  64.959  1.00  0.00    -0.344 C  
ENDBRANCH   4  12
ENDBRANCH   3   4
TORSDOF 4
ENDMDL
MODEL       56
REMARK 921   NORMALIZED FREE ENERGY PREDICTED BY IDOCK:   -3.75 KCAL/MOL
REMARK 922        TOTAL FREE ENERGY PREDICTED BY IDOCK:   -5.06 KCAL/MOL
REMARK 923 INTER-LIGAND FREE ENERGY PREDICTED BY IDOCK:   -4.65 KCAL/MOL
REMARK 924 INTRA-LIGAND FREE ENERGY PREDICTED BY IDOCK:   -0.41 KCAL/MOL
REMARK 927      BINDING AFFINITY PREDICTED BY RF-SCORE:    0.00 PKD
ROOT
HETATM    1  C   UNL     1     -12.295  14.388  71.475  1.00  0.00    -0.427 C  
HETATM    2  C   UNL     1     -13.507  15.195  71.114  1.00  0.00    -0.533 C  
HETATM    3  C   UNL     1     -12.129  15.703  70.746  1.00  0.00    -0.454 C  
ENDROOT
BRANCH   3   4
HETATM    4  C   UNL     1     -11.611  15.699  69.326  1.00  0.00    -0.366 C  
BRANCH   4   5
HETATM    5  N   UNL     1     -10.184  15.938  69.336  1.00  0.00    -0.244 NA 
HETATM    6  H   UNL     1      -9.556  15.199  69.651  1.00  0.00     0.000 HD 
BRANCH   5   7
HETATM    7  C   UNL     1      -9.667  17.122  68.935  1.00  0.00    -0.256 A  
HETATM    8  N   UNL     1     -10.279  18.235  68.716  1.00  0.00    -0.367 NA 
HETATM    9  C   UNL     1      -9.221  19.168  68.337  1.00  0.00    -0.356 A  
HETATM   10  C   UNL     1      -7.928  18.405  68.509  1.00  0.00    -0.314 A  
HETATM   11  O   UNL     1      -8.322  17.073  68.792  1.00  0.00    -0.251 OA 
ENDBRANCH   5   7
ENDBRANCH   4   5
BRANCH   4  12
HETATM   12  C   UNL     1     -11.861  14.359  68.670  1.00  0.00    -0.366 C  
HETATM   13  C   UNL     1     -10.787  13.715  67.823  1.00  0.00    -0.266 C  
HETATM   14  C   UNL     1     -12.030  14.246  67.172  1.00  0.00    -0.449 C  
ENDBRANCH   4  12
ENDBRANCH   3   4
TORSDOF 4
ENDMDL
MODEL       57
REMARK 921   NORMALIZED FREE ENERGY PREDICTED BY IDOCK:   -3.73 KCAL/MOL
REMARK 922        TOTAL FREE ENERGY PREDICTED BY IDOCK:   -5.05 KCAL/MOL
REMARK 923 INTER-LIGAND FREE ENERGY PREDICTED BY IDOCK:   -4.82 KCAL/MOL
REMARK 924 INTRA-LIGAND FREE ENERGY PREDICTED BY IDOCK:   -0.22 KCAL/MOL
REMARK 927      BINDING AFFINITY PREDICTED BY RF-SCORE:    0.00 PKD
ROOT
HETATM    1  C   UNL     1     -10.576  10.636  66.867  1.00  0.00    -0.311 C  
HETATM    2  C   UNL     1     -11.453  10.943  68.044  1.00  0.00    -0.356 C  
HETATM    3  C   UNL     1     -11.058  12.052  67.092  1.00  0.00    -0.344 C  
ENDROOT
BRANCH   3   4
HETATM    4  C   UNL     1     -12.028  12.667  66.108  1.00  0.00    -0.395 C  
BRANCH   4   5
HETATM    5  N   UNL     1     -12.479  13.945  66.615  1.00  0.00    -0.474 NA 
HETATM    6  H   UNL     1     -13.446  14.230  66.461  1.00  0.00     0.000 HD 
BRANCH   5   7
HETATM    7  C   UNL     1     -11.643  14.768  67.288  1.00  0.00    -0.369 A  
HETATM    8  N   UNL     1     -10.693  15.505  66.825  1.00  0.00    -0.306 NA 
HETATM    9  C   UNL     1     -10.156  16.191  67.998  1.00  0.00    -0.242 A  
HETATM   10  C   UNL     1     -11.055  15.795  69.146  1.00  0.00    -0.283 A  
HETATM   11  O   UNL     1     -11.913  14.800  68.614  1.00  0.00    -0.311 OA 
ENDBRANCH   5   7
ENDBRANCH   4   5
BRANCH   4  12
HETATM   12  C   UNL     1     -11.359  12.897  64.771  1.00  0.00    -0.349 C  
HETATM   13  C   UNL     1     -12.152  13.458  63.612  1.00  0.00    -0.513 C  
HETATM   14  C   UNL     1     -11.691  12.031  63.578  1.00  0.00    -0.566 C  
ENDBRANCH   4  12
ENDBRANCH   3   4
TORSDOF 4
ENDMDL
MODEL       58
REMARK 921   NORMALIZED FREE ENERGY PREDICTED BY IDOCK:   -3.72 KCAL/MOL
REMARK 922        TOTAL FREE ENERGY PREDICTED BY IDOCK:   -5.03 KCAL/MOL
REMARK 923 INTER-LIGAND FREE ENERGY PREDICTED BY IDOCK:   -4.74 KCAL/MOL
REMARK 924 INTRA-LIGAND FREE ENERGY PREDICTED BY IDOCK:   -0.29 KCAL/MOL
REMARK 927      BINDING AFFINITY PREDICTED BY RF-SCORE:    0.00 PKD
ROOT
HETATM    1  C   UNL     1     -12.643  12.870  64.821  1.00  0.00    -0.493 C  
HETATM    2  C   UNL     1     -12.068  14.188  64.396  1.00  0.00    -0.486 C  
HETATM    3  C   UNL     1     -12.519  13.993  65.828  1.00  0.00    -0.523 C  
ENDROOT
BRANCH   3   4
HETATM    4  C   UNL     1     -11.547  13.849  66.977  1.00  0.00    -0.369 C  
BRANCH   4   5
HETATM    5  N   UNL     1     -12.283  13.602  68.198  1.00  0.00    -0.382 NA 
HETATM    6  H   UNL     1     -12.995  12.872  68.214  1.00  0.00     0.000 HD 
BRANCH   5   7
HETATM    7  C   UNL     1     -12.044  14.319  69.320  1.00  0.00    -0.313 A  
HETATM    8  N   UNL     1     -12.193  13.965  70.550  1.00  0.00    -0.353 NA 
HETATM    9  C   UNL     1     -11.759  15.126  71.323  1.00  0.00    -0.359 A  
HETATM   10  C   UNL     1     -11.235  16.115  70.307  1.00  0.00    -0.381 A  
HETATM   11  O   UNL     1     -11.558  15.552  69.046  1.00  0.00    -0.322 OA 
ENDBRANCH   5   7
ENDBRANCH   4   5
BRANCH   4  12
HETATM   12  C   UNL     1     -10.612  12.683  66.743  1.00  0.00    -0.254 C  
HETATM   13  C   UNL     1     -10.890  11.345  67.390  1.00  0.00    -0.301 C  
HETATM   14  C   UNL     1      -9.722  12.167  67.850  1.00  0.00    -0.200 C  
ENDBRANCH   4  12
ENDBRANCH   3   4
TORSDOF 4
ENDMDL
MODEL       59
REMARK 921   NORMALIZED FREE ENERGY PREDICTED BY IDOCK:   -3.72 KCAL/MOL
REMARK 922        TOTAL FREE ENERGY PREDICTED BY IDOCK:   -5.02 KCAL/MOL
REMARK 923 INTER-LIGAND FREE ENERGY PREDICTED BY IDOCK:   -4.59 KCAL/MOL
REMARK 924 INTRA-LIGAND FREE ENERGY PREDICTED BY IDOCK:   -0.44 KCAL/MOL
REMARK 927      BINDING AFFINITY PREDICTED BY RF-SCORE:    0.00 PKD
ROOT
HETATM    1  C   UNL     1     -10.630   8.032  67.213  1.00  0.00    -0.360 C  
HETATM    2  C   UNL     1     -10.224   7.305  68.460  1.00  0.00    -0.197 C  
HETATM    3  C   UNL     1      -9.955   8.790  68.336  1.00  0.00    -0.200 C  
ENDROOT
BRANCH   3   4
HETATM    4  C   UNL     1     -10.743   9.829  69.102  1.00  0.00    -0.221 C  
BRANCH   4   5
HETATM    5  N   UNL     1     -11.723  10.430  68.225  1.00  0.00    -0.741 NA 
HETATM    6  H   UNL     1     -12.453   9.846  67.816  1.00  0.00     0.000 HD 
BRANCH   5   7
HETATM    7  C   UNL     1     -11.691  11.751  67.935  1.00  0.00    -0.276 A  
HETATM    8  N   UNL     1     -12.091  12.351  66.867  1.00  0.00    -0.547 NA 
HETATM    9  C   UNL     1     -11.836  13.767  67.124  1.00  0.00    -0.406 A  
HETATM   10  C   UNL     1     -11.348  13.837  68.553  1.00  0.00    -0.285 A  
HETATM   11  O   UNL     1     -11.188  12.487  68.953  1.00  0.00    -0.251 OA 
ENDBRANCH   5   7
ENDBRANCH   4   5
BRANCH   4  12
HETATM   12  C   UNL     1     -11.474   9.194  70.264  1.00  0.00    -0.174 C  
HETATM   13  C   UNL     1     -12.202  10.060  71.268  1.00  0.00    -0.498 C  
HETATM   14  C   UNL     1     -10.956   9.333  71.677  1.00  0.00    -0.433 C  
ENDBRANCH   4  12
ENDBRANCH   3   4
TORSDOF 4
ENDMDL
MODEL       60
REMARK 921   NORMALIZED FREE ENERGY PREDICTED BY IDOCK:   -3.69 KCAL/MOL
REMARK 922        TOTAL FREE ENERGY PREDICTED BY IDOCK:   -5.00 KCAL/MOL
REMARK 923 INTER-LIGAND FREE ENERGY PREDICTED BY IDOCK:   -4.65 KCAL/MOL
REMARK 924 INTRA-LIGAND FREE ENERGY PREDICTED BY IDOCK:   -0.34 KCAL/MOL
REMARK 927      BINDING AFFINITY PREDICTED BY RF-SCORE:    0.00 PKD
ROOT
HETATM    1  C   UNL     1      -9.787  14.888  66.185  1.00  0.00    -0.332 C  
HETATM    2  C   UNL     1     -10.587  15.802  65.306  1.00  0.00    -0.446 C  
HETATM    3  C   UNL     1     -10.419  16.131  66.774  1.00  0.00    -0.294 C  
ENDROOT
BRANCH   3   4
HETATM    4  C   UNL     1      -9.527  17.250  67.262  1.00  0.00    -0.250 C  
BRANCH   4   5
HETATM    5  N   UNL     1      -8.814  17.820  66.140  1.00  0.00    -0.489 NA 
HETATM    6  H   UNL     1      -9.341  18.191  65.350  1.00  0.00     0.000 HD 
BRANCH   5   7
HETATM    7  C   UNL     1      -7.462  17.868  66.117  1.00  0.00    -0.280 A  
HETATM    8  N   UNL     1      -6.623  17.287  66.903  1.00  0.00    -0.173 NA 
HETATM    9  C   UNL     1      -5.311  17.674  66.390  1.00  0.00    -0.188 A  
HETATM   10  C   UNL     1      -5.585  18.457  65.126  1.00  0.00    -0.179 A  
HETATM   11  O   UNL     1      -6.993  18.618  65.093  1.00  0.00    -0.511 OA 
ENDBRANCH   5   7
ENDBRANCH   4   5
BRANCH   4  12
HETATM   12  C   UNL     1     -10.349  18.345  67.906  1.00  0.00    -0.425 C  
HETATM   13  C   UNL     1     -10.186  19.780  67.458  1.00  0.00    -0.572 C  
HETATM   14  C   UNL     1      -9.706  19.365  68.817  1.00  0.00    -0.516 C  
ENDBRANCH   4  12
ENDBRANCH   3   4
TORSDOF 4
ENDMDL
MODEL       61
REMARK 921   NORMALIZED FREE ENERGY PREDICTED BY IDOCK:   -3.68 KCAL/MOL
REMARK 922        TOTAL FREE ENERGY PREDICTED BY IDOCK:   -4.98 KCAL/MOL
REMARK 923 INTER-LIGAND FREE ENERGY PREDICTED BY IDOCK:   -4.47 KCAL/MOL
REMARK 924 INTRA-LIGAND FREE ENERGY PREDICTED BY IDOCK:   -0.51 KCAL/MOL
REMARK 927      BINDING AFFINITY PREDICTED BY RF-SCORE:    0.00 PKD
ROOT
HETATM    1  C   UNL     1     -13.282  15.322  71.134  1.00  0.00    -0.567 C  
HETATM    2  C   UNL     1     -12.151  14.687  71.885  1.00  0.00    -0.375 C  
HETATM    3  C   UNL     1     -12.576  14.120  70.548  1.00  0.00    -0.410 C  
ENDROOT
BRANCH   3   4
HETATM    4  C   UNL     1     -11.752  14.289  69.291  1.00  0.00    -0.321 C  
BRANCH   4   5
HETATM    5  N   UNL     1     -10.404  14.673  69.650  1.00  0.00    -0.431 NA 
HETATM    6  H   UNL     1      -9.876  14.093  70.301  1.00  0.00     0.000 HD 
BRANCH   5   7
HETATM    7  C   UNL     1      -9.831  15.787  69.139  1.00  0.00    -0.247 A  
HETATM    8  N   UNL     1      -8.631  15.945  68.697  1.00  0.00    -0.186 NA 
HETATM    9  C   UNL     1      -8.585  17.335  68.250  1.00  0.00    -0.247 A  
HETATM   10  C   UNL     1      -9.993  17.859  68.411  1.00  0.00    -0.367 A  
HETATM   11  O   UNL     1     -10.694  16.829  69.086  1.00  0.00    -0.329 OA 
ENDBRANCH   5   7
ENDBRANCH   4   5
BRANCH   4  12
HETATM   12  C   UNL     1     -11.684  12.990  68.519  1.00  0.00    -0.377 C  
HETATM   13  C   UNL     1     -12.007  11.681  69.203  1.00  0.00    -0.378 C  
HETATM   14  C   UNL     1     -10.595  11.978  68.794  1.00  0.00    -0.237 C  
ENDBRANCH   4  12
ENDBRANCH   3   4
TORSDOF 4
ENDMDL
MODEL       62
REMARK 921   NORMALIZED FREE ENERGY PREDICTED BY IDOCK:   -3.67 KCAL/MOL
REMARK 922        TOTAL FREE ENERGY PREDICTED BY IDOCK:   -4.97 KCAL/MOL
REMARK 923 INTER-LIGAND FREE ENERGY PREDICTED BY IDOCK:   -4.56 KCAL/MOL
REMARK 924 INTRA-LIGAND FREE ENERGY PREDICTED BY IDOCK:   -0.42 KCAL/MOL
REMARK 927      BINDING AFFINITY PREDICTED BY RF-SCORE:    0.00 PKD
ROOT
HETATM    1  C   UNL     1     -10.415  14.713  68.336  1.00  0.00    -0.243 C  
HETATM    2  C   UNL     1     -11.901  14.736  68.538  1.00  0.00    -0.340 C  
HETATM    3  C   UNL     1     -11.331  14.286  67.210  1.00  0.00    -0.350 C  
ENDROOT
BRANCH   3   4
HETATM    4  C   UNL     1     -11.333  12.840  66.768  1.00  0.00    -0.313 C  
BRANCH   4   5
HETATM    5  N   UNL     1     -12.140  12.062  67.683  1.00  0.00    -0.509 NA 
HETATM    6  H   UNL     1     -13.132  12.274  67.779  1.00  0.00     0.000 HD 
BRANCH   5   7
HETATM    7  C   UNL     1     -11.603  11.057  68.413  1.00  0.00    -0.302 A  
HETATM    8  N   UNL     1     -10.866  10.078  68.015  1.00  0.00    -0.260 NA 
HETATM    9  C   UNL     1     -10.561   9.330  69.233  1.00  0.00    -0.222 A  
HETATM   10  C   UNL     1     -11.152  10.139  70.364  1.00  0.00    -0.324 A  
HETATM   11  O   UNL     1     -11.890  11.171  69.731  1.00  0.00    -0.287 OA 
ENDBRANCH   5   7
ENDBRANCH   4   5
BRANCH   4  12
HETATM   12  C   UNL     1     -11.926  12.706  65.383  1.00  0.00    -0.496 C  
HETATM   13  C   UNL     1     -11.062  12.929  64.162  1.00  0.00    -0.438 C  
HETATM   14  C   UNL     1     -12.135  13.919  64.507  1.00  0.00    -0.473 C  
ENDBRANCH   4  12
ENDBRANCH   3   4
TORSDOF 4
ENDMDL
MODEL       63
REMARK 921   NORMALIZED FREE ENERGY PREDICTED BY IDOCK:   -3.65 KCAL/MOL
REMARK 922        TOTAL FREE ENERGY PREDICTED BY IDOCK:   -4.95 KCAL/MOL
REMARK 923 INTER-LIGAND FREE ENERGY PREDICTED BY IDOCK:   -4.61 KCAL/MOL
REMARK 924 INTRA-LIGAND FREE ENERGY PREDICTED BY IDOCK:   -0.34 KCAL/MOL
REMARK 927      BINDING AFFINITY PREDICTED BY RF-SCORE:    0.00 PKD
ROOT
HETATM    1  C   UNL     1      -6.472  19.148  65.222  1.00  0.00    -0.305 C  
HETATM    2  C   UNL     1      -6.163  17.891  65.978  1.00  0.00    -0.281 C  
HETATM    3  C   UNL     1      -7.217  18.843  66.503  1.00  0.00    -0.247 C  
ENDROOT
BRANCH   3   4
HETATM    4  C   UNL     1      -8.696  18.537  66.441  1.00  0.00    -0.260 C  
BRANCH   4   5
HETATM    5  N   UNL     1      -8.949  17.263  67.079  1.00  0.00    -0.226 NA 
HETATM    6  H   UNL     1      -8.705  17.140  68.062  1.00  0.00     0.000 HD 
BRANCH   5   7
HETATM    7  C   UNL     1      -9.503  16.233  66.399  1.00  0.00    -0.294 A  
HETATM    8  N   UNL     1      -9.392  14.969  66.622  1.00  0.00    -0.249 NA 
HETATM    9  C   UNL     1     -10.221  14.341  65.595  1.00  0.00    -0.347 A  
HETATM   10  C   UNL     1     -10.891  15.481  64.864  1.00  0.00    -0.427 A  
HETATM   11  O   UNL     1     -10.288  16.655  65.380  1.00  0.00    -0.584 OA 
ENDBRANCH   5   7
ENDBRANCH   4   5
BRANCH   4  12
HETATM   12  C   UNL     1      -9.492  19.597  67.169  1.00  0.00    -0.443 C  
HETATM   13  C   UNL     1      -9.933  19.370  68.597  1.00  0.00    -0.527 C  
HETATM   14  C   UNL     1     -10.952  19.385  67.497  1.00  0.00    -0.416 C  
ENDBRANCH   4  12
ENDBRANCH   3   4
TORSDOF 4
ENDMDL
MODEL       64
REMARK 921   NORMALIZED FREE ENERGY PREDICTED BY IDOCK:   -3.64 KCAL/MOL
REMARK 922        TOTAL FREE ENERGY PREDICTED BY IDOCK:   -4.94 KCAL/MOL
REMARK 923 INTER-LIGAND FREE ENERGY PREDICTED BY IDOCK:   -4.55 KCAL/MOL
REMARK 924 INTRA-LIGAND FREE ENERGY PREDICTED BY IDOCK:   -0.38 KCAL/MOL
REMARK 927      BINDING AFFINITY PREDICTED BY RF-SCORE:    0.00 PKD
ROOT
HETATM    1  C   UNL     1      -8.437  14.641  67.225  1.00  0.00    -0.234 C  
HETATM    2  C   UNL     1      -9.696  14.118  66.600  1.00  0.00    -0.297 C  
HETATM    3  C   UNL     1      -9.714  14.599  68.035  1.00  0.00    -0.216 C  
ENDROOT
BRANCH   3   4
HETATM    4  C   UNL     1     -10.367  15.897  68.452  1.00  0.00    -0.240 C  
BRANCH   4   5
HETATM    5  N   UNL     1     -10.869  16.579  67.279  1.00  0.00    -0.234 NA 
HETATM    6  H   UNL     1     -11.488  16.082  66.639  1.00  0.00     0.000 HD 
BRANCH   5   7
HETATM    7  C   UNL     1     -10.532  17.863  67.014  1.00  0.00    -0.340 A  
HETATM    8  N   UNL     1     -10.432  18.449  65.871  1.00  0.00    -0.591 NA 
HETATM    9  C   UNL     1     -10.068  19.826  66.195  1.00  0.00    -0.499 A  
HETATM   10  C   UNL     1     -10.111  19.912  67.703  1.00  0.00    -0.427 A  
HETATM   11  O   UNL     1     -10.314  18.579  68.141  1.00  0.00    -0.362 OA 
ENDBRANCH   5   7
ENDBRANCH   4   5
BRANCH   4  12
HETATM   12  C   UNL     1     -11.531  15.636  69.382  1.00  0.00    -0.354 C  
HETATM   13  C   UNL     1     -11.285  15.373  70.851  1.00  0.00    -0.397 C  
HETATM   14  C   UNL     1     -11.765  14.261  69.965  1.00  0.00    -0.364 C  
ENDBRANCH   4  12
ENDBRANCH   3   4
TORSDOF 4
ENDMDL
MODEL       65
REMARK 921   NORMALIZED FREE ENERGY PREDICTED BY IDOCK:   -3.61 KCAL/MOL
REMARK 922        TOTAL FREE ENERGY PREDICTED BY IDOCK:   -4.90 KCAL/MOL
REMARK 923 INTER-LIGAND FREE ENERGY PREDICTED BY IDOCK:   -4.53 KCAL/MOL
REMARK 924 INTRA-LIGAND FREE ENERGY PREDICTED BY IDOCK:   -0.36 KCAL/MOL
REMARK 927      BINDING AFFINITY PREDICTED BY RF-SCORE:    0.00 PKD
ROOT
HETATM    1  C   UNL     1     -10.361   5.427  69.372  1.00  0.00    -0.339 C  
HETATM    2  C   UNL     1     -11.004   6.455  68.489  1.00  0.00    -0.396 C  
HETATM    3  C   UNL     1     -11.386   6.378  69.952  1.00  0.00    -0.500 C  
ENDROOT
BRANCH   3   4
HETATM    4  C   UNL     1     -10.944   7.409  70.966  1.00  0.00    -0.251 C  
BRANCH   4   5
HETATM    5  N   UNL     1     -12.099   8.142  71.437  1.00  0.00    -0.293 NA 
HETATM    6  H   UNL     1     -12.844   7.643  71.923  1.00  0.00     0.000 HD 
BRANCH   5   7
HETATM    7  C   UNL     1     -12.210   9.477  71.245  1.00  0.00    -0.348 A  
HETATM    8  N   UNL     1     -11.756  10.191  70.273  1.00  0.00    -0.277 NA 
HETATM    9  C   UNL     1     -12.198  11.550  70.579  1.00  0.00    -0.377 A  
HETATM   10  C   UNL     1     -13.067  11.426  71.809  1.00  0.00    -0.418 A  
HETATM   11  O   UNL     1     -12.928  10.077  72.223  1.00  0.00    -0.389 OA 
ENDBRANCH   5   7
ENDBRANCH   4   5
BRANCH   4  12
HETATM   12  C   UNL     1     -10.290   6.742  72.156  1.00  0.00    -0.221 C  
HETATM   13  C   UNL     1     -11.088   5.809  73.038  1.00  0.00    -0.305 C  
HETATM   14  C   UNL     1     -10.652   7.143  73.567  1.00  0.00    -0.416 C  
ENDBRANCH   4  12
ENDBRANCH   3   4
TORSDOF 4
ENDMDL
MODEL       66
REMARK 921   NORMALIZED FREE ENERGY PREDICTED BY IDOCK:   -3.61 KCAL/MOL
REMARK 922        TOTAL FREE ENERGY PREDICTED BY IDOCK:   -4.89 KCAL/MOL
REMARK 923 INTER-LIGAND FREE ENERGY PREDICTED BY IDOCK:   -4.68 KCAL/MOL
REMARK 924 INTRA-LIGAND FREE ENERGY PREDICTED BY IDOCK:   -0.21 KCAL/MOL
REMARK 927      BINDING AFFINITY PREDICTED BY RF-SCORE:    0.00 PKD
ROOT
HETATM    1  C   UNL     1     -12.239  14.919  69.957  1.00  0.00    -0.381 C  
HETATM    2  C   UNL     1     -11.856  16.030  69.025  1.00  0.00    -0.258 C  
HETATM    3  C   UNL     1     -11.055  14.745  69.031  1.00  0.00    -0.268 C  
ENDROOT
BRANCH   3   4
HETATM    4  C   UNL     1     -11.134  13.729  67.914  1.00  0.00    -0.264 C  
BRANCH   4   5
HETATM    5  N   UNL     1     -12.278  14.024  67.079  1.00  0.00    -0.520 NA 
HETATM    6  H   UNL     1     -13.085  14.496  67.485  1.00  0.00     0.000 HD 
BRANCH   5   7
HETATM    7  C   UNL     1     -12.297  13.686  65.769  1.00  0.00    -0.482 A  
HETATM    8  N   UNL     1     -12.170  14.450  64.738  1.00  0.00    -0.441 NA 
HETATM    9  C   UNL     1     -12.244  13.541  63.597  1.00  0.00    -0.375 A  
HETATM   10  C   UNL     1     -12.307  12.152  64.189  1.00  0.00    -0.409 A  
HETATM   11  O   UNL     1     -12.443  12.353  65.585  1.00  0.00    -0.640 OA 
ENDBRANCH   5   7
ENDBRANCH   4   5
BRANCH   4  12
HETATM   12  C   UNL     1      -9.892  13.784  67.053  1.00  0.00    -0.251 C  
HETATM   13  C   UNL     1      -9.020  12.558  66.898  1.00  0.00    -0.212 C  
HETATM   14  C   UNL     1      -8.514  13.739  67.672  1.00  0.00    -0.183 C  
ENDBRANCH   4  12
ENDBRANCH   3   4
TORSDOF 4
ENDMDL
MODEL       67
REMARK 921   NORMALIZED FREE ENERGY PREDICTED BY IDOCK:   -3.61 KCAL/MOL
REMARK 922        TOTAL FREE ENERGY PREDICTED BY IDOCK:   -4.89 KCAL/MOL
REMARK 923 INTER-LIGAND FREE ENERGY PREDICTED BY IDOCK:   -4.49 KCAL/MOL
REMARK 924 INTRA-LIGAND FREE ENERGY PREDICTED BY IDOCK:   -0.40 KCAL/MOL
REMARK 927      BINDING AFFINITY PREDICTED BY RF-SCORE:    0.00 PKD
ROOT
HETATM    1  C   UNL     1      -7.194  17.584  68.635  1.00  0.00    -0.246 C  
HETATM    2  C   UNL     1      -7.266  16.495  67.606  1.00  0.00    -0.158 C  
HETATM    3  C   UNL     1      -8.405  16.678  68.587  1.00  0.00    -0.246 C  
ENDROOT
BRANCH   3   4
HETATM    4  C   UNL     1      -9.743  17.255  68.184  1.00  0.00    -0.284 C  
BRANCH   4   5
HETATM    5  N   UNL     1     -10.606  17.318  69.344  1.00  0.00    -0.359 NA 
HETATM    6  H   UNL     1     -10.824  18.225  69.756  1.00  0.00     0.000 HD 
BRANCH   5   7
HETATM    7  C   UNL     1     -11.129  16.197  69.893  1.00  0.00    -0.357 A  
HETATM    8  N   UNL     1     -11.318  15.923  71.138  1.00  0.00    -0.391 NA 
HETATM    9  C   UNL     1     -11.931  14.597  71.132  1.00  0.00    -0.346 A  
HETATM   10  C   UNL     1     -12.152  14.259  69.676  1.00  0.00    -0.346 A  
HETATM   11  O   UNL     1     -11.510  15.297  68.956  1.00  0.00    -0.285 OA 
ENDBRANCH   5   7
ENDBRANCH   4   5
BRANCH   4  12
HETATM   12  C   UNL     1      -9.578  18.657  67.640  1.00  0.00    -0.325 C  
HETATM   13  C   UNL     1     -10.237  19.825  68.339  1.00  0.00    -0.568 C  
HETATM   14  C   UNL     1     -10.738  19.381  66.997  1.00  0.00    -0.582 C  
ENDBRANCH   4  12
ENDBRANCH   3   4
TORSDOF 4
ENDMDL
MODEL       68
REMARK 921   NORMALIZED FREE ENERGY PREDICTED BY IDOCK:   -3.60 KCAL/MOL
REMARK 922        TOTAL FREE ENERGY PREDICTED BY IDOCK:   -4.88 KCAL/MOL
REMARK 923 INTER-LIGAND FREE ENERGY PREDICTED BY IDOCK:   -4.67 KCAL/MOL
REMARK 924 INTRA-LIGAND FREE ENERGY PREDICTED BY IDOCK:   -0.22 KCAL/MOL
REMARK 927      BINDING AFFINITY PREDICTED BY RF-SCORE:    0.00 PKD
ROOT
HETATM    1  C   UNL     1     -10.265   9.962  66.043  1.00  0.00    -0.269 C  
HETATM    2  C   UNL     1     -10.611  10.416  67.430  1.00  0.00    -0.321 C  
HETATM    3  C   UNL     1     -10.348  11.442  66.347  1.00  0.00    -0.284 C  
ENDROOT
BRANCH   3   4
HETATM    4  C   UNL     1     -11.450  12.263  65.717  1.00  0.00    -0.367 C  
BRANCH   4   5
HETATM    5  N   UNL     1     -11.257  13.658  66.049  1.00  0.00    -0.294 NA 
HETATM    6  H   UNL     1     -10.886  14.293  65.343  1.00  0.00     0.000 HD 
BRANCH   5   7
HETATM    7  C   UNL     1     -11.559  14.136  67.279  1.00  0.00    -0.373 A  
HETATM    8  N   UNL     1     -12.093  13.517  68.274  1.00  0.00    -0.328 NA 
HETATM    9  C   UNL     1     -12.155  14.516  69.338  1.00  0.00    -0.290 A  
HETATM   10  C   UNL     1     -11.452  15.736  68.788  1.00  0.00    -0.388 A  
HETATM   11  O   UNL     1     -11.199  15.432  67.427  1.00  0.00    -0.328 OA 
ENDBRANCH   5   7
ENDBRANCH   4   5
BRANCH   4  12
HETATM   12  C   UNL     1     -11.423  12.127  64.211  1.00  0.00    -0.437 C  
HETATM   13  C   UNL     1     -11.974  13.233  63.338  1.00  0.00    -0.491 C  
HETATM   14  C   UNL     1     -12.698  11.922  63.426  1.00  0.00    -0.496 C  
ENDBRANCH   4  12
ENDBRANCH   3   4
TORSDOF 4
ENDMDL
MODEL       69
REMARK 921   NORMALIZED FREE ENERGY PREDICTED BY IDOCK:   -3.60 KCAL/MOL
REMARK 922        TOTAL FREE ENERGY PREDICTED BY IDOCK:   -4.88 KCAL/MOL
REMARK 923 INTER-LIGAND FREE ENERGY PREDICTED BY IDOCK:   -4.50 KCAL/MOL
REMARK 924 INTRA-LIGAND FREE ENERGY PREDICTED BY IDOCK:   -0.38 KCAL/MOL
REMARK 927      BINDING AFFINITY PREDICTED BY RF-SCORE:    0.00 PKD
ROOT
HETATM    1  C   UNL     1     -11.300  14.882  67.697  1.00  0.00    -0.348 C  
HETATM    2  C   UNL     1     -11.593  13.780  68.671  1.00  0.00    -0.369 C  
HETATM    3  C   UNL     1     -12.143  13.702  67.263  1.00  0.00    -0.385 C  
ENDROOT
BRANCH   3   4
HETATM    4  C   UNL     1     -11.597  12.748  66.225  1.00  0.00    -0.379 C  
BRANCH   4   5
HETATM    5  N   UNL     1     -11.548  11.413  66.781  1.00  0.00    -0.444 NA 
HETATM    6  H   UNL     1     -12.402  10.993  67.147  1.00  0.00     0.000 HD 
BRANCH   5   7
HETATM    7  C   UNL     1     -10.392  10.712  66.824  1.00  0.00    -0.245 A  
HETATM    8  N   UNL     1      -9.433  10.794  67.681  1.00  0.00    -0.153 NA 
HETATM    9  C   UNL     1      -8.467   9.787  67.247  1.00  0.00    -0.125 A  
HETATM   10  C   UNL     1      -9.123   9.068  66.091  1.00  0.00    -0.199 A  
HETATM   11  O   UNL     1     -10.307   9.801  65.827  1.00  0.00    -0.209 OA 
ENDBRANCH   5   7
ENDBRANCH   4   5
BRANCH   4  12
HETATM   12  C   UNL     1     -12.489  12.720  65.003  1.00  0.00    -0.572 C  
HETATM   13  C   UNL     1     -12.022  12.038  63.737  1.00  0.00    -0.588 C  
HETATM   14  C   UNL     1     -12.150  13.532  63.775  1.00  0.00    -0.482 C  
ENDBRANCH   4  12
ENDBRANCH   3   4
TORSDOF 4
ENDMDL
MODEL       70
REMARK 921   NORMALIZED FREE ENERGY PREDICTED BY IDOCK:   -3.58 KCAL/MOL
REMARK 922        TOTAL FREE ENERGY PREDICTED BY IDOCK:   -4.86 KCAL/MOL
REMARK 923 INTER-LIGAND FREE ENERGY PREDICTED BY IDOCK:   -4.38 KCAL/MOL
REMARK 924 INTRA-LIGAND FREE ENERGY PREDICTED BY IDOCK:   -0.48 KCAL/MOL
REMARK 927      BINDING AFFINITY PREDICTED BY RF-SCORE:    0.00 PKD
ROOT
HETATM    1  C   UNL     1      -9.679   9.994  67.697  1.00  0.00    -0.185 C  
HETATM    2  C   UNL     1     -10.028  10.851  66.517  1.00  0.00    -0.255 C  
HETATM    3  C   UNL     1     -11.108  10.451  67.499  1.00  0.00    -0.336 C  
ENDROOT
BRANCH   3   4
HETATM    4  C   UNL     1     -11.715  11.424  68.485  1.00  0.00    -0.318 C  
BRANCH   4   5
HETATM    5  N   UNL     1     -11.136  11.205  69.793  1.00  0.00    -0.409 NA 
HETATM    6  H   UNL     1     -10.230  11.617  70.014  1.00  0.00     0.000 HD 
BRANCH   5   7
HETATM    7  C   UNL     1     -11.773  10.463  70.727  1.00  0.00    -0.368 A  
HETATM    8  N   UNL     1     -13.007  10.518  71.095  1.00  0.00    -0.397 NA 
HETATM    9  C   UNL     1     -13.135   9.473  72.109  1.00  0.00    -0.436 A  
HETATM   10  C   UNL     1     -11.798   8.768  72.134  1.00  0.00    -0.366 A  
HETATM   11  O   UNL     1     -10.959   9.541  71.292  1.00  0.00    -0.337 OA 
ENDBRANCH   5   7
ENDBRANCH   4   5
BRANCH   4  12
HETATM   12  C   UNL     1     -11.427  12.851  68.073  1.00  0.00    -0.361 C  
HETATM   13  C   UNL     1     -10.553  13.730  68.939  1.00  0.00    -0.224 C  
HETATM   14  C   UNL     1     -12.022  14.014  68.833  1.00  0.00    -0.387 C  
ENDBRANCH   4  12
ENDBRANCH   3   4
TORSDOF 4
ENDMDL
MODEL       71
REMARK 921   NORMALIZED FREE ENERGY PREDICTED BY IDOCK:   -3.55 KCAL/MOL
REMARK 922        TOTAL FREE ENERGY PREDICTED BY IDOCK:   -4.82 KCAL/MOL
REMARK 923 INTER-LIGAND FREE ENERGY PREDICTED BY IDOCK:   -4.38 KCAL/MOL
REMARK 924 INTRA-LIGAND FREE ENERGY PREDICTED BY IDOCK:   -0.45 KCAL/MOL
REMARK 927      BINDING AFFINITY PREDICTED BY RF-SCORE:    0.00 PKD
ROOT
HETATM    1  C   UNL     1     -10.703  15.564  65.612  1.00  0.00    -0.378 C  
HETATM    2  C   UNL     1      -9.226  15.703  65.831  1.00  0.00    -0.330 C  
HETATM    3  C   UNL     1     -10.134  16.891  66.064  1.00  0.00    -0.336 C  
ENDROOT
BRANCH   3   4
HETATM    4  C   UNL     1     -10.468  17.405  67.446  1.00  0.00    -0.336 C  
BRANCH   4   5
HETATM    5  N   UNL     1      -9.930  16.498  68.437  1.00  0.00    -0.240 NA 
HETATM    6  H   UNL     1      -8.927  16.315  68.454  1.00  0.00     0.000 HD 
BRANCH   5   7
HETATM    7  C   UNL     1     -10.731  15.889  69.340  1.00  0.00    -0.272 A  
HETATM    8  N   UNL     1     -11.207  16.360  70.441  1.00  0.00    -0.335 NA 
HETATM    9  C   UNL     1     -12.019  15.274  70.985  1.00  0.00    -0.343 A  
HETATM   10  C   UNL     1     -12.000  14.189  69.933  1.00  0.00    -0.338 A  
HETATM   11  O   UNL     1     -11.063  14.631  68.966  1.00  0.00    -0.237 OA 
ENDBRANCH   5   7
ENDBRANCH   4   5
BRANCH   4  12
HETATM   12  C   UNL     1      -9.856  18.770  67.671  1.00  0.00    -0.365 C  
HETATM   13  C   UNL     1      -8.547  18.902  68.416  1.00  0.00    -0.381 C  
HETATM   14  C   UNL     1      -9.817  19.385  69.050  1.00  0.00    -0.487 C  
ENDBRANCH   4  12
ENDBRANCH   3   4
TORSDOF 4
ENDMDL
MODEL       72
REMARK 921   NORMALIZED FREE ENERGY PREDICTED BY IDOCK:   -3.54 KCAL/MOL
REMARK 922        TOTAL FREE ENERGY PREDICTED BY IDOCK:   -4.81 KCAL/MOL
REMARK 923 INTER-LIGAND FREE ENERGY PREDICTED BY IDOCK:   -4.51 KCAL/MOL
REMARK 924 INTRA-LIGAND FREE ENERGY PREDICTED BY IDOCK:   -0.30 KCAL/MOL
REMARK 927      BINDING AFFINITY PREDICTED BY RF-SCORE:    0.00 PKD
ROOT
HETATM    1  C   UNL     1     -12.822  10.771  71.699  1.00  0.00    -0.562 C  
HETATM    2  C   UNL     1     -12.013  10.595  70.449  1.00  0.00    -0.436 C  
HETATM    3  C   UNL     1     -12.857  11.839  70.627  1.00  0.00    -0.093 C  
ENDROOT
BRANCH   3   4
HETATM    4  C   UNL     1     -12.259  13.197  70.918  1.00  0.00    -0.241 C  
BRANCH   4   5
HETATM    5  N   UNL     1     -12.211  13.971  69.697  1.00  0.00    -0.346 NA 
HETATM    6  H   UNL     1     -12.701  14.864  69.653  1.00  0.00     0.000 HD 
BRANCH   5   7
HETATM    7  C   UNL     1     -11.530  13.533  68.614  1.00  0.00    -0.308 A  
HETATM    8  N   UNL     1     -10.258  13.394  68.465  1.00  0.00    -0.238 NA 
HETATM    9  C   UNL     1     -10.102  12.864  67.112  1.00  0.00    -0.243 A  
HETATM   10  C   UNL     1     -11.506  12.626  66.607  1.00  0.00    -0.351 A  
HETATM   11  O   UNL     1     -12.353  13.183  67.597  1.00  0.00    -0.183 OA 
ENDBRANCH   5   7
ENDBRANCH   4   5
BRANCH   4  12
HETATM   12  C   UNL     1     -13.105  13.948  71.923  1.00  0.00    -0.469 C  
HETATM   13  C   UNL     1     -14.409  14.582  71.494  1.00  0.00    -0.501 C  
HETATM   14  C   UNL     1     -13.240  15.452  71.853  1.00  0.00    -0.534 C  
ENDBRANCH   4  12
ENDBRANCH   3   4
TORSDOF 4
ENDMDL
MODEL       73
REMARK 921   NORMALIZED FREE ENERGY PREDICTED BY IDOCK:   -3.53 KCAL/MOL
REMARK 922        TOTAL FREE ENERGY PREDICTED BY IDOCK:   -4.80 KCAL/MOL
REMARK 923 INTER-LIGAND FREE ENERGY PREDICTED BY IDOCK:   -4.43 KCAL/MOL
REMARK 924 INTRA-LIGAND FREE ENERGY PREDICTED BY IDOCK:   -0.36 KCAL/MOL
REMARK 927      BINDING AFFINITY PREDICTED BY RF-SCORE:    0.00 PKD
ROOT
HETATM    1  C   UNL     1     -10.876   5.931  70.981  1.00  0.00    -0.339 C  
HETATM    2  C   UNL     1     -11.295   6.268  69.581  1.00  0.00    -0.492 C  
HETATM    3  C   UNL     1     -11.860   7.055  70.744  1.00  0.00    -0.401 C  
ENDROOT
BRANCH   3   4
HETATM    4  C   UNL     1     -11.442   8.477  71.046  1.00  0.00    -0.273 C  
BRANCH   4   5
HETATM    5  N   UNL     1     -11.688   9.305  69.886  1.00  0.00    -0.443 NA 
HETATM    6  H   UNL     1     -12.648   9.545  69.638  1.00  0.00     0.000 HD 
BRANCH   5   7
HETATM    7  C   UNL     1     -10.670   9.768  69.124  1.00  0.00    -0.221 A  
HETATM    8  N   UNL     1     -10.670  10.050  67.867  1.00  0.00    -0.255 NA 
HETATM    9  C   UNL     1      -9.316  10.529  67.599  1.00  0.00    -0.149 A  
HETATM   10  C   UNL     1      -8.628  10.574  68.944  1.00  0.00    -0.153 A  
HETATM   11  O   UNL     1      -9.541   9.968  69.843  1.00  0.00    -0.226 OA 
ENDBRANCH   5   7
ENDBRANCH   4   5
BRANCH   4  12
HETATM   12  C   UNL     1     -12.241   9.034  72.204  1.00  0.00    -0.427 C  
HETATM   13  C   UNL     1     -13.748   8.907  72.218  1.00  0.00    -0.527 C  
HETATM   14  C   UNL     1     -13.115  10.254  72.028  1.00  0.00    -0.529 C  
ENDBRANCH   4  12
ENDBRANCH   3   4
TORSDOF 4
ENDMDL
MODEL       74
REMARK 921   NORMALIZED FREE ENERGY PREDICTED BY IDOCK:   -3.53 KCAL/MOL
REMARK 922        TOTAL FREE ENERGY PREDICTED BY IDOCK:   -4.80 KCAL/MOL
REMARK 923 INTER-LIGAND FREE ENERGY PREDICTED BY IDOCK:   -4.52 KCAL/MOL
REMARK 924 INTRA-LIGAND FREE ENERGY PREDICTED BY IDOCK:   -0.28 KCAL/MOL
REMARK 927      BINDING AFFINITY PREDICTED BY RF-SCORE:    0.00 PKD
ROOT
HETATM    1  C   UNL     1     -14.163   7.634  71.556  1.00  0.00    -0.564 C  
HETATM    2  C   UNL     1     -13.970   8.775  72.511  1.00  0.00    -0.430 C  
HETATM    3  C   UNL     1     -12.781   8.214  71.761  1.00  0.00    -0.356 C  
ENDROOT
BRANCH   3   4
HETATM    4  C   UNL     1     -12.114   8.951  70.621  1.00  0.00    -0.014 C  
BRANCH   4   5
HETATM    5  N   UNL     1     -12.900  10.116  70.279  1.00  0.00    -0.572 NA 
HETATM    6  H   UNL     1     -13.865  10.180  70.602  1.00  0.00     0.000 HD 
BRANCH   5   7
HETATM    7  C   UNL     1     -12.381  11.122  69.537  1.00  0.00    -0.194 A  
HETATM    8  N   UNL     1     -11.995  12.289  69.922  1.00  0.00    -0.327 NA 
HETATM    9  C   UNL     1     -11.503  12.933  68.706  1.00  0.00    -0.303 A  
HETATM   10  C   UNL     1     -11.574  11.873  67.630  1.00  0.00    -0.312 A  
HETATM   11  O   UNL     1     -12.248  10.782  68.234  1.00  0.00    -0.449 OA 
ENDBRANCH   5   7
ENDBRANCH   4   5
BRANCH   4  12
HETATM   12  C   UNL     1     -10.731   9.415  71.021  1.00  0.00    -0.407 C  
HETATM   13  C   UNL     1      -9.519   8.581  70.670  1.00  0.00    -0.203 C  
HETATM   14  C   UNL     1      -9.953   8.698  72.101  1.00  0.00    -0.386 C  
ENDBRANCH   4  12
ENDBRANCH   3   4
TORSDOF 4
ENDMDL
MODEL       75
REMARK 921   NORMALIZED FREE ENERGY PREDICTED BY IDOCK:   -3.49 KCAL/MOL
REMARK 922        TOTAL FREE ENERGY PREDICTED BY IDOCK:   -4.74 KCAL/MOL
REMARK 923 INTER-LIGAND FREE ENERGY PREDICTED BY IDOCK:   -4.54 KCAL/MOL
REMARK 924 INTRA-LIGAND FREE ENERGY PREDICTED BY IDOCK:   -0.20 KCAL/MOL
REMARK 927      BINDING AFFINITY PREDICTED BY RF-SCORE:    0.00 PKD
ROOT
HETATM    1  C   UNL     1      -9.027  16.231  67.528  1.00  0.00    -0.193 C  
HETATM    2  C   UNL     1      -8.555  16.100  66.110  1.00  0.00    -0.331 C  
HETATM    3  C   UNL     1      -9.123  14.894  66.826  1.00  0.00    -0.295 C  
ENDROOT
BRANCH   3   4
HETATM    4  C   UNL     1     -10.487  14.323  66.509  1.00  0.00    -0.287 C  
BRANCH   4   5
HETATM    5  N   UNL     1     -11.498  15.074  67.221  1.00  0.00    -0.333 NA 
HETATM    6  H   UNL     1     -11.950  15.864  66.761  1.00  0.00     0.000 HD 
BRANCH   5   7
HETATM    7  C   UNL     1     -11.854  14.750  68.485  1.00  0.00    -0.306 A  
HETATM    8  N   UNL     1     -11.917  13.584  69.030  1.00  0.00    -0.341 NA 
HETATM    9  C   UNL     1     -12.330  13.844  70.407  1.00  0.00    -0.363 A  
HETATM   10  C   UNL     1     -12.356  15.349  70.545  1.00  0.00    -0.408 A  
HETATM   11  O   UNL     1     -12.140  15.841  69.233  1.00  0.00    -0.350 OA 
ENDBRANCH   5   7
ENDBRANCH   4   5
BRANCH   4  12
HETATM   12  C   UNL     1     -10.777  14.426  65.028  1.00  0.00    -0.440 C  
HETATM   13  C   UNL     1     -12.121  13.996  64.485  1.00  0.00    -0.484 C  
HETATM   14  C   UNL     1     -10.898  13.186  64.172  1.00  0.00    -0.407 C  
ENDBRANCH   4  12
ENDBRANCH   3   4
TORSDOF 4
ENDMDL
MODEL       76
REMARK 921   NORMALIZED FREE ENERGY PREDICTED BY IDOCK:   -3.48 KCAL/MOL
REMARK 922        TOTAL FREE ENERGY PREDICTED BY IDOCK:   -4.73 KCAL/MOL
REMARK 923 INTER-LIGAND FREE ENERGY PREDICTED BY IDOCK:   -4.34 KCAL/MOL
REMARK 924 INTRA-LIGAND FREE ENERGY PREDICTED BY IDOCK:   -0.39 KCAL/MOL
REMARK 927      BINDING AFFINITY PREDICTED BY RF-SCORE:    0.00 PKD
ROOT
HETATM    1  C   UNL     1     -10.153   9.825  70.260  1.00  0.00    -0.323 C  
HETATM    2  C   UNL     1     -11.648   9.911  70.333  1.00  0.00    -0.356 C  
HETATM    3  C   UNL     1     -10.899  10.728  69.303  1.00  0.00    -0.287 C  
ENDROOT
BRANCH   3   4
HETATM    4  C   UNL     1     -10.911  10.392  67.828  1.00  0.00    -0.309 C  
BRANCH   4   5
HETATM    5  N   UNL     1     -10.455  11.537  67.072  1.00  0.00    -0.219 NA 
HETATM    6  H   UNL     1      -9.552  11.955  67.293  1.00  0.00     0.000 HD 
BRANCH   5   7
HETATM    7  C   UNL     1     -11.205  12.066  66.077  1.00  0.00    -0.335 A  
HETATM    8  N   UNL     1     -11.281  11.699  64.844  1.00  0.00    -0.262 NA 
HETATM    9  C   UNL     1     -12.259  12.607  64.251  1.00  0.00    -0.445 A  
HETATM   10  C   UNL     1     -12.785  13.441  65.396  1.00  0.00    -0.426 A  
HETATM   11  O   UNL     1     -11.974  13.094  66.505  1.00  0.00    -0.390 OA 
ENDBRANCH   5   7
ENDBRANCH   4   5
BRANCH   4  12
HETATM   12  C   UNL     1      -9.984   9.233  67.538  1.00  0.00    -0.254 C  
HETATM   13  C   UNL     1      -9.745   8.790  66.111  1.00  0.00    -0.320 C  
HETATM   14  C   UNL     1     -10.524   7.910  67.044  1.00  0.00    -0.419 C  
ENDBRANCH   4  12
ENDBRANCH   3   4
TORSDOF 4
ENDMDL
MODEL       77
REMARK 921   NORMALIZED FREE ENERGY PREDICTED BY IDOCK:   -3.46 KCAL/MOL
REMARK 922        TOTAL FREE ENERGY PREDICTED BY IDOCK:   -4.72 KCAL/MOL
REMARK 923 INTER-LIGAND FREE ENERGY PREDICTED BY IDOCK:   -4.31 KCAL/MOL
REMARK 924 INTRA-LIGAND FREE ENERGY PREDICTED BY IDOCK:   -0.40 KCAL/MOL
REMARK 927      BINDING AFFINITY PREDICTED BY RF-SCORE:    0.00 PKD
ROOT
HETATM    1  C   UNL     1     -13.218   9.428  71.880  1.00  0.00    -0.507 C  
HETATM    2  C   UNL     1     -13.154  10.921  71.753  1.00  0.00    -0.564 C  
HETATM    3  C   UNL     1     -11.898  10.097  71.570  1.00  0.00    -0.356 C  
ENDROOT
BRANCH   3   4
HETATM    4  C   UNL     1     -11.258   9.875  70.217  1.00  0.00    -0.301 C  
BRANCH   4   5
HETATM    5  N   UNL     1     -11.509   8.517  69.786  1.00  0.00    -0.432 NA 
HETATM    6  H   UNL     1     -12.386   8.297  69.314  1.00  0.00     0.000 HD 
BRANCH   5   7
HETATM    7  C   UNL     1     -10.604   7.534  69.996  1.00  0.00    -0.237 A  
HETATM    8  N   UNL     1      -9.319   7.621  70.048  1.00  0.00    -0.154 NA 
HETATM    9  C   UNL     1      -8.871   6.258  70.326  1.00  0.00    -0.153 A  
HETATM   10  C   UNL     1     -10.132   5.453  70.539  1.00  0.00    -0.236 A  
HETATM   11  O   UNL     1     -11.191   6.332  70.202  1.00  0.00    -0.343 OA 
ENDBRANCH   5   7
ENDBRANCH   4   5
BRANCH   4  12
HETATM   12  C   UNL     1     -11.846  10.815  69.188  1.00  0.00    -0.347 C  
HETATM   13  C   UNL     1     -11.218  10.929  67.817  1.00  0.00    -0.384 C  
HETATM   14  C   UNL     1     -11.117  12.075  68.781  1.00  0.00    -0.298 C  
ENDBRANCH   4  12
ENDBRANCH   3   4
TORSDOF 4
ENDMDL
MODEL       78
REMARK 921   NORMALIZED FREE ENERGY PREDICTED BY IDOCK:   -3.46 KCAL/MOL
REMARK 922        TOTAL FREE ENERGY PREDICTED BY IDOCK:   -4.71 KCAL/MOL
REMARK 923 INTER-LIGAND FREE ENERGY PREDICTED BY IDOCK:   -4.32 KCAL/MOL
REMARK 924 INTRA-LIGAND FREE ENERGY PREDICTED BY IDOCK:   -0.40 KCAL/MOL
REMARK 927      BINDING AFFINITY PREDICTED BY RF-SCORE:    0.00 PKD
ROOT
HETATM    1  C   UNL     1     -10.450   9.360  69.433  1.00  0.00    -0.231 C  
HETATM    2  C   UNL     1      -9.254   9.453  70.333  1.00  0.00    -0.305 C  
HETATM    3  C   UNL     1     -10.644   9.606  70.913  1.00  0.00    -0.386 C  
ENDROOT
BRANCH   3   4
HETATM    4  C   UNL     1     -11.296   8.537  71.760  1.00  0.00    -0.307 C  
BRANCH   4   5
HETATM    5  N   UNL     1     -10.428   8.208  72.870  1.00  0.00    -0.328 NA 
HETATM    6  H   UNL     1      -9.842   8.936  73.278  1.00  0.00     0.000 HD 
BRANCH   5   7
HETATM    7  C   UNL     1     -10.379   6.955  73.377  1.00  0.00    -0.308 A  
HETATM    8  N   UNL     1      -9.901   6.562  74.507  1.00  0.00    -0.318 NA 
HETATM    9  C   UNL     1     -10.143   5.121  74.527  1.00  0.00    -0.258 A  
HETATM   10  C   UNL     1     -10.940   4.827  73.277  1.00  0.00    -0.316 A  
HETATM   11  O   UNL     1     -10.949   6.045  72.552  1.00  0.00    -0.231 OA 
ENDBRANCH   5   7
ENDBRANCH   4   5
BRANCH   4  12
HETATM   12  C   UNL     1     -12.614   9.028  72.319  1.00  0.00    -0.445 C  
HETATM   13  C   UNL     1     -13.918   8.542  71.728  1.00  0.00    -0.491 C  
HETATM   14  C   UNL     1     -13.492   9.966  71.525  1.00  0.00    -0.393 C  
ENDBRANCH   4  12
ENDBRANCH   3   4
TORSDOF 4
ENDMDL
MODEL       79
REMARK 921   NORMALIZED FREE ENERGY PREDICTED BY IDOCK:   -3.44 KCAL/MOL
REMARK 922        TOTAL FREE ENERGY PREDICTED BY IDOCK:   -4.68 KCAL/MOL
REMARK 923 INTER-LIGAND FREE ENERGY PREDICTED BY IDOCK:   -4.50 KCAL/MOL
REMARK 924 INTRA-LIGAND FREE ENERGY PREDICTED BY IDOCK:   -0.18 KCAL/MOL
REMARK 927      BINDING AFFINITY PREDICTED BY RF-SCORE:    0.00 PKD
ROOT
HETATM    1  C   UNL     1      -7.690  16.359  67.665  1.00  0.00    -0.162 C  
HETATM    2  C   UNL     1      -6.814  17.037  66.654  1.00  0.00    -0.279 C  
HETATM    3  C   UNL     1      -8.222  16.629  66.275  1.00  0.00    -0.365 C  
ENDROOT
BRANCH   3   4
HETATM    4  C   UNL     1      -9.340  17.631  66.095  1.00  0.00    -0.136 C  
BRANCH   4   5
HETATM    5  N   UNL     1     -10.506  16.957  65.567  1.00  0.00    -0.600 NA 
HETATM    6  H   UNL     1     -11.224  17.502  65.089  1.00  0.00     0.000 HD 
BRANCH   5   7
HETATM    7  C   UNL     1     -10.663  15.620  65.694  1.00  0.00    -0.364 A  
HETATM    8  N   UNL     1     -10.501  14.702  64.803  1.00  0.00    -0.384 NA 
HETATM    9  C   UNL     1     -10.780  13.453  65.509  1.00  0.00    -0.294 A  
HETATM   10  C   UNL     1     -10.996  13.843  66.953  1.00  0.00    -0.295 A  
HETATM   11  O   UNL     1     -11.006  15.261  66.952  1.00  0.00    -0.320 OA 
ENDBRANCH   5   7
ENDBRANCH   4   5
BRANCH   4  12
HETATM   12  C   UNL     1      -9.715  18.258  67.420  1.00  0.00    -0.300 C  
HETATM   13  C   UNL     1     -10.729  19.378  67.471  1.00  0.00    -0.570 C  
HETATM   14  C   UNL     1      -9.286  19.666  67.762  1.00  0.00    -0.427 C  
ENDBRANCH   4  12
ENDBRANCH   3   4
TORSDOF 4
ENDMDL
MODEL       80
REMARK 921   NORMALIZED FREE ENERGY PREDICTED BY IDOCK:   -3.40 KCAL/MOL
REMARK 922        TOTAL FREE ENERGY PREDICTED BY IDOCK:   -4.64 KCAL/MOL
REMARK 923 INTER-LIGAND FREE ENERGY PREDICTED BY IDOCK:   -4.26 KCAL/MOL
REMARK 924 INTRA-LIGAND FREE ENERGY PREDICTED BY IDOCK:   -0.37 KCAL/MOL
REMARK 927      BINDING AFFINITY PREDICTED BY RF-SCORE:    0.00 PKD
ROOT
HETATM    1  C   UNL     1     -10.590  10.086  66.978  1.00  0.00    -0.279 C  
HETATM    2  C   UNL     1      -9.814  11.282  66.514  1.00  0.00    -0.239 C  
HETATM    3  C   UNL     1     -11.168  11.472  67.163  1.00  0.00    -0.365 C  
ENDROOT
BRANCH   3   4
HETATM    4  C   UNL     1     -11.333  12.022  68.561  1.00  0.00    -0.272 C  
BRANCH   4   5
HETATM    5  N   UNL     1     -12.036  13.285  68.500  1.00  0.00    -0.340 NA 
HETATM    6  H   UNL     1     -13.004  13.303  68.181  1.00  0.00     0.000 HD 
BRANCH   5   7
HETATM    7  C   UNL     1     -11.433  14.443  68.856  1.00  0.00    -0.289 A  
HETATM    8  N   UNL     1     -11.951  15.481  69.416  1.00  0.00    -0.352 NA 
HETATM    9  C   UNL     1     -10.832  16.404  69.586  1.00  0.00    -0.346 A  
HETATM   10  C   UNL     1      -9.606  15.641  69.139  1.00  0.00    -0.251 A  
HETATM   11  O   UNL     1     -10.106  14.433  68.590  1.00  0.00    -0.233 OA 
ENDBRANCH   5   7
ENDBRANCH   4   5
BRANCH   4  12
HETATM   12  C   UNL     1     -12.141  11.072  69.417  1.00  0.00    -0.389 C  
HETATM   13  C   UNL     1     -12.391  11.388  70.875  1.00  0.00    -0.483 C  
HETATM   14  C   UNL     1     -11.483  10.253  70.504  1.00  0.00    -0.427 C  
ENDBRANCH   4  12
ENDBRANCH   3   4
TORSDOF 4
ENDMDL
MODEL       81
REMARK 921   NORMALIZED FREE ENERGY PREDICTED BY IDOCK:   -3.39 KCAL/MOL
REMARK 922        TOTAL FREE ENERGY PREDICTED BY IDOCK:   -4.62 KCAL/MOL
REMARK 923 INTER-LIGAND FREE ENERGY PREDICTED BY IDOCK:   -4.55 KCAL/MOL
REMARK 924 INTRA-LIGAND FREE ENERGY PREDICTED BY IDOCK:   -0.08 KCAL/MOL
REMARK 927      BINDING AFFINITY PREDICTED BY RF-SCORE:    0.00 PKD
ROOT
HETATM    1  C   UNL     1     -12.468  12.733  64.969  1.00  0.00    -0.572 C  
HETATM    2  C   UNL     1     -12.283  14.081  64.338  1.00  0.00    -0.457 C  
HETATM    3  C   UNL     1     -11.950  13.885  65.802  1.00  0.00    -0.419 C  
ENDROOT
BRANCH   3   4
HETATM    4  C   UNL     1     -10.528  13.843  66.317  1.00  0.00    -0.287 C  
BRANCH   4   5
HETATM    5  N   UNL     1      -9.699  14.707  65.504  1.00  0.00    -0.511 NA 
HETATM    6  H   UNL     1      -9.645  14.546  64.499  1.00  0.00     0.000 HD 
BRANCH   5   7
HETATM    7  C   UNL     1      -8.993  15.722  66.053  1.00  0.00    -0.287 A  
HETATM    8  N   UNL     1      -7.934  15.664  66.784  1.00  0.00    -0.235 NA 
HETATM    9  C   UNL     1      -7.602  17.059  67.062  1.00  0.00    -0.189 A  
HETATM   10  C   UNL     1      -8.585  17.877  66.256  1.00  0.00    -0.177 A  
HETATM   11  O   UNL     1      -9.502  16.934  65.728  1.00  0.00    -0.514 OA 
ENDBRANCH   5   7
ENDBRANCH   4   5
BRANCH   4  12
HETATM   12  C   UNL     1     -10.463  14.333  67.747  1.00  0.00    -0.245 C  
HETATM   13  C   UNL     1     -11.201  13.590  68.838  1.00  0.00    -0.316 C  
HETATM   14  C   UNL     1     -11.672  14.949  68.412  1.00  0.00    -0.336 C  
ENDBRANCH   4  12
ENDBRANCH   3   4
TORSDOF 4
ENDMDL
MODEL       82
REMARK 921   NORMALIZED FREE ENERGY PREDICTED BY IDOCK:   -3.36 KCAL/MOL
REMARK 922        TOTAL FREE ENERGY PREDICTED BY IDOCK:   -4.59 KCAL/MOL
REMARK 923 INTER-LIGAND FREE ENERGY PREDICTED BY IDOCK:   -4.20 KCAL/MOL
REMARK 924 INTRA-LIGAND FREE ENERGY PREDICTED BY IDOCK:   -0.39 KCAL/MOL
REMARK 927      BINDING AFFINITY PREDICTED BY RF-SCORE:    0.00 PKD
ROOT
HETATM    1  C   UNL     1      -9.244  15.448  66.638  1.00  0.00    -0.303 C  
HETATM    2  C   UNL     1     -10.709  15.728  66.796  1.00  0.00    -0.293 C  
HETATM    3  C   UNL     1     -10.173  15.264  65.458  1.00  0.00    -0.417 C  
ENDROOT
BRANCH   3   4
HETATM    4  C   UNL     1     -10.416  13.871  64.921  1.00  0.00    -0.426 C  
BRANCH   4   5
HETATM    5  N   UNL     1     -10.294  12.914  65.998  1.00  0.00    -0.277 NA 
HETATM    6  H   UNL     1     -10.850  13.040  66.844  1.00  0.00     0.000 HD 
BRANCH   5   7
HETATM    7  C   UNL     1      -9.457  11.855  65.907  1.00  0.00    -0.214 A  
HETATM    8  N   UNL     1      -9.412  10.941  65.000  1.00  0.00    -0.220 NA 
HETATM    9  C   UNL     1      -8.300  10.082  65.400  1.00  0.00    -0.151 A  
HETATM   10  C   UNL     1      -7.680  10.756  66.602  1.00  0.00    -0.141 A  
HETATM   11  O   UNL     1      -8.555  11.827  66.915  1.00  0.00    -0.167 OA 
ENDBRANCH   5   7
ENDBRANCH   4   5
BRANCH   4  12
HETATM   12  C   UNL     1     -11.809  13.758  64.341  1.00  0.00    -0.458 C  
HETATM   13  C   UNL     1     -12.777  12.732  64.887  1.00  0.00    -0.479 C  
HETATM   14  C   UNL     1     -12.209  12.562  63.509  1.00  0.00    -0.652 C  
ENDBRANCH   4  12
ENDBRANCH   3   4
TORSDOF 4
ENDMDL
MODEL       83
REMARK 921   NORMALIZED FREE ENERGY PREDICTED BY IDOCK:   -3.36 KCAL/MOL
REMARK 922        TOTAL FREE ENERGY PREDICTED BY IDOCK:   -4.58 KCAL/MOL
REMARK 923 INTER-LIGAND FREE ENERGY PREDICTED BY IDOCK:   -4.24 KCAL/MOL
REMARK 924 INTRA-LIGAND FREE ENERGY PREDICTED BY IDOCK:   -0.35 KCAL/MOL
REMARK 927      BINDING AFFINITY PREDICTED BY RF-SCORE:    0.00 PKD
ROOT
HETATM    1  C   UNL     1     -10.458   7.951  69.870  1.00  0.00    -0.229 C  
HETATM    2  C   UNL     1     -10.996   6.618  69.444  1.00  0.00    -0.361 C  
HETATM    3  C   UNL     1     -10.800   6.912  70.916  1.00  0.00    -0.277 C  
ENDROOT
BRANCH   3   4
HETATM    4  C   UNL     1     -11.954   7.166  71.858  1.00  0.00    -0.307 C  
BRANCH   4   5
HETATM    5  N   UNL     1     -11.439   7.530  73.160  1.00  0.00    -0.614 NA 
HETATM    6  H   UNL     1     -11.869   8.302  73.669  1.00  0.00     0.000 HD 
BRANCH   5   7
HETATM    7  C   UNL     1     -10.398   6.867  73.714  1.00  0.00    -0.376 A  
HETATM    8  N   UNL     1     -10.308   5.617  74.015  1.00  0.00    -0.260 NA 
HETATM    9  C   UNL     1      -8.959   5.466  74.554  1.00  0.00    -0.117 A  
HETATM   10  C   UNL     1      -8.298   6.813  74.377  1.00  0.00    -0.143 A  
HETATM   11  O   UNL     1      -9.333   7.673  73.930  1.00  0.00    -0.270 OA 
ENDBRANCH   5   7
ENDBRANCH   4   5
BRANCH   4  12
HETATM   12  C   UNL     1     -12.815   8.303  71.354  1.00  0.00    -0.263 C  
HETATM   13  C   UNL     1     -12.913   9.589  72.144  1.00  0.00    -0.497 C  
HETATM   14  C   UNL     1     -14.100   8.676  72.057  1.00  0.00    -0.523 C  
ENDBRANCH   4  12
ENDBRANCH   3   4
TORSDOF 4
ENDMDL
MODEL       84
REMARK 921   NORMALIZED FREE ENERGY PREDICTED BY IDOCK:   -3.36 KCAL/MOL
REMARK 922        TOTAL FREE ENERGY PREDICTED BY IDOCK:   -4.58 KCAL/MOL
REMARK 923 INTER-LIGAND FREE ENERGY PREDICTED BY IDOCK:   -4.31 KCAL/MOL
REMARK 924 INTRA-LIGAND FREE ENERGY PREDICTED BY IDOCK:   -0.27 KCAL/MOL
REMARK 927      BINDING AFFINITY PREDICTED BY RF-SCORE:    0.00 PKD
ROOT
HETATM    1  C   UNL     1     -14.067   7.961  71.594  1.00  0.00    -0.528 C  
HETATM    2  C   UNL     1     -13.714   9.418  71.645  1.00  0.00    -0.393 C  
HETATM    3  C   UNL     1     -12.743   8.391  72.188  1.00  0.00    -0.399 C  
ENDROOT
BRANCH   3   4
HETATM    4  C   UNL     1     -11.461   8.025  71.475  1.00  0.00    -0.264 C  
BRANCH   4   5
HETATM    5  N   UNL     1     -11.768   7.586  70.131  1.00  0.00    -0.497 NA 
HETATM    6  H   UNL     1     -12.476   8.084  69.593  1.00  0.00     0.000 HD 
BRANCH   5   7
HETATM    7  C   UNL     1     -11.135   6.527  69.576  1.00  0.00    -0.365 A  
HETATM    8  N   UNL     1     -11.115   6.159  68.341  1.00  0.00    -0.323 NA 
HETATM    9  C   UNL     1     -10.257   4.976  68.325  1.00  0.00    -0.073 A  
HETATM   10  C   UNL     1      -9.722   4.845  69.732  1.00  0.00    -0.192 A  
HETATM   11  O   UNL     1     -10.424   5.820  70.484  1.00  0.00    -0.227 OA 
ENDBRANCH   5   7
ENDBRANCH   4   5
BRANCH   4  12
HETATM   12  C   UNL     1     -10.540   9.221  71.383  1.00  0.00    -0.417 C  
HETATM   13  C   UNL     1     -10.399   9.973  70.079  1.00  0.00    -0.323 C  
HETATM   14  C   UNL     1      -9.254   9.152  70.593  1.00  0.00    -0.310 C  
ENDBRANCH   4  12
ENDBRANCH   3   4
TORSDOF 4
ENDMDL
MODEL       85
REMARK 921   NORMALIZED FREE ENERGY PREDICTED BY IDOCK:   -3.35 KCAL/MOL
REMARK 922        TOTAL FREE ENERGY PREDICTED BY IDOCK:   -4.58 KCAL/MOL
REMARK 923 INTER-LIGAND FREE ENERGY PREDICTED BY IDOCK:   -4.17 KCAL/MOL
REMARK 924 INTRA-LIGAND FREE ENERGY PREDICTED BY IDOCK:   -0.40 KCAL/MOL
REMARK 927      BINDING AFFINITY PREDICTED BY RF-SCORE:    0.00 PKD
ROOT
HETATM    1  C   UNL     1     -10.784   7.082  67.493  1.00  0.00    -0.352 C  
HETATM    2  C   UNL     1     -10.597   6.092  68.604  1.00  0.00    -0.327 C  
HETATM    3  C   UNL     1      -9.846   7.406  68.635  1.00  0.00    -0.165 C  
ENDROOT
BRANCH   3   4
HETATM    4  C   UNL     1     -10.202   8.527  69.586  1.00  0.00    -0.209 C  
BRANCH   4   5
HETATM    5  N   UNL     1     -11.257   9.330  69.007  1.00  0.00    -0.442 NA 
HETATM    6  H   UNL     1     -12.175   8.912  68.853  1.00  0.00     0.000 HD 
BRANCH   5   7
HETATM    7  C   UNL     1     -11.050  10.622  68.666  1.00  0.00    -0.263 A  
HETATM    8  N   UNL     1      -9.966  11.313  68.750  1.00  0.00    -0.207 NA 
HETATM    9  C   UNL     1     -10.325  12.626  68.218  1.00  0.00    -0.241 A  
HETATM   10  C   UNL     1     -11.745  12.486  67.720  1.00  0.00    -0.359 A  
HETATM   11  O   UNL     1     -12.159  11.200  68.147  1.00  0.00    -0.633 OA 
ENDBRANCH   5   7
ENDBRANCH   4   5
BRANCH   4  12
HETATM   12  C   UNL     1     -10.697   7.972  70.903  1.00  0.00    -0.240 C  
HETATM   13  C   UNL     1     -12.178   7.951  71.210  1.00  0.00    -0.314 C  
HETATM   14  C   UNL     1     -11.275   8.883  71.962  1.00  0.00    -0.422 C  
ENDBRANCH   4  12
ENDBRANCH   3   4
TORSDOF 4
ENDMDL
MODEL       86
REMARK 921   NORMALIZED FREE ENERGY PREDICTED BY IDOCK:   -3.33 KCAL/MOL
REMARK 922        TOTAL FREE ENERGY PREDICTED BY IDOCK:   -4.55 KCAL/MOL
REMARK 923 INTER-LIGAND FREE ENERGY PREDICTED BY IDOCK:   -4.13 KCAL/MOL
REMARK 924 INTRA-LIGAND FREE ENERGY PREDICTED BY IDOCK:   -0.42 KCAL/MOL
REMARK 927      BINDING AFFINITY PREDICTED BY RF-SCORE:    0.00 PKD
ROOT
HETATM    1  C   UNL     1     -12.142   8.668  72.061  1.00  0.00    -0.442 C  
HETATM    2  C   UNL     1     -13.391   9.346  71.581  1.00  0.00    -0.477 C  
HETATM    3  C   UNL     1     -12.066  10.075  71.509  1.00  0.00    -0.475 C  
ENDROOT
BRANCH   3   4
HETATM    4  C   UNL     1     -11.338  10.317  70.206  1.00  0.00    -0.323 C  
BRANCH   4   5
HETATM    5  N   UNL     1     -11.395   9.120  69.396  1.00  0.00    -0.432 NA 
HETATM    6  H   UNL     1     -12.156   8.456  69.537  1.00  0.00     0.000 HD 
BRANCH   5   7
HETATM    7  C   UNL     1     -10.457   8.863  68.455  1.00  0.00    -0.187 A  
HETATM    8  N   UNL     1     -10.623   8.455  67.244  1.00  0.00    -0.298 NA 
HETATM    9  C   UNL     1      -9.271   8.379  66.694  1.00  0.00    -0.180 A  
HETATM   10  C   UNL     1      -8.365   8.932  67.770  1.00  0.00    -0.110 A  
HETATM   11  O   UNL     1      -9.204   9.115  68.898  1.00  0.00    -0.138 OA 
ENDBRANCH   5   7
ENDBRANCH   4   5
BRANCH   4  12
HETATM   12  C   UNL     1     -11.989  11.443  69.432  1.00  0.00    -0.407 C  
HETATM   13  C   UNL     1     -11.144  12.560  68.862  1.00  0.00    -0.309 C  
HETATM   14  C   UNL     1     -12.069  12.837  70.010  1.00  0.00    -0.355 C  
ENDBRANCH   4  12
ENDBRANCH   3   4
TORSDOF 4
ENDMDL
MODEL       87
REMARK 921   NORMALIZED FREE ENERGY PREDICTED BY IDOCK:   -3.32 KCAL/MOL
REMARK 922        TOTAL FREE ENERGY PREDICTED BY IDOCK:   -4.54 KCAL/MOL
REMARK 923 INTER-LIGAND FREE ENERGY PREDICTED BY IDOCK:   -4.10 KCAL/MOL
REMARK 924 INTRA-LIGAND FREE ENERGY PREDICTED BY IDOCK:   -0.44 KCAL/MOL
REMARK 927      BINDING AFFINITY PREDICTED BY RF-SCORE:    0.00 PKD
ROOT
HETATM    1  C   UNL     1     -10.159   5.355  71.244  1.00  0.00    -0.270 C  
HETATM    2  C   UNL     1      -9.602   5.053  69.885  1.00  0.00    -0.246 C  
HETATM    3  C   UNL     1     -10.942   5.746  70.010  1.00  0.00    -0.382 C  
ENDROOT
BRANCH   3   4
HETATM    4  C   UNL     1     -11.135   7.212  69.692  1.00  0.00    -0.179 C  
BRANCH   4   5
HETATM    5  N   UNL     1     -10.839   8.000  70.869  1.00  0.00    -0.226 NA 
HETATM    6  H   UNL     1      -9.946   7.872  71.345  1.00  0.00     0.000 HD 
BRANCH   5   7
HETATM    7  C   UNL     1     -11.723   8.903  71.351  1.00  0.00    -0.315 A  
HETATM    8  N   UNL     1     -11.729  10.183  71.202  1.00  0.00    -0.369 NA 
HETATM    9  C   UNL     1     -12.925  10.630  71.912  1.00  0.00    -0.437 A  
HETATM   10  C   UNL     1     -13.625   9.368  72.360  1.00  0.00    -0.429 A  
HETATM   11  O   UNL     1     -12.726   8.318  72.047  1.00  0.00    -0.321 OA 
ENDBRANCH   5   7
ENDBRANCH   4   5
BRANCH   4  12
HETATM   12  C   UNL     1     -10.200   7.646  68.585  1.00  0.00    -0.214 C  
HETATM   13  C   UNL     1     -10.532   8.858  67.743  1.00  0.00    -0.300 C  
HETATM   14  C   UNL     1     -10.590   7.488  67.133  1.00  0.00    -0.415 C  
ENDBRANCH   4  12
ENDBRANCH   3   4
TORSDOF 4
ENDMDL
MODEL       88
REMARK 921   NORMALIZED FREE ENERGY PREDICTED BY IDOCK:   -3.31 KCAL/MOL
REMARK 922        TOTAL FREE ENERGY PREDICTED BY IDOCK:   -4.52 KCAL/MOL
REMARK 923 INTER-LIGAND FREE ENERGY PREDICTED BY IDOCK:   -4.19 KCAL/MOL
REMARK 924 INTRA-LIGAND FREE ENERGY PREDICTED BY IDOCK:   -0.33 KCAL/MOL
REMARK 927      BINDING AFFINITY PREDICTED BY RF-SCORE:    0.00 PKD
ROOT
HETATM    1  C   UNL     1     -10.929  16.715  68.664  1.00  0.00    -0.328 C  
HETATM    2  C   UNL     1     -11.297  15.806  69.798  1.00  0.00    -0.339 C  
HETATM    3  C   UNL     1     -11.761  15.480  68.395  1.00  0.00    -0.323 C  
ENDROOT
BRANCH   3   4
HETATM    4  C   UNL     1     -11.166  14.354  67.580  1.00  0.00    -0.315 C  
BRANCH   4   5
HETATM    5  N   UNL     1     -11.715  13.094  68.032  1.00  0.00    -0.338 NA 
HETATM    6  H   UNL     1     -12.672  13.063  68.383  1.00  0.00     0.000 HD 
BRANCH   5   7
HETATM    7  C   UNL     1     -10.983  11.956  67.998  1.00  0.00    -0.224 A  
HETATM    8  N   UNL     1      -9.797  11.748  68.455  1.00  0.00    -0.204 NA 
HETATM    9  C   UNL     1      -9.532  10.341  68.163  1.00  0.00    -0.147 A  
HETATM   10  C   UNL     1     -10.819   9.799  67.586  1.00  0.00    -0.239 A  
HETATM   11  O   UNL     1     -11.655  10.932  67.421  1.00  0.00    -0.509 OA 
ENDBRANCH   5   7
ENDBRANCH   4   5
BRANCH   4  12
HETATM   12  C   UNL     1     -11.504  14.519  66.114  1.00  0.00    -0.357 C  
HETATM   13  C   UNL     1     -10.504  14.114  65.054  1.00  0.00    -0.447 C  
HETATM   14  C   UNL     1     -10.814  15.566  65.271  1.00  0.00    -0.425 C  
ENDBRANCH   4  12
ENDBRANCH   3   4
TORSDOF 4
ENDMDL
MODEL       89
REMARK 921   NORMALIZED FREE ENERGY PREDICTED BY IDOCK:   -3.30 KCAL/MOL
REMARK 922        TOTAL FREE ENERGY PREDICTED BY IDOCK:   -4.51 KCAL/MOL
REMARK 923 INTER-LIGAND FREE ENERGY PREDICTED BY IDOCK:   -4.20 KCAL/MOL
REMARK 924 INTRA-LIGAND FREE ENERGY PREDICTED BY IDOCK:   -0.31 KCAL/MOL
REMARK 927      BINDING AFFINITY PREDICTED BY RF-SCORE:    0.00 PKD
ROOT
HETATM    1  C   UNL     1     -13.588   9.315  71.921  1.00  0.00    -0.494 C  
HETATM    2  C   UNL     1     -12.988  10.683  71.787  1.00  0.00    -0.577 C  
HETATM    3  C   UNL     1     -12.088   9.466  71.788  1.00  0.00    -0.454 C  
ENDROOT
BRANCH   3   4
HETATM    4  C   UNL     1     -11.404   8.956  70.539  1.00  0.00    -0.234 C  
BRANCH   4   5
HETATM    5  N   UNL     1     -10.299   9.829  70.209  1.00  0.00    -0.276 NA 
HETATM    6  H   UNL     1      -9.436   9.769  70.748  1.00  0.00     0.000 HD 
BRANCH   5   7
HETATM    7  C   UNL     1     -10.388  10.725  69.198  1.00  0.00    -0.217 A  
HETATM    8  N   UNL     1      -9.553  11.648  68.865  1.00  0.00    -0.065 NA 
HETATM    9  C   UNL     1     -10.155  12.282  67.694  1.00  0.00    -0.200 A  
HETATM   10  C   UNL     1     -11.388  11.466  67.381  1.00  0.00    -0.288 A  
HETATM   11  O   UNL     1     -11.511  10.557  68.462  1.00  0.00    -0.270 OA 
ENDBRANCH   5   7
ENDBRANCH   4   5
BRANCH   4  12
HETATM   12  C   UNL     1     -10.857   7.563  70.760  1.00  0.00    -0.253 C  
HETATM   13  C   UNL     1     -11.409   6.397  69.971  1.00  0.00    -0.496 C  
HETATM   14  C   UNL     1     -11.689   6.501  71.441  1.00  0.00    -0.378 C  
ENDBRANCH   4  12
ENDBRANCH   3   4
TORSDOF 4
ENDMDL
MODEL       90
REMARK 921   NORMALIZED FREE ENERGY PREDICTED BY IDOCK:   -3.28 KCAL/MOL
REMARK 922        TOTAL FREE ENERGY PREDICTED BY IDOCK:   -4.49 KCAL/MOL
REMARK 923 INTER-LIGAND FREE ENERGY PREDICTED BY IDOCK:   -4.40 KCAL/MOL
REMARK 924 INTRA-LIGAND FREE ENERGY PREDICTED BY IDOCK:   -0.09 KCAL/MOL
REMARK 927      BINDING AFFINITY PREDICTED BY RF-SCORE:    0.00 PKD
ROOT
HETATM    1  C   UNL     1      -5.901  19.120  65.039  1.00  0.00    -0.289 C  
HETATM    2  C   UNL     1      -5.628  20.515  64.563  1.00  0.00    -0.258 C  
HETATM    3  C   UNL     1      -6.909  20.214  65.310  1.00  0.00    -0.334 C  
ENDROOT
BRANCH   3   4
HETATM    4  C   UNL     1      -7.147  20.661  66.735  1.00  0.00    -0.268 C  
BRANCH   4   5
HETATM    5  N   UNL     1      -8.569  20.694  66.996  1.00  0.00    -0.564 NA 
HETATM    6  H   UNL     1      -9.026  21.590  67.163  1.00  0.00     0.000 HD 
BRANCH   5   7
HETATM    7  C   UNL     1      -9.305  19.559  67.024  1.00  0.00    -0.336 A  
HETATM    8  N   UNL     1      -9.598  18.766  66.051  1.00  0.00    -0.487 NA 
HETATM    9  C   UNL     1     -10.386  17.702  66.670  1.00  0.00    -0.333 A  
HETATM   10  C   UNL     1     -10.362  17.990  68.153  1.00  0.00    -0.388 A  
HETATM   11  O   UNL     1      -9.736  19.257  68.271  1.00  0.00    -0.337 OA 
ENDBRANCH   5   7
ENDBRANCH   4   5
BRANCH   4  12
HETATM   12  C   UNL     1      -6.508  19.697  67.711  1.00  0.00    -0.244 C  
HETATM   13  C   UNL     1      -6.368  20.074  69.169  1.00  0.00    -0.360 C  
HETATM   14  C   UNL     1      -5.147  19.980  68.303  1.00  0.00    -0.206 C  
ENDBRANCH   4  12
ENDBRANCH   3   4
TORSDOF 4
ENDMDL
MODEL       91
REMARK 921   NORMALIZED FREE ENERGY PREDICTED BY IDOCK:   -3.27 KCAL/MOL
REMARK 922        TOTAL FREE ENERGY PREDICTED BY IDOCK:   -4.47 KCAL/MOL
REMARK 923 INTER-LIGAND FREE ENERGY PREDICTED BY IDOCK:   -4.08 KCAL/MOL
REMARK 924 INTRA-LIGAND FREE ENERGY PREDICTED BY IDOCK:   -0.39 KCAL/MOL
REMARK 927      BINDING AFFINITY PREDICTED BY RF-SCORE:    0.00 PKD
ROOT
HETATM    1  C   UNL     1      -9.083   7.018  72.394  1.00  0.00    -0.147 C  
HETATM    2  C   UNL     1      -9.786   7.670  73.547  1.00  0.00    -0.357 C  
HETATM    3  C   UNL     1      -9.611   8.428  72.248  1.00  0.00    -0.374 C  
ENDROOT
BRANCH   3   4
HETATM    4  C   UNL     1     -10.756   8.693  71.297  1.00  0.00    -0.254 C  
BRANCH   4   5
HETATM    5  N   UNL     1     -11.046   7.489  70.550  1.00  0.00    -0.257 NA 
HETATM    6  H   UNL     1     -11.382   6.663  71.044  1.00  0.00     0.000 HD 
BRANCH   5   7
HETATM    7  C   UNL     1     -10.880   7.438  69.208  1.00  0.00    -0.137 A  
HETATM    8  N   UNL     1     -10.347   8.315  68.429  1.00  0.00    -0.209 NA 
HETATM    9  C   UNL     1     -10.416   7.714  67.099  1.00  0.00    -0.342 A  
HETATM   10  C   UNL     1     -10.960   6.320  67.312  1.00  0.00    -0.366 A  
HETATM   11  O   UNL     1     -11.326   6.274  68.680  1.00  0.00    -0.337 OA 
ENDBRANCH   5   7
ENDBRANCH   4   5
BRANCH   4  12
HETATM   12  C   UNL     1     -12.002   9.089  72.059  1.00  0.00    -0.433 C  
HETATM   13  C   UNL     1     -13.309   8.375  71.801  1.00  0.00    -0.378 C  
HETATM   14  C   UNL     1     -13.142   9.801  71.367  1.00  0.00    -0.489 C  
ENDBRANCH   4  12
ENDBRANCH   3   4
TORSDOF 4
ENDMDL
MODEL       92
REMARK 921   NORMALIZED FREE ENERGY PREDICTED BY IDOCK:   -3.26 KCAL/MOL
REMARK 922        TOTAL FREE ENERGY PREDICTED BY IDOCK:   -4.47 KCAL/MOL
REMARK 923 INTER-LIGAND FREE ENERGY PREDICTED BY IDOCK:   -4.09 KCAL/MOL
REMARK 924 INTRA-LIGAND FREE ENERGY PREDICTED BY IDOCK:   -0.38 KCAL/MOL
REMARK 927      BINDING AFFINITY PREDICTED BY RF-SCORE:    0.00 PKD
ROOT
HETATM    1  C   UNL     1     -10.678   5.631  73.630  1.00  0.00    -0.302 C  
HETATM    2  C   UNL     1     -10.431   4.693  72.486  1.00  0.00    -0.257 C  
HETATM    3  C   UNL     1     -11.475   5.781  72.353  1.00  0.00    -0.343 C  
ENDROOT
BRANCH   3   4
HETATM    4  C   UNL     1     -11.269   7.009  71.495  1.00  0.00    -0.249 C  
BRANCH   4   5
HETATM    5  N   UNL     1     -11.875   6.794  70.199  1.00  0.00    -0.622 NA 
HETATM    6  H   UNL     1     -12.885   6.892  70.097  1.00  0.00     0.000 HD 
BRANCH   5   7
HETATM    7  C   UNL     1     -11.127   6.467  69.119  1.00  0.00    -0.365 A  
HETATM    8  N   UNL     1     -10.488   5.373  68.886  1.00  0.00    -0.198 NA 
HETATM    9  C   UNL     1      -9.889   5.572  67.568  1.00  0.00    -0.144 A  
HETATM   10  C   UNL     1     -10.416   6.902  67.081  1.00  0.00    -0.303 A  
HETATM   11  O   UNL     1     -11.115   7.447  68.187  1.00  0.00    -0.005 OA 
ENDBRANCH   5   7
ENDBRANCH   4   5
BRANCH   4  12
HETATM   12  C   UNL     1     -11.922   8.218  72.128  1.00  0.00    -0.429 C  
HETATM   13  C   UNL     1     -13.316   8.633  71.713  1.00  0.00    -0.410 C  
HETATM   14  C   UNL     1     -12.141   9.486  71.335  1.00  0.00    -0.459 C  
ENDBRANCH   4  12
ENDBRANCH   3   4
TORSDOF 4
ENDMDL
MODEL       93
REMARK 921   NORMALIZED FREE ENERGY PREDICTED BY IDOCK:   -3.26 KCAL/MOL
REMARK 922        TOTAL FREE ENERGY PREDICTED BY IDOCK:   -4.46 KCAL/MOL
REMARK 923 INTER-LIGAND FREE ENERGY PREDICTED BY IDOCK:   -4.12 KCAL/MOL
REMARK 924 INTRA-LIGAND FREE ENERGY PREDICTED BY IDOCK:   -0.34 KCAL/MOL
REMARK 927      BINDING AFFINITY PREDICTED BY RF-SCORE:    0.00 PKD
ROOT
HETATM    1  C   UNL     1     -11.877  11.228  68.124  1.00  0.00    -0.276 C  
HETATM    2  C   UNL     1     -11.865  12.723  68.008  1.00  0.00    -0.386 C  
HETATM    3  C   UNL     1     -10.800  11.907  67.307  1.00  0.00    -0.294 C  
ENDROOT
BRANCH   3   4
HETATM    4  C   UNL     1     -10.776  11.711  65.808  1.00  0.00    -0.280 C  
BRANCH   4   5
HETATM    5  N   UNL     1     -10.035  12.792  65.195  1.00  0.00    -0.456 NA 
HETATM    6  H   UNL     1      -9.059  12.646  64.939  1.00  0.00     0.000 HD 
BRANCH   5   7
HETATM    7  C   UNL     1     -10.612  13.992  64.956  1.00  0.00    -0.410 A  
HETATM    8  N   UNL     1     -10.075  15.164  64.986  1.00  0.00    -0.300 NA 
HETATM    9  C   UNL     1     -11.158  16.074  64.621  1.00  0.00    -0.332 A  
HETATM   10  C   UNL     1     -12.331  15.187  64.270  1.00  0.00    -0.178 A  
HETATM   11  O   UNL     1     -11.917  13.876  64.617  1.00  0.00    -0.379 OA 
ENDBRANCH   5   7
ENDBRANCH   4   5
BRANCH   4  12
HETATM   12  C   UNL     1     -10.096  10.408  65.450  1.00  0.00    -0.354 C  
HETATM   13  C   UNL     1      -8.602  10.257  65.628  1.00  0.00    -0.170 C  
HETATM   14  C   UNL     1      -9.186  10.312  64.247  1.00  0.00    -0.300 C  
ENDBRANCH   4  12
ENDBRANCH   3   4
TORSDOF 4
ENDMDL
MODEL       94
REMARK 921   NORMALIZED FREE ENERGY PREDICTED BY IDOCK:   -3.23 KCAL/MOL
REMARK 922        TOTAL FREE ENERGY PREDICTED BY IDOCK:   -4.43 KCAL/MOL
REMARK 923 INTER-LIGAND FREE ENERGY PREDICTED BY IDOCK:   -3.94 KCAL/MOL
REMARK 924 INTRA-LIGAND FREE ENERGY PREDICTED BY IDOCK:   -0.48 KCAL/MOL
REMARK 927      BINDING AFFINITY PREDICTED BY RF-SCORE:    0.00 PKD
ROOT
HETATM    1  C   UNL     1     -11.813  13.923  65.622  1.00  0.00    -0.383 C  
HETATM    2  C   UNL     1     -10.335  13.748  65.804  1.00  0.00    -0.315 C  
HETATM    3  C   UNL     1     -10.961  15.110  66.016  1.00  0.00    -0.332 C  
ENDROOT
BRANCH   3   4
HETATM    4  C   UNL     1     -11.138  15.722  67.387  1.00  0.00    -0.235 C  
BRANCH   4   5
HETATM    5  N   UNL     1     -10.508  14.873  68.375  1.00  0.00    -0.238 NA 
HETATM    6  H   UNL     1      -9.495  14.756  68.360  1.00  0.00     0.000 HD 
BRANCH   5   7
HETATM    7  C   UNL     1     -11.237  14.232  69.317  1.00  0.00    -0.273 A  
HETATM    8  N   UNL     1     -11.937  14.736  70.275  1.00  0.00    -0.290 NA 
HETATM    9  C   UNL     1     -12.519  13.579  70.952  1.00  0.00    -0.369 A  
HETATM   10  C   UNL     1     -12.116  12.380  70.124  1.00  0.00    -0.290 A  
HETATM   11  O   UNL     1     -11.209  12.888  69.160  1.00  0.00    -0.256 OA 
ENDBRANCH   5   7
ENDBRANCH   4   5
BRANCH   4  12
HETATM   12  C   UNL     1     -10.486  17.086  67.451  1.00  0.00    -0.322 C  
HETATM   13  C   UNL     1     -10.406  17.948  66.211  1.00  0.00    -0.364 C  
HETATM   14  C   UNL     1      -9.157  17.344  66.780  1.00  0.00    -0.276 C  
ENDBRANCH   4  12
ENDBRANCH   3   4
TORSDOF 4
ENDMDL
MODEL       95
REMARK 921   NORMALIZED FREE ENERGY PREDICTED BY IDOCK:   -3.22 KCAL/MOL
REMARK 922        TOTAL FREE ENERGY PREDICTED BY IDOCK:   -4.42 KCAL/MOL
REMARK 923 INTER-LIGAND FREE ENERGY PREDICTED BY IDOCK:   -4.03 KCAL/MOL
REMARK 924 INTRA-LIGAND FREE ENERGY PREDICTED BY IDOCK:   -0.39 KCAL/MOL
REMARK 927      BINDING AFFINITY PREDICTED BY RF-SCORE:    0.00 PKD
ROOT
HETATM    1  C   UNL     1     -12.077  12.947  65.515  1.00  0.00    -0.507 C  
HETATM    2  C   UNL     1     -10.799  13.727  65.429  1.00  0.00    -0.312 C  
HETATM    3  C   UNL     1     -11.903  14.194  66.354  1.00  0.00    -0.440 C  
ENDROOT
BRANCH   3   4
HETATM    4  C   UNL     1     -11.815  14.065  67.858  1.00  0.00    -0.376 C  
BRANCH   4   5
HETATM    5  N   UNL     1     -10.548  13.465  68.215  1.00  0.00    -0.247 NA 
HETATM    6  H   UNL     1      -9.691  14.005  68.103  1.00  0.00     0.000 HD 
BRANCH   5   7
HETATM    7  C   UNL     1     -10.479  12.201  68.693  1.00  0.00    -0.216 A  
HETATM    8  N   UNL     1      -9.513  11.354  68.592  1.00  0.00    -0.187 NA 
HETATM    9  C   UNL     1      -9.982  10.174  69.315  1.00  0.00    -0.219 A  
HETATM   10  C   UNL     1     -11.306  10.574  69.925  1.00  0.00    -0.309 A  
HETATM   11  O   UNL     1     -11.589  11.852  69.383  1.00  0.00    -0.279 OA 
ENDBRANCH   5   7
ENDBRANCH   4   5
BRANCH   4  12
HETATM   12  C   UNL     1     -11.897  15.424  68.517  1.00  0.00    -0.293 C  
HETATM   13  C   UNL     1     -10.716  15.966  69.290  1.00  0.00    -0.259 C  
HETATM   14  C   UNL     1     -11.960  15.556  70.021  1.00  0.00    -0.385 C  
ENDBRANCH   4  12
ENDBRANCH   3   4
TORSDOF 4
ENDMDL
MODEL       96
REMARK 921   NORMALIZED FREE ENERGY PREDICTED BY IDOCK:   -3.20 KCAL/MOL
REMARK 922        TOTAL FREE ENERGY PREDICTED BY IDOCK:   -4.39 KCAL/MOL
REMARK 923 INTER-LIGAND FREE ENERGY PREDICTED BY IDOCK:   -3.98 KCAL/MOL
REMARK 924 INTRA-LIGAND FREE ENERGY PREDICTED BY IDOCK:   -0.41 KCAL/MOL
REMARK 927      BINDING AFFINITY PREDICTED BY RF-SCORE:    0.00 PKD
ROOT
HETATM    1  C   UNL     1      -9.651   4.193  69.942  1.00  0.00    -0.282 C  
HETATM    2  C   UNL     1      -9.246   5.499  69.326  1.00  0.00    -0.140 C  
HETATM    3  C   UNL     1     -10.536   5.408  70.112  1.00  0.00    -0.344 C  
ENDROOT
BRANCH   3   4
HETATM    4  C   UNL     1     -10.698   6.016  71.487  1.00  0.00    -0.255 C  
BRANCH   4   5
HETATM    5  N   UNL     1     -12.101   6.265  71.738  1.00  0.00    -0.288 NA 
HETATM    6  H   UNL     1     -12.734   5.475  71.863  1.00  0.00     0.000 HD 
BRANCH   5   7
HETATM    7  C   UNL     1     -12.589   7.525  71.810  1.00  0.00    -0.334 A  
HETATM    8  N   UNL     1     -11.965   8.614  72.098  1.00  0.00    -0.367 NA 
HETATM    9  C   UNL     1     -12.982   9.658  71.997  1.00  0.00    -0.428 A  
HETATM   10  C   UNL     1     -14.224   8.964  71.487  1.00  0.00    -0.236 A  
HETATM   11  O   UNL     1     -13.905   7.583  71.499  1.00  0.00    -0.390 OA 
ENDBRANCH   5   7
ENDBRANCH   4   5
BRANCH   4  12
HETATM   12  C   UNL     1     -10.187   5.071  72.552  1.00  0.00    -0.247 C  
HETATM   13  C   UNL     1     -11.159   4.245  73.365  1.00  0.00    -0.371 C  
HETATM   14  C   UNL     1     -10.404   5.364  74.019  1.00  0.00    -0.299 C  
ENDBRANCH   4  12
ENDBRANCH   3   4
TORSDOF 4
ENDMDL
MODEL       97
REMARK 921   NORMALIZED FREE ENERGY PREDICTED BY IDOCK:   -3.19 KCAL/MOL
REMARK 922        TOTAL FREE ENERGY PREDICTED BY IDOCK:   -4.38 KCAL/MOL
REMARK 923 INTER-LIGAND FREE ENERGY PREDICTED BY IDOCK:   -4.12 KCAL/MOL
REMARK 924 INTRA-LIGAND FREE ENERGY PREDICTED BY IDOCK:   -0.25 KCAL/MOL
REMARK 927      BINDING AFFINITY PREDICTED BY RF-SCORE:    0.00 PKD
ROOT
HETATM    1  C   UNL     1      -8.462  14.444  67.258  1.00  0.00    -0.229 C  
HETATM    2  C   UNL     1      -9.365  13.455  67.933  1.00  0.00    -0.216 C  
HETATM    3  C   UNL     1      -9.532  14.934  68.209  1.00  0.00    -0.210 C  
ENDROOT
BRANCH   3   4
HETATM    4  C   UNL     1     -10.690  15.739  67.665  1.00  0.00    -0.310 C  
BRANCH   4   5
HETATM    5  N   UNL     1     -11.434  16.312  68.766  1.00  0.00    -0.337 NA 
HETATM    6  H   UNL     1     -11.686  17.300  68.738  1.00  0.00     0.000 HD 
BRANCH   5   7
HETATM    7  C   UNL     1     -11.800  15.564  69.832  1.00  0.00    -0.362 A  
HETATM    8  N   UNL     1     -12.380  14.414  69.847  1.00  0.00    -0.329 NA 
HETATM    9  C   UNL     1     -12.502  14.082  71.264  1.00  0.00    -0.369 A  
HETATM   10  C   UNL     1     -11.781  15.186  72.002  1.00  0.00    -0.422 A  
HETATM   11  O   UNL     1     -11.458  16.143  71.007  1.00  0.00    -0.405 OA 
ENDBRANCH   5   7
ENDBRANCH   4   5
BRANCH   4  12
HETATM   12  C   UNL     1     -10.191  16.869  66.792  1.00  0.00    -0.306 C  
HETATM   13  C   UNL     1      -9.224  17.890  67.348  1.00  0.00    -0.253 C  
HETATM   14  C   UNL     1     -10.635  18.293  67.035  1.00  0.00    -0.375 C  
ENDBRANCH   4  12
ENDBRANCH   3   4
TORSDOF 4
ENDMDL
MODEL       98
REMARK 921   NORMALIZED FREE ENERGY PREDICTED BY IDOCK:   -3.19 KCAL/MOL
REMARK 922        TOTAL FREE ENERGY PREDICTED BY IDOCK:   -4.38 KCAL/MOL
REMARK 923 INTER-LIGAND FREE ENERGY PREDICTED BY IDOCK:   -4.13 KCAL/MOL
REMARK 924 INTRA-LIGAND FREE ENERGY PREDICTED BY IDOCK:   -0.25 KCAL/MOL
REMARK 927      BINDING AFFINITY PREDICTED BY RF-SCORE:    0.00 PKD
ROOT
HETATM    1  C   UNL     1     -12.778  12.533  64.355  1.00  0.00    -0.447 C  
HETATM    2  C   UNL     1     -11.586  12.585  63.446  1.00  0.00    -0.547 C  
HETATM    3  C   UNL     1     -11.620  13.448  64.690  1.00  0.00    -0.386 C  
ENDROOT
BRANCH   3   4
HETATM    4  C   UNL     1     -10.777  13.153  65.910  1.00  0.00    -0.274 C  
BRANCH   4   5
HETATM    5  N   UNL     1      -9.560  12.486  65.501  1.00  0.00    -0.445 NA 
HETATM    6  H   UNL     1      -8.768  13.042  65.180  1.00  0.00     0.000 HD 
BRANCH   5   7
HETATM    7  C   UNL     1      -9.452  11.137  65.536  1.00  0.00    -0.221 A  
HETATM    8  N   UNL     1     -10.072  10.300  66.295  1.00  0.00    -0.232 NA 
HETATM    9  C   UNL     1      -9.581   8.990  65.873  1.00  0.00    -0.247 A  
HETATM   10  C   UNL     1      -8.690   9.256  64.681  1.00  0.00    -0.192 A  
HETATM   11  O   UNL     1      -8.586  10.668  64.608  1.00  0.00    -0.175 OA 
ENDBRANCH   5   7
ENDBRANCH   4   5
BRANCH   4  12
HETATM   12  C   UNL     1     -10.398  14.435  66.619  1.00  0.00    -0.275 C  
HETATM   13  C   UNL     1      -9.923  15.631  65.825  1.00  0.00    -0.390 C  
HETATM   14  C   UNL     1      -8.957  14.883  66.696  1.00  0.00    -0.301 C  
ENDBRANCH   4  12
ENDBRANCH   3   4
TORSDOF 4
ENDMDL
MODEL       99
REMARK 921   NORMALIZED FREE ENERGY PREDICTED BY IDOCK:   -3.18 KCAL/MOL
REMARK 922        TOTAL FREE ENERGY PREDICTED BY IDOCK:   -4.37 KCAL/MOL
REMARK 923 INTER-LIGAND FREE ENERGY PREDICTED BY IDOCK:   -3.95 KCAL/MOL
REMARK 924 INTRA-LIGAND FREE ENERGY PREDICTED BY IDOCK:   -0.42 KCAL/MOL
REMARK 927      BINDING AFFINITY PREDICTED BY RF-SCORE:    0.00 PKD
ROOT
HETATM    1  C   UNL     1     -10.455  11.423  68.999  1.00  0.00    -0.196 C  
HETATM    2  C   UNL     1      -9.161  11.703  68.296  1.00  0.00    -0.187 C  
HETATM    3  C   UNL     1      -9.808  10.341  68.163  1.00  0.00    -0.166 C  
ENDROOT
BRANCH   3   4
HETATM    4  C   UNL     1     -10.490   9.882  66.894  1.00  0.00    -0.215 C  
BRANCH   4   5
HETATM    5  N   UNL     1     -10.164  10.794  65.819  1.00  0.00    -0.257 NA 
HETATM    6  H   UNL     1      -9.205  10.840  65.477  1.00  0.00     0.000 HD 
BRANCH   5   7
HETATM    7  C   UNL     1     -11.107  11.586  65.259  1.00  0.00    -0.191 A  
HETATM    8  N   UNL     1     -12.033  12.268  65.840  1.00  0.00    -0.597 NA 
HETATM    9  C   UNL     1     -12.729  12.946  64.748  1.00  0.00    -0.370 A  
HETATM   10  C   UNL     1     -11.945  12.612  63.500  1.00  0.00    -0.548 A  
HETATM   11  O   UNL     1     -10.989  11.651  63.912  1.00  0.00    -0.353 OA 
ENDBRANCH   5   7
ENDBRANCH   4   5
BRANCH   4  12
HETATM   12  C   UNL     1     -10.016   8.500  66.502  1.00  0.00    -0.350 C  
HETATM   13  C   UNL     1     -10.470   7.290  67.289  1.00  0.00    -0.380 C  
HETATM   14  C   UNL     1      -9.040   7.739  67.370  1.00  0.00    -0.138 C  
ENDBRANCH   4  12
ENDBRANCH   3   4
TORSDOF 4
ENDMDL
MODEL      100
REMARK 921   NORMALIZED FREE ENERGY PREDICTED BY IDOCK:   -3.17 KCAL/MOL
REMARK 922        TOTAL FREE ENERGY PREDICTED BY IDOCK:   -4.36 KCAL/MOL
REMARK 923 INTER-LIGAND FREE ENERGY PREDICTED BY IDOCK:   -3.88 KCAL/MOL
REMARK 924 INTRA-LIGAND FREE ENERGY PREDICTED BY IDOCK:   -0.47 KCAL/MOL
REMARK 927      BINDING AFFINITY PREDICTED BY RF-SCORE:    0.00 PKD
ROOT
HETATM    1  C   UNL     1      -8.748  12.859  67.074  1.00  0.00    -0.195 C  
HETATM    2  C   UNL     1      -9.727  12.385  68.106  1.00  0.00    -0.214 C  
HETATM    3  C   UNL     1      -9.604  13.865  67.811  1.00  0.00    -0.222 C  
ENDROOT
BRANCH   3   4
HETATM    4  C   UNL     1     -10.659  14.635  67.049  1.00  0.00    -0.280 C  
BRANCH   4   5
HETATM    5  N   UNL     1     -10.015  15.526  66.108  1.00  0.00    -0.286 NA 
HETATM    6  H   UNL     1      -9.774  15.181  65.179  1.00  0.00     0.000 HD 
BRANCH   5   7
HETATM    7  C   UNL     1      -9.726  16.806  66.437  1.00  0.00    -0.290 A  
HETATM    8  N   UNL     1      -8.619  17.292  66.884  1.00  0.00    -0.229 NA 
HETATM    9  C   UNL     1      -8.880  18.722  67.033  1.00  0.00    -0.294 A  
HETATM   10  C   UNL     1     -10.268  18.940  66.476  1.00  0.00    -0.414 A  
HETATM   11  O   UNL     1     -10.769  17.640  66.217  1.00  0.00    -0.245 OA 
ENDBRANCH   5   7
ENDBRANCH   4   5
BRANCH   4  12
HETATM   12  C   UNL     1     -11.552  13.693  66.273  1.00  0.00    -0.372 C  
HETATM   13  C   UNL     1     -11.543  13.709  64.761  1.00  0.00    -0.374 C  
HETATM   14  C   UNL     1     -12.746  14.210  65.504  1.00  0.00    -0.468 C  
ENDBRANCH   4  12
ENDBRANCH   3   4
TORSDOF 4
ENDMDL
MODEL      101
REMARK 921   NORMALIZED FREE ENERGY PREDICTED BY IDOCK:   -3.16 KCAL/MOL
REMARK 922        TOTAL FREE ENERGY PREDICTED BY IDOCK:   -4.34 KCAL/MOL
REMARK 923 INTER-LIGAND FREE ENERGY PREDICTED BY IDOCK:   -4.06 KCAL/MOL
REMARK 924 INTRA-LIGAND FREE ENERGY PREDICTED BY IDOCK:   -0.28 KCAL/MOL
REMARK 927      BINDING AFFINITY PREDICTED BY RF-SCORE:    0.00 PKD
ROOT
HETATM    1  C   UNL     1     -11.845   6.872  71.072  1.00  0.00    -0.411 C  
HETATM    2  C   UNL     1     -13.171   7.333  71.599  1.00  0.00    -0.421 C  
HETATM    3  C   UNL     1     -11.899   7.991  72.089  1.00  0.00    -0.401 C  
ENDROOT
BRANCH   3   4
HETATM    4  C   UNL     1     -11.489   9.386  71.674  1.00  0.00    -0.393 C  
BRANCH   4   5
HETATM    5  N   UNL     1     -10.520   9.302  70.603  1.00  0.00    -0.240 NA 
HETATM    6  H   UNL     1     -10.844   9.261  69.637  1.00  0.00     0.000 HD 
BRANCH   5   7
HETATM    7  C   UNL     1      -9.191   9.275  70.859  1.00  0.00    -0.233 A  
HETATM    8  N   UNL     1      -8.556   8.594  71.750  1.00  0.00    -0.236 NA 
HETATM    9  C   UNL     1      -7.152   8.942  71.546  1.00  0.00    -0.059 A  
HETATM   10  C   UNL     1      -7.128   9.825  70.320  1.00  0.00    -0.143 A  
HETATM   11  O   UNL     1      -8.491  10.068  70.015  1.00  0.00    -0.187 OA 
ENDBRANCH   5   7
ENDBRANCH   4   5
BRANCH   4  12
HETATM   12  C   UNL     1     -12.684  10.166  71.170  1.00  0.00    -0.494 C  
HETATM   13  C   UNL     1     -12.482  11.410  70.334  1.00  0.00    -0.345 C  
HETATM   14  C   UNL     1     -13.015  11.529  71.731  1.00  0.00    -0.500 C  
ENDBRANCH   4  12
ENDBRANCH   3   4
TORSDOF 4
ENDMDL
MODEL      102
REMARK 921   NORMALIZED FREE ENERGY PREDICTED BY IDOCK:   -3.16 KCAL/MOL
REMARK 922        TOTAL FREE ENERGY PREDICTED BY IDOCK:   -4.34 KCAL/MOL
REMARK 923 INTER-LIGAND FREE ENERGY PREDICTED BY IDOCK:   -3.87 KCAL/MOL
REMARK 924 INTRA-LIGAND FREE ENERGY PREDICTED BY IDOCK:   -0.47 KCAL/MOL
REMARK 927      BINDING AFFINITY PREDICTED BY RF-SCORE:    0.00 PKD
ROOT
HETATM    1  C   UNL     1     -10.011  16.920  67.521  1.00  0.00    -0.268 C  
HETATM    2  C   UNL     1      -9.021  16.984  66.396  1.00  0.00    -0.308 C  
HETATM    3  C   UNL     1      -9.032  15.785  67.319  1.00  0.00    -0.211 C  
ENDROOT
BRANCH   3   4
HETATM    4  C   UNL     1      -9.550  14.430  66.892  1.00  0.00    -0.256 C  
BRANCH   4   5
HETATM    5  N   UNL     1      -9.397  14.289  65.460  1.00  0.00    -0.459 NA 
HETATM    6  H   UNL     1      -8.576  14.687  65.004  1.00  0.00     0.000 HD 
BRANCH   5   7
HETATM    7  C   UNL     1     -10.322  13.641  64.715  1.00  0.00    -0.392 A  
HETATM    8  N   UNL     1     -10.243  12.477  64.168  1.00  0.00    -0.364 NA 
HETATM    9  C   UNL     1     -11.538  12.289  63.518  1.00  0.00    -0.486 A  
HETATM   10  C   UNL     1     -12.367  13.490  63.910  1.00  0.00    -0.334 A  
HETATM   11  O   UNL     1     -11.468  14.351  64.589  1.00  0.00    -0.377 OA 
ENDBRANCH   5   7
ENDBRANCH   4   5
BRANCH   4  12
HETATM   12  C   UNL     1      -8.768  13.323  67.562  1.00  0.00    -0.202 C  
HETATM   13  C   UNL     1      -7.821  13.642  68.697  1.00  0.00    -0.096 C  
HETATM   14  C   UNL     1      -7.273  13.202  67.372  1.00  0.00    -0.119 C  
ENDBRANCH   4  12
ENDBRANCH   3   4
TORSDOF 4
ENDMDL
MODEL      103
REMARK 921   NORMALIZED FREE ENERGY PREDICTED BY IDOCK:   -3.15 KCAL/MOL
REMARK 922        TOTAL FREE ENERGY PREDICTED BY IDOCK:   -4.33 KCAL/MOL
REMARK 923 INTER-LIGAND FREE ENERGY PREDICTED BY IDOCK:   -3.96 KCAL/MOL
REMARK 924 INTRA-LIGAND FREE ENERGY PREDICTED BY IDOCK:   -0.37 KCAL/MOL
REMARK 927      BINDING AFFINITY PREDICTED BY RF-SCORE:    0.00 PKD
ROOT
HETATM    1  C   UNL     1      -9.316   9.253  67.556  1.00  0.00    -0.148 C  
HETATM    2  C   UNL     1      -8.613   8.491  66.473  1.00  0.00    -0.130 C  
HETATM    3  C   UNL     1      -9.962   9.119  66.194  1.00  0.00    -0.338 C  
ENDROOT
BRANCH   3   4
HETATM    4  C   UNL     1     -10.126  10.350  65.331  1.00  0.00    -0.284 C  
BRANCH   4   5
HETATM    5  N   UNL     1     -10.088  11.530  66.168  1.00  0.00    -0.221 NA 
HETATM    6  H   UNL     1      -9.441  11.564  66.955  1.00  0.00     0.000 HD 
BRANCH   5   7
HETATM    7  C   UNL     1     -10.895  12.589  65.926  1.00  0.00    -0.269 A  
HETATM    8  N   UNL     1     -12.181  12.623  65.860  1.00  0.00    -0.597 NA 
HETATM    9  C   UNL     1     -12.499  14.025  65.602  1.00  0.00    -0.504 A  
HETATM   10  C   UNL     1     -11.178  14.758  65.665  1.00  0.00    -0.343 A  
HETATM   11  O   UNL     1     -10.198  13.739  65.771  1.00  0.00    -0.294 OA 
ENDBRANCH   5   7
ENDBRANCH   4   5
BRANCH   4  12
HETATM   12  C   UNL     1      -9.003  10.449  64.323  1.00  0.00    -0.249 C  
HETATM   13  C   UNL     1      -9.197  11.231  63.043  1.00  0.00    -0.310 C  
HETATM   14  C   UNL     1      -9.088   9.736  62.993  1.00  0.00    -0.271 C  
ENDBRANCH   4  12
ENDBRANCH   3   4
TORSDOF 4
ENDMDL
MODEL      104
REMARK 921   NORMALIZED FREE ENERGY PREDICTED BY IDOCK:   -3.14 KCAL/MOL
REMARK 922        TOTAL FREE ENERGY PREDICTED BY IDOCK:   -4.31 KCAL/MOL
REMARK 923 INTER-LIGAND FREE ENERGY PREDICTED BY IDOCK:   -3.98 KCAL/MOL
REMARK 924 INTRA-LIGAND FREE ENERGY PREDICTED BY IDOCK:   -0.34 KCAL/MOL
REMARK 927      BINDING AFFINITY PREDICTED BY RF-SCORE:    0.00 PKD
ROOT
HETATM    1  C   UNL     1      -8.758  10.414  63.939  1.00  0.00    -0.202 C  
HETATM    2  C   UNL     1      -9.673  11.251  63.094  1.00  0.00    -0.408 C  
HETATM    3  C   UNL     1     -10.206  10.585  64.345  1.00  0.00    -0.337 C  
ENDROOT
BRANCH   3   4
HETATM    4  C   UNL     1     -10.533  11.357  65.603  1.00  0.00    -0.262 C  
BRANCH   4   5
HETATM    5  N   UNL     1     -11.610  12.283  65.331  1.00  0.00    -0.361 NA 
HETATM    6  H   UNL     1     -12.562  11.930  65.244  1.00  0.00     0.000 HD 
BRANCH   5   7
HETATM    7  C   UNL     1     -11.378  13.609  65.189  1.00  0.00    -0.309 A  
HETATM    8  N   UNL     1     -10.307  14.272  65.460  1.00  0.00    -0.335 NA 
HETATM    9  C   UNL     1     -10.622  15.648  65.083  1.00  0.00    -0.424 A  
HETATM   10  C   UNL     1     -11.993  15.590  64.450  1.00  0.00    -0.183 A  
HETATM   11  O   UNL     1     -12.439  14.261  64.660  1.00  0.00    -0.571 OA 
ENDBRANCH   5   7
ENDBRANCH   4   5
BRANCH   4  12
HETATM   12  C   UNL     1     -10.981  10.420  66.703  1.00  0.00    -0.067 C  
HETATM   13  C   UNL     1     -10.810  10.814  68.153  1.00  0.00    -0.284 C  
HETATM   14  C   UNL     1      -9.973   9.710  67.577  1.00  0.00    -0.231 C  
ENDBRANCH   4  12
ENDBRANCH   3   4
TORSDOF 4
ENDMDL
MODEL      105
REMARK 921   NORMALIZED FREE ENERGY PREDICTED BY IDOCK:   -3.14 KCAL/MOL
REMARK 922        TOTAL FREE ENERGY PREDICTED BY IDOCK:   -4.31 KCAL/MOL
REMARK 923 INTER-LIGAND FREE ENERGY PREDICTED BY IDOCK:   -3.93 KCAL/MOL
REMARK 924 INTRA-LIGAND FREE ENERGY PREDICTED BY IDOCK:   -0.38 KCAL/MOL
REMARK 927      BINDING AFFINITY PREDICTED BY RF-SCORE:    0.00 PKD
ROOT
HETATM    1  C   UNL     1      -6.865  20.721  67.352  1.00  0.00    -0.411 C  
HETATM    2  C   UNL     1      -6.538  20.088  68.672  1.00  0.00    -0.341 C  
HETATM    3  C   UNL     1      -7.892  19.847  68.039  1.00  0.00    -0.317 C  
ENDROOT
BRANCH   3   4
HETATM    4  C   UNL     1      -8.275  18.526  67.410  1.00  0.00    -0.251 C  
BRANCH   4   5
HETATM    5  N   UNL     1      -8.350  17.511  68.438  1.00  0.00    -0.270 NA 
HETATM    6  H   UNL     1      -9.091  17.561  69.137  1.00  0.00     0.000 HD 
BRANCH   5   7
HETATM    7  C   UNL     1      -7.456  16.497  68.491  1.00  0.00    -0.193 A  
HETATM    8  N   UNL     1      -7.298  15.519  67.666  1.00  0.00    -0.156 NA 
HETATM    9  C   UNL     1      -6.177  14.757  68.211  1.00  0.00    -0.124 A  
HETATM   10  C   UNL     1      -5.681  15.556  69.394  1.00  0.00    -0.111 A  
HETATM   11  O   UNL     1      -6.629  16.597  69.558  1.00  0.00    -0.220 OA 
ENDBRANCH   5   7
ENDBRANCH   4   5
BRANCH   4  12
HETATM   12  C   UNL     1      -9.629  18.625  66.743  1.00  0.00    -0.332 C  
HETATM   13  C   UNL     1     -10.130  19.959  66.236  1.00  0.00    -0.613 C  
HETATM   14  C   UNL     1     -10.783  19.322  67.427  1.00  0.00    -0.594 C  
ENDBRANCH   4  12
ENDBRANCH   3   4
TORSDOF 4
ENDMDL
MODEL      106
REMARK 921   NORMALIZED FREE ENERGY PREDICTED BY IDOCK:   -3.13 KCAL/MOL
REMARK 922        TOTAL FREE ENERGY PREDICTED BY IDOCK:   -4.31 KCAL/MOL
REMARK 923 INTER-LIGAND FREE ENERGY PREDICTED BY IDOCK:   -3.79 KCAL/MOL
REMARK 924 INTRA-LIGAND FREE ENERGY PREDICTED BY IDOCK:   -0.52 KCAL/MOL
REMARK 927      BINDING AFFINITY PREDICTED BY RF-SCORE:    0.00 PKD
ROOT
HETATM    1  C   UNL     1     -10.477  15.795  66.316  1.00  0.00    -0.315 C  
HETATM    2  C   UNL     1     -10.722  16.094  64.867  1.00  0.00    -0.297 C  
HETATM    3  C   UNL     1      -9.825  14.937  65.254  1.00  0.00    -0.242 C  
ENDROOT
BRANCH   3   4
HETATM    4  C   UNL     1     -10.250  13.493  65.109  1.00  0.00    -0.316 C  
BRANCH   4   5
HETATM    5  N   UNL     1     -10.694  12.993  66.392  1.00  0.00    -0.280 NA 
HETATM    6  H   UNL     1     -11.492  13.433  66.851  1.00  0.00     0.000 HD 
BRANCH   5   7
HETATM    7  C   UNL     1     -10.072  11.954  66.996  1.00  0.00    -0.205 A  
HETATM    8  N   UNL     1     -10.104  10.705  66.682  1.00  0.00    -0.212 NA 
HETATM    9  C   UNL     1      -9.231  10.059  67.659  1.00  0.00    -0.137 A  
HETATM   10  C   UNL     1      -8.629  11.183  68.471  1.00  0.00    -0.157 A  
HETATM   11  O   UNL     1      -9.310  12.350  68.042  1.00  0.00    -0.191 OA 
ENDBRANCH   5   7
ENDBRANCH   4   5
BRANCH   4  12
HETATM   12  C   UNL     1     -11.396  13.368  64.130  1.00  0.00    -0.398 C  
HETATM   13  C   UNL     1     -12.726  12.810  64.584  1.00  0.00    -0.439 C  
HETATM   14  C   UNL     1     -11.864  12.014  63.650  1.00  0.00    -0.602 C  
ENDBRANCH   4  12
ENDBRANCH   3   4
TORSDOF 4
ENDMDL
MODEL      107
REMARK 921   NORMALIZED FREE ENERGY PREDICTED BY IDOCK:   -3.13 KCAL/MOL
REMARK 922        TOTAL FREE ENERGY PREDICTED BY IDOCK:   -4.30 KCAL/MOL
REMARK 923 INTER-LIGAND FREE ENERGY PREDICTED BY IDOCK:   -4.17 KCAL/MOL
REMARK 924 INTRA-LIGAND FREE ENERGY PREDICTED BY IDOCK:   -0.14 KCAL/MOL
REMARK 927      BINDING AFFINITY PREDICTED BY RF-SCORE:    0.00 PKD
ROOT
HETATM    1  C   UNL     1     -11.209  11.872  66.074  1.00  0.00    -0.377 C  
HETATM    2  C   UNL     1     -11.324  12.891  67.168  1.00  0.00    -0.352 C  
HETATM    3  C   UNL     1     -11.632  11.438  67.460  1.00  0.00    -0.298 C  
ENDROOT
BRANCH   3   4
HETATM    4  C   UNL     1     -10.708  10.556  68.270  1.00  0.00    -0.229 C  
BRANCH   4   5
HETATM    5  N   UNL     1     -11.495   9.715  69.146  1.00  0.00    -0.454 NA 
HETATM    6  H   UNL     1     -11.577   8.720  68.941  1.00  0.00     0.000 HD 
BRANCH   5   7
HETATM    7  C   UNL     1     -12.124  10.224  70.230  1.00  0.00    -0.249 A  
HETATM    8  N   UNL     1     -12.266  11.458  70.574  1.00  0.00    -0.377 NA 
HETATM    9  C   UNL     1     -13.048  11.408  71.807  1.00  0.00    -0.418 A  
HETATM   10  C   UNL     1     -13.407   9.953  72.000  1.00  0.00    -0.432 A  
HETATM   11  O   UNL     1     -12.682   9.260  70.999  1.00  0.00    -0.270 OA 
ENDBRANCH   5   7
ENDBRANCH   4   5
BRANCH   4  12
HETATM   12  C   UNL     1      -9.892   9.662  67.364  1.00  0.00    -0.218 C  
HETATM   13  C   UNL     1     -10.210   8.187  67.264  1.00  0.00    -0.348 C  
HETATM   14  C   UNL     1      -8.945   8.633  67.936  1.00  0.00    -0.142 C  
ENDBRANCH   4  12
ENDBRANCH   3   4
TORSDOF 4
ENDMDL
MODEL      108
REMARK 921   NORMALIZED FREE ENERGY PREDICTED BY IDOCK:   -3.10 KCAL/MOL
REMARK 922        TOTAL FREE ENERGY PREDICTED BY IDOCK:   -4.26 KCAL/MOL
REMARK 923 INTER-LIGAND FREE ENERGY PREDICTED BY IDOCK:   -3.80 KCAL/MOL
REMARK 924 INTRA-LIGAND FREE ENERGY PREDICTED BY IDOCK:   -0.46 KCAL/MOL
REMARK 927      BINDING AFFINITY PREDICTED BY RF-SCORE:    0.00 PKD
ROOT
HETATM    1  C   UNL     1      -6.159  19.355  64.894  1.00  0.00    -0.312 C  
HETATM    2  C   UNL     1      -6.144  20.739  65.471  1.00  0.00    -0.277 C  
HETATM    3  C   UNL     1      -7.340  19.840  65.706  1.00  0.00    -0.331 C  
ENDROOT
BRANCH   3   4
HETATM    4  C   UNL     1      -7.628  19.200  67.044  1.00  0.00    -0.227 C  
BRANCH   4   5
HETATM    5  N   UNL     1      -7.651  17.761  66.892  1.00  0.00    -0.200 NA 
HETATM    6  H   UNL     1      -6.773  17.257  66.772  1.00  0.00     0.000 HD 
BRANCH   5   7
HETATM    7  C   UNL     1      -8.816  17.072  66.905  1.00  0.00    -0.230 A  
HETATM    8  N   UNL     1      -9.655  16.928  67.872  1.00  0.00    -0.240 NA 
HETATM    9  C   UNL     1     -10.729  16.113  67.307  1.00  0.00    -0.277 A  
HETATM   10  C   UNL     1     -10.386  15.950  65.844  1.00  0.00    -0.365 A  
HETATM   11  O   UNL     1      -9.091  16.508  65.706  1.00  0.00    -0.487 OA 
ENDBRANCH   5   7
ENDBRANCH   4   5
BRANCH   4  12
HETATM   12  C   UNL     1      -6.552  19.552  68.048  1.00  0.00    -0.269 C  
HETATM   13  C   UNL     1      -6.159  18.560  69.119  1.00  0.00    -0.247 C  
HETATM   14  C   UNL     1      -6.896  19.811  69.497  1.00  0.00    -0.340 C  
ENDBRANCH   4  12
ENDBRANCH   3   4
TORSDOF 4
ENDMDL
MODEL      109
REMARK 921   NORMALIZED FREE ENERGY PREDICTED BY IDOCK:   -3.09 KCAL/MOL
REMARK 922        TOTAL FREE ENERGY PREDICTED BY IDOCK:   -4.26 KCAL/MOL
REMARK 923 INTER-LIGAND FREE ENERGY PREDICTED BY IDOCK:   -3.82 KCAL/MOL
REMARK 924 INTRA-LIGAND FREE ENERGY PREDICTED BY IDOCK:   -0.44 KCAL/MOL
REMARK 927      BINDING AFFINITY PREDICTED BY RF-SCORE:    0.00 PKD
ROOT
HETATM    1  C   UNL     1      -9.365  15.720  65.889  1.00  0.00    -0.356 C  
HETATM    2  C   UNL     1     -10.719  16.236  65.503  1.00  0.00    -0.326 C  
HETATM    3  C   UNL     1     -10.386  14.774  65.295  1.00  0.00    -0.425 C  
ENDROOT
BRANCH   3   4
HETATM    4  C   UNL     1     -10.963  13.675  66.159  1.00  0.00    -0.284 C  
BRANCH   4   5
HETATM    5  N   UNL     1      -9.908  12.759  66.537  1.00  0.00    -0.252 NA 
HETATM    6  H   UNL     1      -9.180  13.073  67.178  1.00  0.00     0.000 HD 
BRANCH   5   7
HETATM    7  C   UNL     1      -9.869  11.495  66.056  1.00  0.00    -0.225 A  
HETATM    8  N   UNL     1      -9.421  11.079  64.921  1.00  0.00    -0.226 NA 
HETATM    9  C   UNL     1      -9.609   9.631  64.961  1.00  0.00    -0.214 A  
HETATM   10  C   UNL     1     -10.117   9.327  66.352  1.00  0.00    -0.267 A  
HETATM   11  O   UNL     1     -10.352  10.594  66.942  1.00  0.00    -0.217 OA 
ENDBRANCH   5   7
ENDBRANCH   4   5
BRANCH   4  12
HETATM   12  C   UNL     1     -11.566  14.249  67.422  1.00  0.00    -0.394 C  
HETATM   13  C   UNL     1     -10.794  14.203  68.721  1.00  0.00    -0.271 C  
HETATM   14  C   UNL     1     -12.014  13.347  68.549  1.00  0.00    -0.363 C  
ENDBRANCH   4  12
ENDBRANCH   3   4
TORSDOF 4
ENDMDL
MODEL      110
REMARK 921   NORMALIZED FREE ENERGY PREDICTED BY IDOCK:   -3.07 KCAL/MOL
REMARK 922        TOTAL FREE ENERGY PREDICTED BY IDOCK:   -4.23 KCAL/MOL
REMARK 923 INTER-LIGAND FREE ENERGY PREDICTED BY IDOCK:   -3.85 KCAL/MOL
REMARK 924 INTRA-LIGAND FREE ENERGY PREDICTED BY IDOCK:   -0.38 KCAL/MOL
REMARK 927      BINDING AFFINITY PREDICTED BY RF-SCORE:    0.00 PKD
ROOT
HETATM    1  C   UNL     1     -10.725  12.781  68.579  1.00  0.00    -0.275 C  
HETATM    2  C   UNL     1     -11.680  12.395  67.489  1.00  0.00    -0.425 C  
HETATM    3  C   UNL     1     -10.606  11.421  67.925  1.00  0.00    -0.224 C  
ENDROOT
BRANCH   3   4
HETATM    4  C   UNL     1     -10.909  10.183  68.738  1.00  0.00    -0.225 C  
BRANCH   4   5
HETATM    5  N   UNL     1      -9.816   9.244  68.606  1.00  0.00    -0.158 NA 
HETATM    6  H   UNL     1      -8.860   9.567  68.747  1.00  0.00     0.000 HD 
BRANCH   5   7
HETATM    7  C   UNL     1     -10.039   7.945  68.298  1.00  0.00    -0.194 A  
HETATM    8  N   UNL     1      -9.750   6.894  68.985  1.00  0.00    -0.150 NA 
HETATM    9  C   UNL     1     -10.244   5.781  68.177  1.00  0.00    -0.190 A  
HETATM   10  C   UNL     1     -10.954   6.416  67.004  1.00  0.00    -0.389 A  
HETATM   11  O   UNL     1     -10.677   7.802  67.113  1.00  0.00    -0.333 OA 
ENDBRANCH   5   7
ENDBRANCH   4   5
BRANCH   4  12
HETATM   12  C   UNL     1     -11.061  10.529  70.203  1.00  0.00    -0.369 C  
HETATM   13  C   UNL     1     -11.293   9.436  71.221  1.00  0.00    -0.436 C  
HETATM   14  C   UNL     1     -12.397  10.399  70.897  1.00  0.00    -0.480 C  
ENDBRANCH   4  12
ENDBRANCH   3   4
TORSDOF 4
ENDMDL
MODEL      111
REMARK 921   NORMALIZED FREE ENERGY PREDICTED BY IDOCK:   -3.07 KCAL/MOL
REMARK 922        TOTAL FREE ENERGY PREDICTED BY IDOCK:   -4.23 KCAL/MOL
REMARK 923 INTER-LIGAND FREE ENERGY PREDICTED BY IDOCK:   -3.84 KCAL/MOL
REMARK 924 INTRA-LIGAND FREE ENERGY PREDICTED BY IDOCK:   -0.39 KCAL/MOL
REMARK 927      BINDING AFFINITY PREDICTED BY RF-SCORE:    0.00 PKD
ROOT
HETATM    1  C   UNL     1      -8.025  18.992  67.087  1.00  0.00    -0.271 C  
HETATM    2  C   UNL     1      -7.642  18.995  68.537  1.00  0.00    -0.364 C  
HETATM    3  C   UNL     1      -8.984  18.434  68.116  1.00  0.00    -0.325 C  
ENDROOT
BRANCH   3   4
HETATM    4  C   UNL     1      -9.285  16.953  68.118  1.00  0.00    -0.234 C  
BRANCH   4   5
HETATM    5  N   UNL     1     -10.704  16.753  68.317  1.00  0.00    -0.351 NA 
HETATM    6  H   UNL     1     -11.364  17.158  67.653  1.00  0.00     0.000 HD 
BRANCH   5   7
HETATM    7  C   UNL     1     -11.173  16.039  69.366  1.00  0.00    -0.349 A  
HETATM    8  N   UNL     1     -10.525  15.578  70.380  1.00  0.00    -0.283 NA 
HETATM    9  C   UNL     1     -11.541  14.920  71.197  1.00  0.00    -0.298 A  
HETATM   10  C   UNL     1     -12.859  15.212  70.517  1.00  0.00    -0.348 A  
HETATM   11  O   UNL     1     -12.510  15.844  69.297  1.00  0.00    -0.089 OA 
ENDBRANCH   5   7
ENDBRANCH   4   5
BRANCH   4  12
HETATM   12  C   UNL     1      -8.900  16.328  66.795  1.00  0.00    -0.263 C  
HETATM   13  C   UNL     1      -9.956  15.693  65.919  1.00  0.00    -0.379 C  
HETATM   14  C   UNL     1      -8.938  14.830  66.603  1.00  0.00    -0.286 C  
ENDBRANCH   4  12
ENDBRANCH   3   4
TORSDOF 4
ENDMDL
MODEL      112
REMARK 921   NORMALIZED FREE ENERGY PREDICTED BY IDOCK:   -3.07 KCAL/MOL
REMARK 922        TOTAL FREE ENERGY PREDICTED BY IDOCK:   -4.22 KCAL/MOL
REMARK 923 INTER-LIGAND FREE ENERGY PREDICTED BY IDOCK:   -3.80 KCAL/MOL
REMARK 924 INTRA-LIGAND FREE ENERGY PREDICTED BY IDOCK:   -0.42 KCAL/MOL
REMARK 927      BINDING AFFINITY PREDICTED BY RF-SCORE:    0.00 PKD
ROOT
HETATM    1  C   UNL     1      -9.122  16.053  67.613  1.00  0.00    -0.200 C  
HETATM    2  C   UNL     1      -9.221  16.769  68.927  1.00  0.00    -0.234 C  
HETATM    3  C   UNL     1     -10.447  16.103  68.340  1.00  0.00    -0.274 C  
ENDROOT
BRANCH   3   4
HETATM    4  C   UNL     1     -11.030  14.826  68.902  1.00  0.00    -0.254 C  
BRANCH   4   5
HETATM    5  N   UNL     1     -10.079  13.749  68.729  1.00  0.00    -0.367 NA 
HETATM    6  H   UNL     1      -9.106  13.894  68.996  1.00  0.00     0.000 HD 
BRANCH   5   7
HETATM    7  C   UNL     1     -10.456  12.554  68.219  1.00  0.00    -0.234 A  
HETATM    8  N   UNL     1     -10.928  11.528  68.838  1.00  0.00    -0.216 NA 
HETATM    9  C   UNL     1     -11.179  10.547  67.785  1.00  0.00    -0.273 A  
HETATM   10  C   UNL     1     -10.881  11.261  66.487  1.00  0.00    -0.265 A  
HETATM   11  O   UNL     1     -10.324  12.506  66.873  1.00  0.00    -0.227 OA 
ENDBRANCH   5   7
ENDBRANCH   4   5
BRANCH   4  12
HETATM   12  C   UNL     1     -11.313  14.974  70.381  1.00  0.00    -0.309 C  
HETATM   13  C   UNL     1     -12.368  14.116  71.042  1.00  0.00    -0.438 C  
HETATM   14  C   UNL     1     -12.606  15.587  70.867  1.00  0.00    -0.512 C  
ENDBRANCH   4  12
ENDBRANCH   3   4
TORSDOF 4
ENDMDL
MODEL      113
REMARK 921   NORMALIZED FREE ENERGY PREDICTED BY IDOCK:   -3.07 KCAL/MOL
REMARK 922        TOTAL FREE ENERGY PREDICTED BY IDOCK:   -4.22 KCAL/MOL
REMARK 923 INTER-LIGAND FREE ENERGY PREDICTED BY IDOCK:   -4.18 KCAL/MOL
REMARK 924 INTRA-LIGAND FREE ENERGY PREDICTED BY IDOCK:   -0.04 KCAL/MOL
REMARK 927      BINDING AFFINITY PREDICTED BY RF-SCORE:    0.00 PKD
ROOT
HETATM    1  C   UNL     1      -8.487  12.124  68.362  1.00  0.00    -0.145 C  
HETATM    2  C   UNL     1      -8.394  11.595  66.962  1.00  0.00    -0.169 C  
HETATM    3  C   UNL     1      -9.609  12.392  67.383  1.00  0.00    -0.184 C  
ENDROOT
BRANCH   3   4
HETATM    4  C   UNL     1      -9.858  13.809  66.916  1.00  0.00    -0.264 C  
BRANCH   4   5
HETATM    5  N   UNL     1      -9.724  13.869  65.477  1.00  0.00    -0.529 NA 
HETATM    6  H   UNL     1      -8.947  14.389  65.069  1.00  0.00     0.000 HD 
BRANCH   5   7
HETATM    7  C   UNL     1     -10.608  13.250  64.662  1.00  0.00    -0.404 A  
HETATM    8  N   UNL     1     -10.722  11.992  64.404  1.00  0.00    -0.301 NA 
HETATM    9  C   UNL     1     -11.856  11.906  63.487  1.00  0.00    -0.460 A  
HETATM   10  C   UNL     1     -12.408  13.310  63.394  1.00  0.00    -0.324 A  
HETATM   11  O   UNL     1     -11.479  14.118  64.097  1.00  0.00    -0.304 OA 
ENDBRANCH   5   7
ENDBRANCH   4   5
BRANCH   4  12
HETATM   12  C   UNL     1     -11.257  14.253  67.280  1.00  0.00    -0.330 C  
HETATM   13  C   UNL     1     -11.470  15.267  68.381  1.00  0.00    -0.358 C  
HETATM   14  C   UNL     1     -11.887  13.842  68.591  1.00  0.00    -0.409 C  
ENDBRANCH   4  12
ENDBRANCH   3   4
TORSDOF 4
ENDMDL
MODEL      114
REMARK 921   NORMALIZED FREE ENERGY PREDICTED BY IDOCK:   -3.06 KCAL/MOL
REMARK 922        TOTAL FREE ENERGY PREDICTED BY IDOCK:   -4.22 KCAL/MOL
REMARK 923 INTER-LIGAND FREE ENERGY PREDICTED BY IDOCK:   -3.80 KCAL/MOL
REMARK 924 INTRA-LIGAND FREE ENERGY PREDICTED BY IDOCK:   -0.42 KCAL/MOL
REMARK 927      BINDING AFFINITY PREDICTED BY RF-SCORE:    0.00 PKD
ROOT
HETATM    1  C   UNL     1     -13.996   8.642  71.817  1.00  0.00    -0.492 C  
HETATM    2  C   UNL     1     -13.388  10.008  71.935  1.00  0.00    -0.516 C  
HETATM    3  C   UNL     1     -12.555   8.785  72.255  1.00  0.00    -0.460 C  
ENDROOT
BRANCH   3   4
HETATM    4  C   UNL     1     -11.454   8.288  71.346  1.00  0.00    -0.269 C  
BRANCH   4   5
HETATM    5  N   UNL     1     -10.543   9.374  71.057  1.00  0.00    -0.308 NA 
HETATM    6  H   UNL     1     -10.573  10.216  71.631  1.00  0.00     0.000 HD 
BRANCH   5   7
HETATM    7  C   UNL     1      -9.654   9.294  70.041  1.00  0.00    -0.209 A  
HETATM    8  N   UNL     1      -9.868   8.991  68.807  1.00  0.00    -0.167 NA 
HETATM    9  C   UNL     1      -8.555   9.091  68.172  1.00  0.00    -0.130 A  
HETATM   10  C   UNL     1      -7.627   9.618  69.242  1.00  0.00    -0.091 A  
HETATM   11  O   UNL     1      -8.399   9.616  70.431  1.00  0.00    -0.186 OA 
ENDBRANCH   5   7
ENDBRANCH   4   5
BRANCH   4  12
HETATM   12  C   UNL     1     -10.671   7.178  72.013  1.00  0.00    -0.243 C  
HETATM   13  C   UNL     1     -11.397   6.037  72.690  1.00  0.00    -0.320 C  
HETATM   14  C   UNL     1     -10.648   7.040  73.518  1.00  0.00    -0.405 C  
ENDBRANCH   4  12
ENDBRANCH   3   4
TORSDOF 4
ENDMDL
MODEL      115
REMARK 921   NORMALIZED FREE ENERGY PREDICTED BY IDOCK:   -3.05 KCAL/MOL
REMARK 922        TOTAL FREE ENERGY PREDICTED BY IDOCK:   -4.20 KCAL/MOL
REMARK 923 INTER-LIGAND FREE ENERGY PREDICTED BY IDOCK:   -3.82 KCAL/MOL
REMARK 924 INTRA-LIGAND FREE ENERGY PREDICTED BY IDOCK:   -0.39 KCAL/MOL
REMARK 927      BINDING AFFINITY PREDICTED BY RF-SCORE:    0.00 PKD
ROOT
HETATM    1  C   UNL     1      -6.812  15.763  69.279  1.00  0.00    -0.184 C  
HETATM    2  C   UNL     1      -6.994  17.122  68.670  1.00  0.00    -0.209 C  
HETATM    3  C   UNL     1      -7.647  15.917  68.026  1.00  0.00    -0.137 C  
ENDROOT
BRANCH   3   4
HETATM    4  C   UNL     1      -9.135  15.661  68.096  1.00  0.00    -0.181 C  
BRANCH   4   5
HETATM    5  N   UNL     1      -9.777  16.248  66.939  1.00  0.00    -0.232 NA 
HETATM    6  H   UNL     1      -9.905  15.683  66.100  1.00  0.00     0.000 HD 
BRANCH   5   7
HETATM    7  C   UNL     1     -10.208  17.530  66.949  1.00  0.00    -0.329 A  
HETATM    8  N   UNL     1     -10.505  18.271  67.961  1.00  0.00    -0.384 NA 
HETATM    9  C   UNL     1     -10.880  19.557  67.376  1.00  0.00    -0.414 A  
HETATM   10  C   UNL     1     -10.616  19.420  65.894  1.00  0.00    -0.459 A  
HETATM   11  O   UNL     1     -10.289  18.054  65.704  1.00  0.00    -0.611 OA 
ENDBRANCH   5   7
ENDBRANCH   4   5
BRANCH   4  12
HETATM   12  C   UNL     1      -9.423  14.176  68.094  1.00  0.00    -0.213 C  
HETATM   13  C   UNL     1      -8.728  13.269  67.104  1.00  0.00    -0.215 C  
HETATM   14  C   UNL     1     -10.197  13.536  66.965  1.00  0.00    -0.249 C  
ENDBRANCH   4  12
ENDBRANCH   3   4
TORSDOF 4
ENDMDL
MODEL      116
REMARK 921   NORMALIZED FREE ENERGY PREDICTED BY IDOCK:   -3.04 KCAL/MOL
REMARK 922        TOTAL FREE ENERGY PREDICTED BY IDOCK:   -4.19 KCAL/MOL
REMARK 923 INTER-LIGAND FREE ENERGY PREDICTED BY IDOCK:   -4.03 KCAL/MOL
REMARK 924 INTRA-LIGAND FREE ENERGY PREDICTED BY IDOCK:   -0.16 KCAL/MOL
REMARK 927      BINDING AFFINITY PREDICTED BY RF-SCORE:    0.00 PKD
ROOT
HETATM    1  C   UNL     1     -10.507  18.856  66.109  1.00  0.00    -0.521 C  
HETATM    2  C   UNL     1     -10.836  19.804  67.224  1.00  0.00    -0.469 C  
HETATM    3  C   UNL     1     -10.240  18.448  67.541  1.00  0.00    -0.393 C  
ENDROOT
BRANCH   3   4
HETATM    4  C   UNL     1      -8.812  18.274  68.005  1.00  0.00    -0.280 C  
BRANCH   4   5
HETATM    5  N   UNL     1      -8.491  16.864  68.048  1.00  0.00    -0.207 NA 
HETATM    6  H   UNL     1      -7.649  16.558  68.535  1.00  0.00     0.000 HD 
BRANCH   5   7
HETATM    7  C   UNL     1      -9.286  15.944  67.454  1.00  0.00    -0.201 A  
HETATM    8  N   UNL     1     -10.291  15.308  67.951  1.00  0.00    -0.243 NA 
HETATM    9  C   UNL     1     -10.776  14.474  66.854  1.00  0.00    -0.288 A  
HETATM   10  C   UNL     1      -9.943  14.859  65.653  1.00  0.00    -0.358 A  
HETATM   11  O   UNL     1      -8.946  15.730  66.162  1.00  0.00    -0.320 OA 
ENDBRANCH   5   7
ENDBRANCH   4   5
BRANCH   4  12
HETATM   12  C   UNL     1      -7.854  18.948  67.048  1.00  0.00    -0.253 C  
HETATM   13  C   UNL     1      -6.361  18.842  67.266  1.00  0.00    -0.189 C  
HETATM   14  C   UNL     1      -7.053  20.157  67.473  1.00  0.00    -0.311 C  
ENDBRANCH   4  12
ENDBRANCH   3   4
TORSDOF 4
ENDMDL
MODEL      117
REMARK 921   NORMALIZED FREE ENERGY PREDICTED BY IDOCK:   -3.03 KCAL/MOL
REMARK 922        TOTAL FREE ENERGY PREDICTED BY IDOCK:   -4.18 KCAL/MOL
REMARK 923 INTER-LIGAND FREE ENERGY PREDICTED BY IDOCK:   -3.79 KCAL/MOL
REMARK 924 INTRA-LIGAND FREE ENERGY PREDICTED BY IDOCK:   -0.40 KCAL/MOL
REMARK 927      BINDING AFFINITY PREDICTED BY RF-SCORE:    0.00 PKD
ROOT
HETATM    1  C   UNL     1     -10.370   5.068  66.298  1.00  0.00    -0.332 C  
HETATM    2  C   UNL     1      -9.757   4.295  67.428  1.00  0.00    -0.210 C  
HETATM    3  C   UNL     1      -9.518   5.786  67.322  1.00  0.00    -0.116 C  
ENDROOT
BRANCH   3   4
HETATM    4  C   UNL     1     -10.169   6.785  68.252  1.00  0.00    -0.175 C  
BRANCH   4   5
HETATM    5  N   UNL     1     -11.057   7.639  67.494  1.00  0.00    -0.511 NA 
HETATM    6  H   UNL     1     -12.011   7.330  67.311  1.00  0.00     0.000 HD 
BRANCH   5   7
HETATM    7  C   UNL     1     -10.646   8.839  67.023  1.00  0.00    -0.213 A  
HETATM    8  N   UNL     1      -9.967   9.095  65.957  1.00  0.00    -0.281 NA 
HETATM    9  C   UNL     1      -9.842  10.551  65.944  1.00  0.00    -0.234 A  
HETATM   10  C   UNL     1     -10.671  11.039  67.110  1.00  0.00    -0.265 A  
HETATM   11  O   UNL     1     -11.058   9.865  67.802  1.00  0.00    -0.269 OA 
ENDBRANCH   5   7
ENDBRANCH   4   5
BRANCH   4  12
HETATM   12  C   UNL     1     -10.984   6.076  69.311  1.00  0.00    -0.436 C  
HETATM   13  C   UNL     1     -11.498   6.838  70.511  1.00  0.00    -0.413 C  
HETATM   14  C   UNL     1     -10.414   5.816  70.686  1.00  0.00    -0.331 C  
ENDBRANCH   4  12
ENDBRANCH   3   4
TORSDOF 4
ENDMDL
MODEL      118
REMARK 921   NORMALIZED FREE ENERGY PREDICTED BY IDOCK:   -3.03 KCAL/MOL
REMARK 922        TOTAL FREE ENERGY PREDICTED BY IDOCK:   -4.18 KCAL/MOL
REMARK 923 INTER-LIGAND FREE ENERGY PREDICTED BY IDOCK:   -3.76 KCAL/MOL
REMARK 924 INTRA-LIGAND FREE ENERGY PREDICTED BY IDOCK:   -0.42 KCAL/MOL
REMARK 927      BINDING AFFINITY PREDICTED BY RF-SCORE:    0.00 PKD
ROOT
HETATM    1  C   UNL     1      -8.928  14.367  68.560  1.00  0.00    -0.187 C  
HETATM    2  C   UNL     1      -8.729  14.827  67.146  1.00  0.00    -0.241 C  
HETATM    3  C   UNL     1      -8.463  13.382  67.511  1.00  0.00    -0.192 C  
ENDROOT
BRANCH   3   4
HETATM    4  C   UNL     1      -9.383  12.254  67.099  1.00  0.00    -0.196 C  
BRANCH   4   5
HETATM    5  N   UNL     1      -9.382  12.137  65.657  1.00  0.00    -0.423 NA 
HETATM    6  H   UNL     1      -8.547  11.791  65.185  1.00  0.00     0.000 HD 
BRANCH   5   7
HETATM    7  C   UNL     1     -10.466  12.479  64.923  1.00  0.00    -0.303 A  
HETATM    8  N   UNL     1     -10.579  12.555  63.642  1.00  0.00    -0.433 NA 
HETATM    9  C   UNL     1     -11.970  12.941  63.419  1.00  0.00    -0.537 A  
HETATM   10  C   UNL     1     -12.616  12.937  64.786  1.00  0.00    -0.425 A  
HETATM   11  O   UNL     1     -11.548  12.734  65.695  1.00  0.00    -0.332 OA 
ENDBRANCH   5   7
ENDBRANCH   4   5
BRANCH   4  12
HETATM   12  C   UNL     1      -8.910  10.940  67.681  1.00  0.00    -0.133 C  
HETATM   13  C   UNL     1      -9.423  10.477  69.026  1.00  0.00    -0.211 C  
HETATM   14  C   UNL     1      -7.994  10.907  68.882  1.00  0.00    -0.146 C  
ENDBRANCH   4  12
ENDBRANCH   3   4
TORSDOF 4
ENDMDL
MODEL      119
REMARK 921   NORMALIZED FREE ENERGY PREDICTED BY IDOCK:   -3.03 KCAL/MOL
REMARK 922        TOTAL FREE ENERGY PREDICTED BY IDOCK:   -4.18 KCAL/MOL
REMARK 923 INTER-LIGAND FREE ENERGY PREDICTED BY IDOCK:   -3.75 KCAL/MOL
REMARK 924 INTRA-LIGAND FREE ENERGY PREDICTED BY IDOCK:   -0.42 KCAL/MOL
REMARK 927      BINDING AFFINITY PREDICTED BY RF-SCORE:    0.00 PKD
ROOT
HETATM    1  C   UNL     1     -11.854  13.250  67.305  1.00  0.00    -0.421 C  
HETATM    2  C   UNL     1     -10.785  13.293  68.356  1.00  0.00    -0.273 C  
HETATM    3  C   UNL     1     -11.588  12.026  68.153  1.00  0.00    -0.403 C  
ENDROOT
BRANCH   3   4
HETATM    4  C   UNL     1     -11.010  10.789  67.503  1.00  0.00    -0.312 C  
BRANCH   4   5
HETATM    5  N   UNL     1      -9.787  11.138  66.812  1.00  0.00    -0.196 NA 
HETATM    6  H   UNL     1      -9.020  11.557  67.337  1.00  0.00     0.000 HD 
BRANCH   5   7
HETATM    7  C   UNL     1      -9.643  10.919  65.485  1.00  0.00    -0.221 A  
HETATM    8  N   UNL     1      -8.789  10.165  64.882  1.00  0.00    -0.175 NA 
HETATM    9  C   UNL     1      -9.119  10.298  63.465  1.00  0.00    -0.264 A  
HETATM   10  C   UNL     1     -10.367  11.149  63.418  1.00  0.00    -0.360 A  
HETATM   11  O   UNL     1     -10.564  11.586  64.752  1.00  0.00    -0.277 OA 
ENDBRANCH   5   7
ENDBRANCH   4   5
BRANCH   4  12
HETATM   12  C   UNL     1     -10.683   9.741  68.544  1.00  0.00    -0.252 C  
HETATM   13  C   UNL     1     -11.028   9.980  69.996  1.00  0.00    -0.352 C  
HETATM   14  C   UNL     1      -9.592   9.972  69.563  1.00  0.00    -0.249 C  
ENDBRANCH   4  12
ENDBRANCH   3   4
TORSDOF 4
ENDMDL
MODEL      120
REMARK 921   NORMALIZED FREE ENERGY PREDICTED BY IDOCK:   -3.02 KCAL/MOL
REMARK 922        TOTAL FREE ENERGY PREDICTED BY IDOCK:   -4.17 KCAL/MOL
REMARK 923 INTER-LIGAND FREE ENERGY PREDICTED BY IDOCK:   -3.70 KCAL/MOL
REMARK 924 INTRA-LIGAND FREE ENERGY PREDICTED BY IDOCK:   -0.47 KCAL/MOL
REMARK 927      BINDING AFFINITY PREDICTED BY RF-SCORE:    0.00 PKD
ROOT
HETATM    1  C   UNL     1     -10.680   6.088  71.814  1.00  0.00    -0.294 C  
HETATM    2  C   UNL     1     -12.069   6.598  71.570  1.00  0.00    -0.406 C  
HETATM    3  C   UNL     1     -10.879   7.442  71.167  1.00  0.00    -0.258 C  
ENDROOT
BRANCH   3   4
HETATM    4  C   UNL     1     -10.469   7.639  69.725  1.00  0.00    -0.232 C  
BRANCH   4   5
HETATM    5  N   UNL     1     -11.302   6.817  68.874  1.00  0.00    -0.561 NA 
HETATM    6  H   UNL     1     -12.314   6.840  68.994  1.00  0.00     0.000 HD 
BRANCH   5   7
HETATM    7  C   UNL     1     -10.764   6.020  67.923  1.00  0.00    -0.284 A  
HETATM    8  N   UNL     1     -10.897   6.091  66.643  1.00  0.00    -0.274 NA 
HETATM    9  C   UNL     1     -10.076   4.998  66.127  1.00  0.00    -0.236 A  
HETATM   10  C   UNL     1      -9.383   4.408  67.333  1.00  0.00    -0.155 A  
HETATM   11  O   UNL     1      -9.968   5.059  68.448  1.00  0.00    -0.160 OA 
ENDBRANCH   5   7
ENDBRANCH   4   5
BRANCH   4  12
HETATM   12  C   UNL     1     -10.647   9.083  69.311  1.00  0.00    -0.226 C  
HETATM   13  C   UNL     1      -9.693  10.141  69.816  1.00  0.00    -0.232 C  
HETATM   14  C   UNL     1     -11.111  10.124  70.304  1.00  0.00    -0.384 C  
ENDBRANCH   4  12
ENDBRANCH   3   4
TORSDOF 4
ENDMDL
MODEL      121
REMARK 921   NORMALIZED FREE ENERGY PREDICTED BY IDOCK:   -3.01 KCAL/MOL
REMARK 922        TOTAL FREE ENERGY PREDICTED BY IDOCK:   -4.15 KCAL/MOL
REMARK 923 INTER-LIGAND FREE ENERGY PREDICTED BY IDOCK:   -3.88 KCAL/MOL
REMARK 924 INTRA-LIGAND FREE ENERGY PREDICTED BY IDOCK:   -0.27 KCAL/MOL
REMARK 927      BINDING AFFINITY PREDICTED BY RF-SCORE:    0.00 PKD
ROOT
HETATM    1  C   UNL     1      -9.604   9.977  69.490  1.00  0.00    -0.249 C  
HETATM    2  C   UNL     1     -10.728   8.989  69.582  1.00  0.00    -0.228 C  
HETATM    3  C   UNL     1     -11.004  10.396  69.098  1.00  0.00    -0.285 C  
ENDROOT
BRANCH   3   4
HETATM    4  C   UNL     1     -11.300  10.718  67.650  1.00  0.00    -0.252 C  
BRANCH   4   5
HETATM    5  N   UNL     1     -11.831  12.060  67.557  1.00  0.00    -0.574 NA 
HETATM    6  H   UNL     1     -12.647  12.235  66.971  1.00  0.00     0.000 HD 
BRANCH   5   7
HETATM    7  C   UNL     1     -11.266  13.088  68.231  1.00  0.00    -0.275 A  
HETATM    8  N   UNL     1     -10.131  13.661  68.022  1.00  0.00    -0.243 NA 
HETATM    9  C   UNL     1     -10.060  14.715  69.031  1.00  0.00    -0.209 A  
HETATM   10  C   UNL     1     -11.397  14.692  69.734  1.00  0.00    -0.275 A  
HETATM   11  O   UNL     1     -12.061  13.548  69.225  1.00  0.00    -0.322 OA 
ENDBRANCH   5   7
ENDBRANCH   4   5
BRANCH   4  12
HETATM   12  C   UNL     1     -10.038  10.649  66.820  1.00  0.00    -0.272 C  
HETATM   13  C   UNL     1     -10.086  10.946  65.338  1.00  0.00    -0.336 C  
HETATM   14  C   UNL     1      -9.833   9.545  65.808  1.00  0.00    -0.363 C  
ENDBRANCH   4  12
ENDBRANCH   3   4
TORSDOF 4
ENDMDL
MODEL      122
REMARK 921   NORMALIZED FREE ENERGY PREDICTED BY IDOCK:   -3.00 KCAL/MOL
REMARK 922        TOTAL FREE ENERGY PREDICTED BY IDOCK:   -4.15 KCAL/MOL
REMARK 923 INTER-LIGAND FREE ENERGY PREDICTED BY IDOCK:   -3.85 KCAL/MOL
REMARK 924 INTRA-LIGAND FREE ENERGY PREDICTED BY IDOCK:   -0.30 KCAL/MOL
REMARK 927      BINDING AFFINITY PREDICTED BY RF-SCORE:    0.00 PKD
ROOT
HETATM    1  C   UNL     1      -9.975  11.106  68.755  1.00  0.00    -0.207 C  
HETATM    2  C   UNL     1     -11.242  10.318  68.904  1.00  0.00    -0.259 C  
HETATM    3  C   UNL     1     -11.296  11.733  68.368  1.00  0.00    -0.328 C  
ENDROOT
BRANCH   3   4
HETATM    4  C   UNL     1     -11.567  12.044  66.913  1.00  0.00    -0.318 C  
BRANCH   4   5
HETATM    5  N   UNL     1     -11.990  13.422  66.789  1.00  0.00    -0.396 NA 
HETATM    6  H   UNL     1     -12.729  13.660  66.128  1.00  0.00     0.000 HD 
BRANCH   5   7
HETATM    7  C   UNL     1     -11.425  14.401  67.532  1.00  0.00    -0.349 A  
HETATM    8  N   UNL     1     -10.262  14.940  67.402  1.00  0.00    -0.233 NA 
HETATM    9  C   UNL     1     -10.205  15.949  68.457  1.00  0.00    -0.226 A  
HETATM   10  C   UNL     1     -11.575  15.947  69.094  1.00  0.00    -0.379 A  
HETATM   11  O   UNL     1     -12.252  14.849  68.505  1.00  0.00    -0.194 OA 
ENDBRANCH   5   7
ENDBRANCH   4   5
BRANCH   4  12
HETATM   12  C   UNL     1     -10.316  11.856  66.085  1.00  0.00    -0.261 C  
HETATM   13  C   UNL     1     -10.322  12.197  64.612  1.00  0.00    -0.328 C  
HETATM   14  C   UNL     1     -10.230  10.764  65.044  1.00  0.00    -0.373 C  
ENDBRANCH   4  12
ENDBRANCH   3   4
TORSDOF 4
ENDMDL
MODEL      123
REMARK 921   NORMALIZED FREE ENERGY PREDICTED BY IDOCK:   -2.99 KCAL/MOL
REMARK 922        TOTAL FREE ENERGY PREDICTED BY IDOCK:   -4.13 KCAL/MOL
REMARK 923 INTER-LIGAND FREE ENERGY PREDICTED BY IDOCK:   -3.77 KCAL/MOL
REMARK 924 INTRA-LIGAND FREE ENERGY PREDICTED BY IDOCK:   -0.36 KCAL/MOL
REMARK 927      BINDING AFFINITY PREDICTED BY RF-SCORE:    0.00 PKD
ROOT
HETATM    1  C   UNL     1      -8.218   8.140  72.699  1.00  0.00    -0.227 C  
HETATM    2  C   UNL     1      -8.777   6.892  73.315  1.00  0.00    -0.145 C  
HETATM    3  C   UNL     1      -9.613   8.154  73.284  1.00  0.00    -0.261 C  
ENDROOT
BRANCH   3   4
HETATM    4  C   UNL     1     -10.798   8.325  72.360  1.00  0.00    -0.351 C  
BRANCH   4   5
HETATM    5  N   UNL     1     -10.359   8.939  71.126  1.00  0.00    -0.243 NA 
HETATM    6  H   UNL     1      -9.562   8.544  70.627  1.00  0.00     0.000 HD 
BRANCH   5   7
HETATM    7  C   UNL     1     -10.984  10.028  70.622  1.00  0.00    -0.322 A  
HETATM    8  N   UNL     1     -10.598  10.811  69.674  1.00  0.00    -0.212 NA 
HETATM    9  C   UNL     1     -11.677  11.788  69.542  1.00  0.00    -0.343 A  
HETATM   10  C   UNL     1     -12.759  11.325  70.490  1.00  0.00    -0.174 A  
HETATM   11  O   UNL     1     -12.180  10.252  71.213  1.00  0.00    -0.346 OA 
ENDBRANCH   5   7
ENDBRANCH   4   5
BRANCH   4  12
HETATM   12  C   UNL     1     -11.414   6.984  72.027  1.00  0.00    -0.308 C  
HETATM   13  C   UNL     1     -11.784   6.651  70.600  1.00  0.00    -0.452 C  
HETATM   14  C   UNL     1     -12.864   6.876  71.616  1.00  0.00    -0.383 C  
ENDBRANCH   4  12
ENDBRANCH   3   4
TORSDOF 4
ENDMDL
MODEL      124
REMARK 921   NORMALIZED FREE ENERGY PREDICTED BY IDOCK:   -2.99 KCAL/MOL
REMARK 922        TOTAL FREE ENERGY PREDICTED BY IDOCK:   -4.13 KCAL/MOL
REMARK 923 INTER-LIGAND FREE ENERGY PREDICTED BY IDOCK:   -3.75 KCAL/MOL
REMARK 924 INTRA-LIGAND FREE ENERGY PREDICTED BY IDOCK:   -0.38 KCAL/MOL
REMARK 927      BINDING AFFINITY PREDICTED BY RF-SCORE:    0.00 PKD
ROOT
HETATM    1  C   UNL     1      -8.867   8.104  73.120  1.00  0.00    -0.325 C  
HETATM    2  C   UNL     1      -9.307   6.827  72.467  1.00  0.00    -0.151 C  
HETATM    3  C   UNL     1     -10.343   7.825  72.939  1.00  0.00    -0.396 C  
ENDROOT
BRANCH   3   4
HETATM    4  C   UNL     1     -11.144   8.683  71.986  1.00  0.00    -0.367 C  
BRANCH   4   5
HETATM    5  N   UNL     1     -11.145   8.070  70.675  1.00  0.00    -0.260 NA 
HETATM    6  H   UNL     1     -11.540   7.136  70.561  1.00  0.00     0.000 HD 
BRANCH   5   7
HETATM    7  C   UNL     1     -10.634   8.710  69.599  1.00  0.00    -0.218 A  
HETATM    8  N   UNL     1     -10.342   8.228  68.440  1.00  0.00    -0.209 NA 
HETATM    9  C   UNL     1      -9.856   9.376  67.678  1.00  0.00    -0.174 A  
HETATM   10  C   UNL     1     -10.051  10.573  68.579  1.00  0.00    -0.173 A  
HETATM   11  O   UNL     1     -10.455  10.032  69.826  1.00  0.00    -0.222 OA 
ENDBRANCH   5   7
ENDBRANCH   4   5
BRANCH   4  12
HETATM   12  C   UNL     1     -12.578   8.805  72.453  1.00  0.00    -0.430 C  
HETATM   13  C   UNL     1     -13.711   8.392  71.542  1.00  0.00    -0.356 C  
HETATM   14  C   UNL     1     -13.502   9.843  71.859  1.00  0.00    -0.467 C  
ENDBRANCH   4  12
ENDBRANCH   3   4
TORSDOF 4
ENDMDL
MODEL      125
REMARK 921   NORMALIZED FREE ENERGY PREDICTED BY IDOCK:   -2.98 KCAL/MOL
REMARK 922        TOTAL FREE ENERGY PREDICTED BY IDOCK:   -4.12 KCAL/MOL
REMARK 923 INTER-LIGAND FREE ENERGY PREDICTED BY IDOCK:   -3.74 KCAL/MOL
REMARK 924 INTRA-LIGAND FREE ENERGY PREDICTED BY IDOCK:   -0.38 KCAL/MOL
REMARK 927      BINDING AFFINITY PREDICTED BY RF-SCORE:    0.00 PKD
ROOT
HETATM    1  C   UNL     1      -8.106   8.579  67.479  1.00  0.00    -0.107 C  
HETATM    2  C   UNL     1      -9.377   8.724  66.696  1.00  0.00    -0.242 C  
HETATM    3  C   UNL     1      -9.364   7.890  67.960  1.00  0.00    -0.152 C  
ENDROOT
BRANCH   3   4
HETATM    4  C   UNL     1     -10.011   8.349  69.247  1.00  0.00    -0.195 C  
BRANCH   4   5
HETATM    5  N   UNL     1     -11.282   8.972  68.948  1.00  0.00    -0.409 NA 
HETATM    6  H   UNL     1     -12.037   8.407  68.560  1.00  0.00     0.000 HD 
BRANCH   5   7
HETATM    7  C   UNL     1     -11.490  10.290  69.175  1.00  0.00    -0.147 A  
HETATM    8  N   UNL     1     -11.430  10.934  70.289  1.00  0.00    -0.311 NA 
HETATM    9  C   UNL     1     -11.717  12.321  69.927  1.00  0.00    -0.273 A  
HETATM   10  C   UNL     1     -11.817  12.333  68.419  1.00  0.00    -0.304 A  
HETATM   11  O   UNL     1     -11.763  10.969  68.036  1.00  0.00    -0.532 OA 
ENDBRANCH   5   7
ENDBRANCH   4   5
BRANCH   4  12
HETATM   12  C   UNL     1     -10.263   7.175  70.167  1.00  0.00    -0.204 C  
HETATM   13  C   UNL     1     -10.755   5.861  69.603  1.00  0.00    -0.415 C  
HETATM   14  C   UNL     1     -11.669   6.698  70.449  1.00  0.00    -0.446 C  
ENDBRANCH   4  12
ENDBRANCH   3   4
TORSDOF 4
ENDMDL
MODEL      126
REMARK 921   NORMALIZED FREE ENERGY PREDICTED BY IDOCK:   -2.98 KCAL/MOL
REMARK 922        TOTAL FREE ENERGY PREDICTED BY IDOCK:   -4.11 KCAL/MOL
REMARK 923 INTER-LIGAND FREE ENERGY PREDICTED BY IDOCK:   -3.71 KCAL/MOL
REMARK 924 INTRA-LIGAND FREE ENERGY PREDICTED BY IDOCK:   -0.40 KCAL/MOL
REMARK 927      BINDING AFFINITY PREDICTED BY RF-SCORE:    0.00 PKD
ROOT
HETATM    1  C   UNL     1      -7.876   7.601  74.132  1.00  0.00    -0.208 C  
HETATM    2  C   UNL     1      -8.684   6.407  74.544  1.00  0.00    -0.163 C  
HETATM    3  C   UNL     1      -9.378   7.613  73.947  1.00  0.00    -0.270 C  
ENDROOT
BRANCH   3   4
HETATM    4  C   UNL     1      -9.949   7.617  72.547  1.00  0.00    -0.208 C  
BRANCH   4   5
HETATM    5  N   UNL     1     -10.983   8.624  72.454  1.00  0.00    -0.321 NA 
HETATM    6  H   UNL     1     -10.754   9.596  72.661  1.00  0.00     0.000 HD 
BRANCH   5   7
HETATM    7  C   UNL     1     -12.248   8.302  72.098  1.00  0.00    -0.364 A  
HETATM    8  N   UNL     1     -12.693   7.186  71.631  1.00  0.00    -0.369 NA 
HETATM    9  C   UNL     1     -14.127   7.407  71.458  1.00  0.00    -0.409 A  
HETATM   10  C   UNL     1     -14.396   8.782  72.025  1.00  0.00    -0.377 A  
HETATM   11  O   UNL     1     -13.116   9.318  72.313  1.00  0.00    -0.412 OA 
ENDBRANCH   5   7
ENDBRANCH   4   5
BRANCH   4  12
HETATM   12  C   UNL     1      -8.875   7.945  71.534  1.00  0.00    -0.160 C  
HETATM   13  C   UNL     1      -8.966   9.214  70.715  1.00  0.00    -0.296 C  
HETATM   14  C   UNL     1      -9.161   7.883  70.051  1.00  0.00    -0.153 C  
ENDBRANCH   4  12
ENDBRANCH   3   4
TORSDOF 4
ENDMDL
MODEL      127
REMARK 921   NORMALIZED FREE ENERGY PREDICTED BY IDOCK:   -2.98 KCAL/MOL
REMARK 922        TOTAL FREE ENERGY PREDICTED BY IDOCK:   -4.11 KCAL/MOL
REMARK 923 INTER-LIGAND FREE ENERGY PREDICTED BY IDOCK:   -3.83 KCAL/MOL
REMARK 924 INTRA-LIGAND FREE ENERGY PREDICTED BY IDOCK:   -0.28 KCAL/MOL
REMARK 927      BINDING AFFINITY PREDICTED BY RF-SCORE:    0.00 PKD
ROOT
HETATM    1  C   UNL     1     -13.171  11.527  71.992  1.00  0.00    -0.443 C  
HETATM    2  C   UNL     1     -13.740  10.142  72.071  1.00  0.00    -0.204 C  
HETATM    3  C   UNL     1     -13.011  10.584  70.820  1.00  0.00    -0.413 C  
ENDROOT
BRANCH   3   4
HETATM    4  C   UNL     1     -11.630  10.083  70.460  1.00  0.00    -0.323 C  
BRANCH   4   5
HETATM    5  N   UNL     1     -11.579   8.648  70.640  1.00  0.00    -0.400 NA 
HETATM    6  H   UNL     1     -12.083   8.046  69.990  1.00  0.00     0.000 HD 
BRANCH   5   7
HETATM    7  C   UNL     1     -10.877   8.091  71.653  1.00  0.00    -0.237 A  
HETATM    8  N   UNL     1      -9.859   8.567  72.283  1.00  0.00    -0.309 NA 
HETATM    9  C   UNL     1      -9.540   7.551  73.284  1.00  0.00    -0.254 A  
HETATM   10  C   UNL     1     -10.631   6.512  73.168  1.00  0.00    -0.265 A  
HETATM   11  O   UNL     1     -11.380   6.891  72.026  1.00  0.00    -0.248 OA 
ENDBRANCH   5   7
ENDBRANCH   4   5
BRANCH   4  12
HETATM   12  C   UNL     1     -11.310  10.391  69.014  1.00  0.00    -0.279 C  
HETATM   13  C   UNL     1     -10.468   9.433  68.202  1.00  0.00    -0.267 C  
HETATM   14  C   UNL     1      -9.910  10.770  68.592  1.00  0.00    -0.187 C  
ENDBRANCH   4  12
ENDBRANCH   3   4
TORSDOF 4
ENDMDL
MODEL      128
REMARK 921   NORMALIZED FREE ENERGY PREDICTED BY IDOCK:   -2.97 KCAL/MOL
REMARK 922        TOTAL FREE ENERGY PREDICTED BY IDOCK:   -4.11 KCAL/MOL
REMARK 923 INTER-LIGAND FREE ENERGY PREDICTED BY IDOCK:   -3.97 KCAL/MOL
REMARK 924 INTRA-LIGAND FREE ENERGY PREDICTED BY IDOCK:   -0.14 KCAL/MOL
REMARK 927      BINDING AFFINITY PREDICTED BY RF-SCORE:    0.00 PKD
ROOT
HETATM    1  C   UNL     1      -9.995   5.612  73.238  1.00  0.00    -0.191 C  
HETATM    2  C   UNL     1     -11.207   4.730  73.201  1.00  0.00    -0.390 C  
HETATM    3  C   UNL     1     -11.166   5.985  72.355  1.00  0.00    -0.338 C  
ENDROOT
BRANCH   3   4
HETATM    4  C   UNL     1     -10.997   5.951  70.853  1.00  0.00    -0.265 C  
BRANCH   4   5
HETATM    5  N   UNL     1     -12.046   6.732  70.236  1.00  0.00    -0.617 NA 
HETATM    6  H   UNL     1     -12.174   6.686  69.225  1.00  0.00     0.000 HD 
BRANCH   5   7
HETATM    7  C   UNL     1     -12.860   7.523  70.972  1.00  0.00    -0.135 A  
HETATM    8  N   UNL     1     -14.007   7.239  71.488  1.00  0.00    -0.399 NA 
HETATM    9  C   UNL     1     -14.404   8.456  72.191  1.00  0.00    -0.427 A  
HETATM   10  C   UNL     1     -13.226   9.396  72.071  1.00  0.00    -0.449 A  
HETATM   11  O   UNL     1     -12.330   8.749  71.184  1.00  0.00    -0.288 OA 
ENDBRANCH   5   7
ENDBRANCH   4   5
BRANCH   4  12
HETATM   12  C   UNL     1      -9.665   6.545  70.451  1.00  0.00    -0.186 C  
HETATM   13  C   UNL     1      -9.594   7.567  69.339  1.00  0.00    -0.155 C  
HETATM   14  C   UNL     1      -9.026   6.195  69.128  1.00  0.00    -0.126 C  
ENDBRANCH   4  12
ENDBRANCH   3   4
TORSDOF 4
ENDMDL
MODEL      129
REMARK 921   NORMALIZED FREE ENERGY PREDICTED BY IDOCK:   -2.97 KCAL/MOL
REMARK 922        TOTAL FREE ENERGY PREDICTED BY IDOCK:   -4.10 KCAL/MOL
REMARK 923 INTER-LIGAND FREE ENERGY PREDICTED BY IDOCK:   -3.67 KCAL/MOL
REMARK 924 INTRA-LIGAND FREE ENERGY PREDICTED BY IDOCK:   -0.43 KCAL/MOL
REMARK 927      BINDING AFFINITY PREDICTED BY RF-SCORE:    0.00 PKD
ROOT
HETATM    1  C   UNL     1      -8.211   7.292  69.455  1.00  0.00    -0.131 C  
HETATM    2  C   UNL     1      -9.519   6.571  69.315  1.00  0.00    -0.141 C  
HETATM    3  C   UNL     1      -9.404   7.739  70.272  1.00  0.00    -0.156 C  
ENDROOT
BRANCH   3   4
HETATM    4  C   UNL     1     -10.026   9.088  69.991  1.00  0.00    -0.188 C  
BRANCH   4   5
HETATM    5  N   UNL     1     -10.905   8.981  68.847  1.00  0.00    -0.415 NA 
HETATM    6  H   UNL     1     -11.739   8.398  68.910  1.00  0.00     0.000 HD 
BRANCH   5   7
HETATM    7  C   UNL     1     -10.641   9.638  67.694  1.00  0.00    -0.275 A  
HETATM    8  N   UNL     1     -10.202   9.164  66.579  1.00  0.00    -0.274 NA 
HETATM    9  C   UNL     1     -10.136  10.321  65.689  1.00  0.00    -0.271 A  
HETATM   10  C   UNL     1     -10.729  11.469  66.473  1.00  0.00    -0.273 A  
HETATM   11  O   UNL     1     -10.926  10.958  67.780  1.00  0.00    -0.239 OA 
ENDBRANCH   5   7
ENDBRANCH   4   5
BRANCH   4  12
HETATM   12  C   UNL     1     -10.844   9.555  71.174  1.00  0.00    -0.425 C  
HETATM   13  C   UNL     1     -12.139   8.858  71.525  1.00  0.00    -0.395 C  
HETATM   14  C   UNL     1     -12.170  10.253  70.975  1.00  0.00    -0.487 C  
ENDBRANCH   4  12
ENDBRANCH   3   4
TORSDOF 4
ENDMDL
MODEL      130
REMARK 921   NORMALIZED FREE ENERGY PREDICTED BY IDOCK:   -2.95 KCAL/MOL
REMARK 922        TOTAL FREE ENERGY PREDICTED BY IDOCK:   -4.08 KCAL/MOL
REMARK 923 INTER-LIGAND FREE ENERGY PREDICTED BY IDOCK:   -3.70 KCAL/MOL
REMARK 924 INTRA-LIGAND FREE ENERGY PREDICTED BY IDOCK:   -0.38 KCAL/MOL
REMARK 927      BINDING AFFINITY PREDICTED BY RF-SCORE:    0.00 PKD
ROOT
HETATM    1  C   UNL     1      -8.570  15.733  69.101  1.00  0.00    -0.256 C  
HETATM    2  C   UNL     1      -7.582  15.823  67.977  1.00  0.00    -0.134 C  
HETATM    3  C   UNL     1      -8.437  14.583  68.128  1.00  0.00    -0.157 C  
ENDROOT
BRANCH   3   4
HETATM    4  C   UNL     1      -9.586  14.266  67.198  1.00  0.00    -0.245 C  
BRANCH   4   5
HETATM    5  N   UNL     1     -10.837  14.512  67.882  1.00  0.00    -0.252 NA 
HETATM    6  H   UNL     1     -11.363  15.360  67.672  1.00  0.00     0.000 HD 
BRANCH   5   7
HETATM    7  C   UNL     1     -11.323  13.640  68.795  1.00  0.00    -0.289 A  
HETATM    8  N   UNL     1     -11.898  13.889  69.921  1.00  0.00    -0.312 NA 
HETATM    9  C   UNL     1     -12.231  12.574  70.462  1.00  0.00    -0.297 A  
HETATM   10  C   UNL     1     -11.852  11.585  69.385  1.00  0.00    -0.350 A  
HETATM   11  O   UNL     1     -11.181  12.353  68.401  1.00  0.00    -0.233 OA 
ENDBRANCH   5   7
ENDBRANCH   4   5
BRANCH   4  12
HETATM   12  C   UNL     1      -9.538  15.146  65.969  1.00  0.00    -0.365 C  
HETATM   13  C   UNL     1     -10.469  16.331  65.846  1.00  0.00    -0.359 C  
HETATM   14  C   UNL     1     -10.664  15.136  64.961  1.00  0.00    -0.451 C  
ENDBRANCH   4  12
ENDBRANCH   3   4
TORSDOF 4
ENDMDL
MODEL      131
REMARK 921   NORMALIZED FREE ENERGY PREDICTED BY IDOCK:   -2.92 KCAL/MOL
REMARK 922        TOTAL FREE ENERGY PREDICTED BY IDOCK:   -4.05 KCAL/MOL
REMARK 923 INTER-LIGAND FREE ENERGY PREDICTED BY IDOCK:   -3.89 KCAL/MOL
REMARK 924 INTRA-LIGAND FREE ENERGY PREDICTED BY IDOCK:   -0.16 KCAL/MOL
REMARK 927      BINDING AFFINITY PREDICTED BY RF-SCORE:    0.00 PKD
ROOT
HETATM    1  C   UNL     1      -8.832   8.607  71.826  1.00  0.00    -0.281 C  
HETATM    2  C   UNL     1      -9.759   8.164  72.918  1.00  0.00    -0.340 C  
HETATM    3  C   UNL     1     -10.318   8.856  71.693  1.00  0.00    -0.416 C  
ENDROOT
BRANCH   3   4
HETATM    4  C   UNL     1     -11.096   8.121  70.625  1.00  0.00    -0.254 C  
BRANCH   4   5
HETATM    5  N   UNL     1     -12.137   8.985  70.111  1.00  0.00    -0.312 NA 
HETATM    6  H   UNL     1     -12.749   8.643  69.370  1.00  0.00     0.000 HD 
BRANCH   5   7
HETATM    7  C   UNL     1     -12.313  10.237  70.592  1.00  0.00    -0.325 A  
HETATM    8  N   UNL     1     -11.833  11.346  70.146  1.00  0.00    -0.337 NA 
HETATM    9  C   UNL     1     -12.375  12.367  71.039  1.00  0.00    -0.210 A  
HETATM   10  C   UNL     1     -13.324  11.635  71.961  1.00  0.00    -0.300 A  
HETATM   11  O   UNL     1     -13.136  10.262  71.667  1.00  0.00    -0.395 OA 
ENDBRANCH   5   7
ENDBRANCH   4   5
BRANCH   4  12
HETATM   12  C   UNL     1     -10.192   7.734  69.476  1.00  0.00    -0.207 C  
HETATM   13  C   UNL     1     -10.408   8.332  68.104  1.00  0.00    -0.253 C  
HETATM   14  C   UNL     1     -10.703   6.880  68.339  1.00  0.00    -0.259 C  
ENDBRANCH   4  12
ENDBRANCH   3   4
TORSDOF 4
ENDMDL
MODEL      132
REMARK 921   NORMALIZED FREE ENERGY PREDICTED BY IDOCK:   -2.92 KCAL/MOL
REMARK 922        TOTAL FREE ENERGY PREDICTED BY IDOCK:   -4.05 KCAL/MOL
REMARK 923 INTER-LIGAND FREE ENERGY PREDICTED BY IDOCK:   -3.71 KCAL/MOL
REMARK 924 INTRA-LIGAND FREE ENERGY PREDICTED BY IDOCK:   -0.34 KCAL/MOL
REMARK 927      BINDING AFFINITY PREDICTED BY RF-SCORE:    0.00 PKD
ROOT
HETATM    1  C   UNL     1     -10.554   7.761  67.108  1.00  0.00    -0.401 C  
HETATM    2  C   UNL     1     -11.002   6.345  66.900  1.00  0.00    -0.413 C  
HETATM    3  C   UNL     1      -9.831   6.635  67.815  1.00  0.00    -0.144 C  
ENDROOT
BRANCH   3   4
HETATM    4  C   UNL     1      -9.926   6.528  69.320  1.00  0.00    -0.153 C  
BRANCH   4   5
HETATM    5  N   UNL     1     -11.319   6.492  69.711  1.00  0.00    -0.467 NA 
HETATM    6  H   UNL     1     -11.944   5.816  69.272  1.00  0.00     0.000 HD 
BRANCH   5   7
HETATM    7  C   UNL     1     -11.808   7.337  70.647  1.00  0.00    -0.252 A  
HETATM    8  N   UNL     1     -12.894   7.237  71.334  1.00  0.00    -0.382 NA 
HETATM    9  C   UNL     1     -12.891   8.414  72.199  1.00  0.00    -0.346 A  
HETATM   10  C   UNL     1     -11.565   9.096  71.951  1.00  0.00    -0.360 A  
HETATM   11  O   UNL     1     -10.987   8.391  70.865  1.00  0.00    -0.232 OA 
ENDBRANCH   5   7
ENDBRANCH   4   5
BRANCH   4  12
HETATM   12  C   UNL     1      -9.265   5.257  69.808  1.00  0.00    -0.167 C  
HETATM   13  C   UNL     1      -9.890   4.458  70.929  1.00  0.00    -0.266 C  
HETATM   14  C   UNL     1      -8.606   5.197  71.166  1.00  0.00    -0.128 C  
ENDBRANCH   4  12
ENDBRANCH   3   4
TORSDOF 4
ENDMDL
MODEL      133
REMARK 921   NORMALIZED FREE ENERGY PREDICTED BY IDOCK:   -2.92 KCAL/MOL
REMARK 922        TOTAL FREE ENERGY PREDICTED BY IDOCK:   -4.05 KCAL/MOL
REMARK 923 INTER-LIGAND FREE ENERGY PREDICTED BY IDOCK:   -3.73 KCAL/MOL
REMARK 924 INTRA-LIGAND FREE ENERGY PREDICTED BY IDOCK:   -0.32 KCAL/MOL
REMARK 927      BINDING AFFINITY PREDICTED BY RF-SCORE:    0.00 PKD
ROOT
HETATM    1  C   UNL     1     -12.346  13.912  66.806  1.00  0.00    -0.370 C  
HETATM    2  C   UNL     1     -11.185  14.808  66.492  1.00  0.00    -0.342 C  
HETATM    3  C   UNL     1     -11.744  14.769  67.898  1.00  0.00    -0.367 C  
ENDROOT
BRANCH   3   4
HETATM    4  C   UNL     1     -11.020  14.101  69.045  1.00  0.00    -0.261 C  
BRANCH   4   5
HETATM    5  N   UNL     1      -9.749  14.759  69.258  1.00  0.00    -0.380 NA 
HETATM    6  H   UNL     1      -9.706  15.577  69.865  1.00  0.00     0.000 HD 
BRANCH   5   7
HETATM    7  C   UNL     1      -8.618  14.311  68.668  1.00  0.00    -0.149 A  
HETATM    8  N   UNL     1      -7.524  14.950  68.435  1.00  0.00    -0.109 NA 
HETATM    9  C   UNL     1      -6.648  13.963  67.807  1.00  0.00    -0.176 A  
HETATM   10  C   UNL     1      -7.409  12.658  67.855  1.00  0.00    -0.116 A  
HETATM   11  O   UNL     1      -8.701  13.004  68.327  1.00  0.00    -0.186 OA 
ENDBRANCH   5   7
ENDBRANCH   4   5
BRANCH   4  12
HETATM   12  C   UNL     1     -11.828  14.207  70.320  1.00  0.00    -0.373 C  
HETATM   13  C   UNL     1     -12.754  15.382  70.537  1.00  0.00    -0.455 C  
HETATM   14  C   UNL     1     -11.505  15.256  71.359  1.00  0.00    -0.444 C  
ENDBRANCH   4  12
ENDBRANCH   3   4
TORSDOF 4
ENDMDL
MODEL      134
REMARK 921   NORMALIZED FREE ENERGY PREDICTED BY IDOCK:   -2.86 KCAL/MOL
REMARK 922        TOTAL FREE ENERGY PREDICTED BY IDOCK:   -3.97 KCAL/MOL
REMARK 923 INTER-LIGAND FREE ENERGY PREDICTED BY IDOCK:   -3.69 KCAL/MOL
REMARK 924 INTRA-LIGAND FREE ENERGY PREDICTED BY IDOCK:   -0.28 KCAL/MOL
REMARK 927      BINDING AFFINITY PREDICTED BY RF-SCORE:    0.00 PKD
ROOT
HETATM    1  C   UNL     1     -11.885  12.540  67.543  1.00  0.00    -0.389 C  
HETATM    2  C   UNL     1     -11.662  13.891  66.932  1.00  0.00    -0.425 C  
HETATM    3  C   UNL     1     -10.512  12.911  67.025  1.00  0.00    -0.244 C  
ENDROOT
BRANCH   3   4
HETATM    4  C   UNL     1      -9.957  12.187  65.820  1.00  0.00    -0.249 C  
BRANCH   4   5
HETATM    5  N   UNL     1     -10.299  10.783  65.905  1.00  0.00    -0.254 NA 
HETATM    6  H   UNL     1     -10.919  10.377  65.205  1.00  0.00     0.000 HD 
BRANCH   5   7
HETATM    7  C   UNL     1      -9.811  10.000  66.894  1.00  0.00    -0.197 A  
HETATM    8  N   UNL     1     -10.457   9.257  67.725  1.00  0.00    -0.247 NA 
HETATM    9  C   UNL     1      -9.420   8.628  68.539  1.00  0.00    -0.142 A  
HETATM   10  C   UNL     1      -8.107   9.061  67.927  1.00  0.00    -0.106 A  
HETATM   11  O   UNL     1      -8.459  10.022  66.946  1.00  0.00    -0.124 OA 
ENDBRANCH   5   7
ENDBRANCH   4   5
BRANCH   4  12
HETATM   12  C   UNL     1     -10.551  12.742  64.544  1.00  0.00    -0.383 C  
HETATM   13  C   UNL     1     -11.658  11.995  63.834  1.00  0.00    -0.536 C  
HETATM   14  C   UNL     1     -10.295  12.073  63.213  1.00  0.00    -0.398 C  
ENDBRANCH   4  12
ENDBRANCH   3   4
TORSDOF 4
ENDMDL
MODEL      135
REMARK 921   NORMALIZED FREE ENERGY PREDICTED BY IDOCK:   -2.86 KCAL/MOL
REMARK 922        TOTAL FREE ENERGY PREDICTED BY IDOCK:   -3.97 KCAL/MOL
REMARK 923 INTER-LIGAND FREE ENERGY PREDICTED BY IDOCK:   -3.49 KCAL/MOL
REMARK 924 INTRA-LIGAND FREE ENERGY PREDICTED BY IDOCK:   -0.48 KCAL/MOL
REMARK 927      BINDING AFFINITY PREDICTED BY RF-SCORE:    0.00 PKD
ROOT
HETATM    1  C   UNL     1     -10.975  16.368  68.482  1.00  0.00    -0.350 C  
HETATM    2  C   UNL     1     -11.814  15.394  69.255  1.00  0.00    -0.365 C  
HETATM    3  C   UNL     1     -11.636  15.213  67.762  1.00  0.00    -0.303 C  
ENDROOT
BRANCH   3   4
HETATM    4  C   UNL     1     -10.773  14.121  67.170  1.00  0.00    -0.280 C  
BRANCH   4   5
HETATM    5  N   UNL     1     -10.611  13.060  68.140  1.00  0.00    -0.238 NA 
HETATM    6  H   UNL     1     -11.426  12.718  68.648  1.00  0.00     0.000 HD 
BRANCH   5   7
HETATM    7  C   UNL     1      -9.398  12.514  68.387  1.00  0.00    -0.149 A  
HETATM    8  N   UNL     1      -9.101  11.279  68.603  1.00  0.00    -0.170 NA 
HETATM    9  C   UNL     1      -7.650  11.276  68.779  1.00  0.00    -0.130 A  
HETATM   10  C   UNL     1      -7.205  12.693  68.498  1.00  0.00    -0.113 A  
HETATM   11  O   UNL     1      -8.406  13.434  68.361  1.00  0.00    -0.159 OA 
ENDBRANCH   5   7
ENDBRANCH   4   5
BRANCH   4  12
HETATM   12  C   UNL     1     -11.423  13.538  65.935  1.00  0.00    -0.338 C  
HETATM   13  C   UNL     1     -11.891  14.448  64.821  1.00  0.00    -0.439 C  
HETATM   14  C   UNL     1     -12.898  13.730  65.669  1.00  0.00    -0.456 C  
ENDBRANCH   4  12
ENDBRANCH   3   4
TORSDOF 4
ENDMDL
MODEL      136
REMARK 921   NORMALIZED FREE ENERGY PREDICTED BY IDOCK:   -2.85 KCAL/MOL
REMARK 922        TOTAL FREE ENERGY PREDICTED BY IDOCK:   -3.96 KCAL/MOL
REMARK 923 INTER-LIGAND FREE ENERGY PREDICTED BY IDOCK:   -3.57 KCAL/MOL
REMARK 924 INTRA-LIGAND FREE ENERGY PREDICTED BY IDOCK:   -0.39 KCAL/MOL
REMARK 927      BINDING AFFINITY PREDICTED BY RF-SCORE:    0.00 PKD
ROOT
HETATM    1  C   UNL     1     -10.023   3.637  71.621  1.00  0.00    -0.196 C  
HETATM    2  C   UNL     1     -10.336   4.130  73.002  1.00  0.00    -0.239 C  
HETATM    3  C   UNL     1      -9.730   5.076  71.987  1.00  0.00    -0.214 C  
ENDROOT
BRANCH   3   4
HETATM    4  C   UNL     1     -10.523   6.181  71.327  1.00  0.00    -0.224 C  
BRANCH   4   5
HETATM    5  N   UNL     1     -10.970   5.738  70.024  1.00  0.00    -0.337 NA 
HETATM    6  H   UNL     1     -11.534   4.892  69.950  1.00  0.00     0.000 HD 
BRANCH   5   7
HETATM    7  C   UNL     1     -10.652   6.424  68.901  1.00  0.00    -0.252 A  
HETATM    8  N   UNL     1     -11.154   6.311  67.720  1.00  0.00    -0.329 NA 
HETATM    9  C   UNL     1     -10.451   7.315  66.925  1.00  0.00    -0.299 A  
HETATM   10  C   UNL     1      -9.579   8.068  67.903  1.00  0.00    -0.155 A  
HETATM   11  O   UNL     1      -9.696   7.356  69.123  1.00  0.00    -0.162 OA 
ENDBRANCH   5   7
ENDBRANCH   4   5
BRANCH   4  12
HETATM   12  C   UNL     1     -11.743   6.529  72.151  1.00  0.00    -0.353 C  
HETATM   13  C   UNL     1     -12.966   7.119  71.487  1.00  0.00    -0.431 C  
HETATM   14  C   UNL     1     -12.130   7.969  72.396  1.00  0.00    -0.374 C  
ENDBRANCH   4  12
ENDBRANCH   3   4
TORSDOF 4
ENDMDL
MODEL      137
REMARK 921   NORMALIZED FREE ENERGY PREDICTED BY IDOCK:   -2.84 KCAL/MOL
REMARK 922        TOTAL FREE ENERGY PREDICTED BY IDOCK:   -3.95 KCAL/MOL
REMARK 923 INTER-LIGAND FREE ENERGY PREDICTED BY IDOCK:   -3.53 KCAL/MOL
REMARK 924 INTRA-LIGAND FREE ENERGY PREDICTED BY IDOCK:   -0.42 KCAL/MOL
REMARK 927      BINDING AFFINITY PREDICTED BY RF-SCORE:    0.00 PKD
ROOT
HETATM    1  C   UNL     1     -10.840  17.009  68.757  1.00  0.00    -0.258 C  
HETATM    2  C   UNL     1     -10.993  16.196  70.008  1.00  0.00    -0.364 C  
HETATM    3  C   UNL     1     -11.510  15.654  68.692  1.00  0.00    -0.381 C  
ENDROOT
BRANCH   3   4
HETATM    4  C   UNL     1     -10.827  14.528  67.949  1.00  0.00    -0.256 C  
BRANCH   4   5
HETATM    5  N   UNL     1      -9.771  13.982  68.773  1.00  0.00    -0.371 NA 
HETATM    6  H   UNL     1      -9.999  13.606  69.693  1.00  0.00     0.000 HD 
BRANCH   5   7
HETATM    7  C   UNL     1      -8.487  13.961  68.348  1.00  0.00    -0.159 A  
HETATM    8  N   UNL     1      -7.752  12.943  68.054  1.00  0.00    -0.129 NA 
HETATM    9  C   UNL     1      -6.478  13.520  67.633  1.00  0.00    -0.160 A  
HETATM   10  C   UNL     1      -6.692  15.016  67.630  1.00  0.00    -0.177 A  
HETATM   11  O   UNL     1      -7.974  15.205  68.204  1.00  0.00    -0.119 OA 
ENDBRANCH   5   7
ENDBRANCH   4   5
BRANCH   4  12
HETATM   12  C   UNL     1     -11.808  13.419  67.641  1.00  0.00    -0.394 C  
HETATM   13  C   UNL     1     -11.903  12.214  68.549  1.00  0.00    -0.365 C  
HETATM   14  C   UNL     1     -11.328  12.065  67.171  1.00  0.00    -0.396 C  
ENDBRANCH   4  12
ENDBRANCH   3   4
TORSDOF 4
ENDMDL
MODEL      138
REMARK 921   NORMALIZED FREE ENERGY PREDICTED BY IDOCK:   -2.84 KCAL/MOL
REMARK 922        TOTAL FREE ENERGY PREDICTED BY IDOCK:   -3.94 KCAL/MOL
REMARK 923 INTER-LIGAND FREE ENERGY PREDICTED BY IDOCK:   -3.55 KCAL/MOL
REMARK 924 INTRA-LIGAND FREE ENERGY PREDICTED BY IDOCK:   -0.39 KCAL/MOL
REMARK 927      BINDING AFFINITY PREDICTED BY RF-SCORE:    0.00 PKD
ROOT
HETATM    1  C   UNL     1      -8.820  10.542  63.934  1.00  0.00    -0.203 C  
HETATM    2  C   UNL     1      -9.810  11.408  63.213  1.00  0.00    -0.428 C  
HETATM    3  C   UNL     1     -10.230  10.673  64.468  1.00  0.00    -0.399 C  
ENDROOT
BRANCH   3   4
HETATM    4  C   UNL     1     -10.456  11.374  65.788  1.00  0.00    -0.262 C  
BRANCH   4   5
HETATM    5  N   UNL     1      -9.222  11.384  66.543  1.00  0.00    -0.184 NA 
HETATM    6  H   UNL     1      -8.382  11.777  66.122  1.00  0.00     0.000 HD 
BRANCH   5   7
HETATM    7  C   UNL     1      -9.162  10.880  67.798  1.00  0.00    -0.153 A  
HETATM    8  N   UNL     1     -10.093  10.308  68.481  1.00  0.00    -0.159 NA 
HETATM    9  C   UNL     1      -9.453   9.949  69.744  1.00  0.00    -0.226 A  
HETATM   10  C   UNL     1      -7.996  10.311  69.577  1.00  0.00    -0.165 A  
HETATM   11  O   UNL     1      -7.928  10.998  68.339  1.00  0.00    -0.116 OA 
ENDBRANCH   5   7
ENDBRANCH   4   5
BRANCH   4  12
HETATM   12  C   UNL     1     -10.885  12.808  65.564  1.00  0.00    -0.301 C  
HETATM   13  C   UNL     1     -11.722  13.521  66.603  1.00  0.00    -0.425 C  
HETATM   14  C   UNL     1     -12.330  13.151  65.282  1.00  0.00    -0.532 C  
ENDBRANCH   4  12
ENDBRANCH   3   4
TORSDOF 4
ENDMDL
MODEL      139
REMARK 921   NORMALIZED FREE ENERGY PREDICTED BY IDOCK:   -2.83 KCAL/MOL
REMARK 922        TOTAL FREE ENERGY PREDICTED BY IDOCK:   -3.93 KCAL/MOL
REMARK 923 INTER-LIGAND FREE ENERGY PREDICTED BY IDOCK:   -3.49 KCAL/MOL
REMARK 924 INTRA-LIGAND FREE ENERGY PREDICTED BY IDOCK:   -0.44 KCAL/MOL
REMARK 927      BINDING AFFINITY PREDICTED BY RF-SCORE:    0.00 PKD
ROOT
HETATM    1  C   UNL     1      -8.187   7.973  72.448  1.00  0.00    -0.193 C  
HETATM    2  C   UNL     1      -8.074   6.511  72.764  1.00  0.00    -0.106 C  
HETATM    3  C   UNL     1      -9.442   7.147  72.633  1.00  0.00    -0.174 C  
ENDROOT
BRANCH   3   4
HETATM    4  C   UNL     1     -10.345   6.902  71.446  1.00  0.00    -0.201 C  
BRANCH   4   5
HETATM    5  N   UNL     1     -10.731   8.171  70.867  1.00  0.00    -0.217 NA 
HETATM    6  H   UNL     1     -10.180   8.558  70.101  1.00  0.00     0.000 HD 
BRANCH   5   7
HETATM    7  C   UNL     1     -11.807   8.852  71.322  1.00  0.00    -0.310 A  
HETATM    8  N   UNL     1     -11.962  10.126  71.440  1.00  0.00    -0.374 NA 
HETATM    9  C   UNL     1     -13.321  10.285  71.953  1.00  0.00    -0.383 A  
HETATM   10  C   UNL     1     -13.911   8.894  71.973  1.00  0.00    -0.456 A  
HETATM   11  O   UNL     1     -12.832   8.032  71.653  1.00  0.00    -0.318 OA 
ENDBRANCH   5   7
ENDBRANCH   4   5
BRANCH   4  12
HETATM   12  C   UNL     1      -9.626   6.097  70.385  1.00  0.00    -0.188 C  
HETATM   13  C   UNL     1     -10.258   5.896  69.026  1.00  0.00    -0.261 C  
HETATM   14  C   UNL     1     -10.132   4.735  69.968  1.00  0.00    -0.308 C  
ENDBRANCH   4  12
ENDBRANCH   3   4
TORSDOF 4
ENDMDL
MODEL      140
REMARK 921   NORMALIZED FREE ENERGY PREDICTED BY IDOCK:   -2.82 KCAL/MOL
REMARK 922        TOTAL FREE ENERGY PREDICTED BY IDOCK:   -3.92 KCAL/MOL
REMARK 923 INTER-LIGAND FREE ENERGY PREDICTED BY IDOCK:   -3.53 KCAL/MOL
REMARK 924 INTRA-LIGAND FREE ENERGY PREDICTED BY IDOCK:   -0.39 KCAL/MOL
REMARK 927      BINDING AFFINITY PREDICTED BY RF-SCORE:    0.00 PKD
ROOT
HETATM    1  C   UNL     1     -12.515  11.452  70.480  1.00  0.00    -0.381 C  
HETATM    2  C   UNL     1     -11.445  10.405  70.552  1.00  0.00    -0.431 C  
HETATM    3  C   UNL     1     -11.662  11.169  69.263  1.00  0.00    -0.401 C  
ENDROOT
BRANCH   3   4
HETATM    4  C   UNL     1     -10.702  12.229  68.772  1.00  0.00    -0.214 C  
BRANCH   4   5
HETATM    5  N   UNL     1     -10.334  11.944  67.402  1.00  0.00    -0.205 NA 
HETATM    6  H   UNL     1     -10.611  12.592  66.665  1.00  0.00     0.000 HD 
BRANCH   5   7
HETATM    7  C   UNL     1      -9.630  10.835  67.080  1.00  0.00    -0.169 A  
HETATM    8  N   UNL     1      -8.506  10.427  67.560  1.00  0.00    -0.115 NA 
HETATM    9  C   UNL     1      -8.244   9.169  66.863  1.00  0.00    -0.116 A  
HETATM   10  C   UNL     1      -9.472   8.909  66.022  1.00  0.00    -0.252 A  
HETATM   11  O   UNL     1     -10.257  10.083  66.145  1.00  0.00    -0.247 OA 
ENDBRANCH   5   7
ENDBRANCH   4   5
BRANCH   4  12
HETATM   12  C   UNL     1     -11.349  13.596  68.813  1.00  0.00    -0.326 C  
HETATM   13  C   UNL     1     -11.885  14.222  67.545  1.00  0.00    -0.429 C  
HETATM   14  C   UNL     1     -10.666  14.798  68.203  1.00  0.00    -0.247 C  
ENDBRANCH   4  12
ENDBRANCH   3   4
TORSDOF 4
ENDMDL
MODEL      141
REMARK 921   NORMALIZED FREE ENERGY PREDICTED BY IDOCK:   -2.80 KCAL/MOL
REMARK 922        TOTAL FREE ENERGY PREDICTED BY IDOCK:   -3.90 KCAL/MOL
REMARK 923 INTER-LIGAND FREE ENERGY PREDICTED BY IDOCK:   -3.72 KCAL/MOL
REMARK 924 INTRA-LIGAND FREE ENERGY PREDICTED BY IDOCK:   -0.18 KCAL/MOL
REMARK 927      BINDING AFFINITY PREDICTED BY RF-SCORE:    0.00 PKD
ROOT
HETATM    1  C   UNL     1     -10.886  12.804  68.476  1.00  0.00    -0.279 C  
HETATM    2  C   UNL     1     -12.032  12.696  67.514  1.00  0.00    -0.314 C  
HETATM    3  C   UNL     1     -11.213  11.467  67.847  1.00  0.00    -0.352 C  
ENDROOT
BRANCH   3   4
HETATM    4  C   UNL     1     -11.738  10.350  68.721  1.00  0.00    -0.037 C  
BRANCH   4   5
HETATM    5  N   UNL     1     -10.989   9.141  68.454  1.00  0.00    -0.466 NA 
HETATM    6  H   UNL     1     -11.191   8.299  68.993  1.00  0.00     0.000 HD 
BRANCH   5   7
HETATM    7  C   UNL     1     -10.026   9.106  67.504  1.00  0.00    -0.205 A  
HETATM    8  N   UNL     1     -10.152   8.902  66.238  1.00  0.00    -0.275 NA 
HETATM    9  C   UNL     1      -8.792   9.003  65.713  1.00  0.00    -0.179 A  
HETATM   10  C   UNL     1      -7.935   9.417  66.887  1.00  0.00    -0.109 A  
HETATM   11  O   UNL     1      -8.796   9.354  68.011  1.00  0.00    -0.124 OA 
ENDBRANCH   5   7
ENDBRANCH   4   5
BRANCH   4  12
HETATM   12  C   UNL     1     -11.574  10.694  70.185  1.00  0.00    -0.414 C  
HETATM   13  C   UNL     1     -11.905   9.671  71.248  1.00  0.00    -0.460 C  
HETATM   14  C   UNL     1     -12.779  10.879  71.078  1.00  0.00    -0.505 C  
ENDBRANCH   4  12
ENDBRANCH   3   4
TORSDOF 4
ENDMDL
MODEL      142
REMARK 921   NORMALIZED FREE ENERGY PREDICTED BY IDOCK:   -2.78 KCAL/MOL
REMARK 922        TOTAL FREE ENERGY PREDICTED BY IDOCK:   -3.87 KCAL/MOL
REMARK 923 INTER-LIGAND FREE ENERGY PREDICTED BY IDOCK:   -3.42 KCAL/MOL
REMARK 924 INTRA-LIGAND FREE ENERGY PREDICTED BY IDOCK:   -0.44 KCAL/MOL
REMARK 927      BINDING AFFINITY PREDICTED BY RF-SCORE:    0.00 PKD
ROOT
HETATM    1  C   UNL     1      -7.345   8.163  66.176  1.00  0.00    -0.070 C  
HETATM    2  C   UNL     1      -8.111   8.657  64.985  1.00  0.00    -0.143 C  
HETATM    3  C   UNL     1      -8.776   7.718  65.968  1.00  0.00    -0.184 C  
ENDROOT
BRANCH   3   4
HETATM    4  C   UNL     1      -9.839   8.174  66.941  1.00  0.00    -0.247 C  
BRANCH   4   5
HETATM    5  N   UNL     1     -10.477   9.368  66.429  1.00  0.00    -0.159 NA 
HETATM    6  H   UNL     1     -10.812   9.381  65.466  1.00  0.00     0.000 HD 
BRANCH   5   7
HETATM    7  C   UNL     1     -10.637  10.466  67.202  1.00  0.00    -0.261 A  
HETATM    8  N   UNL     1     -11.711  10.908  67.762  1.00  0.00    -0.565 NA 
HETATM    9  C   UNL     1     -11.282  12.101  68.487  1.00  0.00    -0.260 A  
HETATM   10  C   UNL     1      -9.781  12.156  68.326  1.00  0.00    -0.216 A  
HETATM   11  O   UNL     1      -9.473  11.128  67.400  1.00  0.00    -0.163 OA 
ENDBRANCH   5   7
ENDBRANCH   4   5
BRANCH   4  12
HETATM   12  C   UNL     1     -10.899   7.108  67.114  1.00  0.00    -0.403 C  
HETATM   13  C   UNL     1     -10.829   6.150  68.281  1.00  0.00    -0.387 C  
HETATM   14  C   UNL     1     -10.576   5.649  66.890  1.00  0.00    -0.367 C  
ENDBRANCH   4  12
ENDBRANCH   3   4
TORSDOF 4
ENDMDL
MODEL      143
REMARK 921   NORMALIZED FREE ENERGY PREDICTED BY IDOCK:   -2.78 KCAL/MOL
REMARK 922        TOTAL FREE ENERGY PREDICTED BY IDOCK:   -3.86 KCAL/MOL
REMARK 923 INTER-LIGAND FREE ENERGY PREDICTED BY IDOCK:   -3.39 KCAL/MOL
REMARK 924 INTRA-LIGAND FREE ENERGY PREDICTED BY IDOCK:   -0.48 KCAL/MOL
REMARK 927      BINDING AFFINITY PREDICTED BY RF-SCORE:    0.00 PKD
ROOT
HETATM    1  C   UNL     1     -12.372   6.855  71.214  1.00  0.00    -0.422 C  
HETATM    2  C   UNL     1     -11.453   6.269  70.184  1.00  0.00    -0.452 C  
HETATM    3  C   UNL     1     -10.881   7.092  71.319  1.00  0.00    -0.260 C  
ENDROOT
BRANCH   3   4
HETATM    4  C   UNL     1     -10.115   6.476  72.468  1.00  0.00    -0.172 C  
BRANCH   4   5
HETATM    5  N   UNL     1      -9.686   7.521  73.372  1.00  0.00    -0.267 NA 
HETATM    6  H   UNL     1     -10.386   8.107  73.826  1.00  0.00     0.000 HD 
BRANCH   5   7
HETATM    7  C   UNL     1      -8.375   7.735  73.627  1.00  0.00    -0.207 A  
HETATM    8  N   UNL     1      -7.821   8.749  74.196  1.00  0.00    -0.376 NA 
HETATM    9  C   UNL     1      -6.397   8.422  74.224  1.00  0.00    -0.131 A  
HETATM   10  C   UNL     1      -6.295   7.012  73.689  1.00  0.00    -0.066 A  
HETATM   11  O   UNL     1      -7.600   6.697  73.235  1.00  0.00    -0.091 OA 
ENDBRANCH   5   7
ENDBRANCH   4   5
BRANCH   4  12
HETATM   12  C   UNL     1     -10.991   5.513  73.239  1.00  0.00    -0.339 C  
HETATM   13  C   UNL     1     -10.414   4.709  74.382  1.00  0.00    -0.330 C  
HETATM   14  C   UNL     1     -10.805   4.019  73.109  1.00  0.00    -0.274 C  
ENDBRANCH   4  12
ENDBRANCH   3   4
TORSDOF 4
ENDMDL
MODEL      144
REMARK 921   NORMALIZED FREE ENERGY PREDICTED BY IDOCK:   -2.77 KCAL/MOL
REMARK 922        TOTAL FREE ENERGY PREDICTED BY IDOCK:   -3.86 KCAL/MOL
REMARK 923 INTER-LIGAND FREE ENERGY PREDICTED BY IDOCK:   -3.48 KCAL/MOL
REMARK 924 INTRA-LIGAND FREE ENERGY PREDICTED BY IDOCK:   -0.38 KCAL/MOL
REMARK 927      BINDING AFFINITY PREDICTED BY RF-SCORE:    0.00 PKD
ROOT
HETATM    1  C   UNL     1     -10.745   6.608  71.795  1.00  0.00    -0.257 C  
HETATM    2  C   UNL     1     -12.079   7.023  72.340  1.00  0.00    -0.127 C  
HETATM    3  C   UNL     1     -11.051   8.077  71.987  1.00  0.00    -0.353 C  
ENDROOT
BRANCH   3   4
HETATM    4  C   UNL     1     -11.181   8.968  70.772  1.00  0.00    -0.275 C  
BRANCH   4   5
HETATM    5  N   UNL     1     -11.125   8.157  69.575  1.00  0.00    -0.439 NA 
HETATM    6  H   UNL     1     -11.769   7.374  69.472  1.00  0.00     0.000 HD 
BRANCH   5   7
HETATM    7  C   UNL     1     -10.234   8.418  68.590  1.00  0.00    -0.201 A  
HETATM    8  N   UNL     1      -8.947   8.388  68.641  1.00  0.00    -0.140 NA 
HETATM    9  C   UNL     1      -8.519   8.729  67.286  1.00  0.00    -0.111 A  
HETATM   10  C   UNL     1      -9.788   8.825  66.472  1.00  0.00    -0.279 A  
HETATM   11  O   UNL     1     -10.839   8.715  67.417  1.00  0.00    -0.211 OA 
ENDBRANCH   5   7
ENDBRANCH   4   5
BRANCH   4  12
HETATM   12  C   UNL     1     -12.505   9.700  70.786  1.00  0.00    -0.246 C  
HETATM   13  C   UNL     1     -12.551  11.191  70.535  1.00  0.00    -0.360 C  
HETATM   14  C   UNL     1     -12.852  10.656  71.904  1.00  0.00    -0.487 C  
ENDBRANCH   4  12
ENDBRANCH   3   4
TORSDOF 4
ENDMDL
MODEL      145
REMARK 921   NORMALIZED FREE ENERGY PREDICTED BY IDOCK:   -2.75 KCAL/MOL
REMARK 922        TOTAL FREE ENERGY PREDICTED BY IDOCK:   -3.83 KCAL/MOL
REMARK 923 INTER-LIGAND FREE ENERGY PREDICTED BY IDOCK:   -3.41 KCAL/MOL
REMARK 924 INTRA-LIGAND FREE ENERGY PREDICTED BY IDOCK:   -0.42 KCAL/MOL
REMARK 927      BINDING AFFINITY PREDICTED BY RF-SCORE:    0.00 PKD
ROOT
HETATM    1  C   UNL     1     -11.727   5.477  72.353  1.00  0.00    -0.182 C  
HETATM    2  C   UNL     1     -10.741   5.583  73.478  1.00  0.00    -0.322 C  
HETATM    3  C   UNL     1     -10.275   5.778  72.051  1.00  0.00    -0.245 C  
ENDROOT
BRANCH   3   4
HETATM    4  C   UNL     1      -9.903   7.133  71.492  1.00  0.00    -0.171 C  
BRANCH   4   5
HETATM    5  N   UNL     1     -10.428   8.167  72.357  1.00  0.00    -0.293 NA 
HETATM    6  H   UNL     1     -10.032   8.288  73.288  1.00  0.00     0.000 HD 
BRANCH   5   7
HETATM    7  C   UNL     1     -11.433   8.978  71.953  1.00  0.00    -0.370 A  
HETATM    8  N   UNL     1     -12.643   9.038  72.391  1.00  0.00    -0.363 NA 
HETATM    9  C   UNL     1     -13.264  10.105  71.610  1.00  0.00    -0.418 A  
HETATM   10  C   UNL     1     -12.153  10.690  70.769  1.00  0.00    -0.374 A  
HETATM   11  O   UNL     1     -11.043   9.833  70.979  1.00  0.00    -0.325 OA 
ENDBRANCH   5   7
ENDBRANCH   4   5
BRANCH   4  12
HETATM   12  C   UNL     1      -8.400   7.288  71.426  1.00  0.00    -0.110 C  
HETATM   13  C   UNL     1      -7.710   8.357  72.243  1.00  0.00    -0.153 C  
HETATM   14  C   UNL     1      -7.772   8.485  70.749  1.00  0.00    -0.087 C  
ENDBRANCH   4  12
ENDBRANCH   3   4
TORSDOF 4
ENDMDL
MODEL      146
REMARK 921   NORMALIZED FREE ENERGY PREDICTED BY IDOCK:   -2.74 KCAL/MOL
REMARK 922        TOTAL FREE ENERGY PREDICTED BY IDOCK:   -3.82 KCAL/MOL
REMARK 923 INTER-LIGAND FREE ENERGY PREDICTED BY IDOCK:   -3.68 KCAL/MOL
REMARK 924 INTRA-LIGAND FREE ENERGY PREDICTED BY IDOCK:   -0.14 KCAL/MOL
REMARK 927      BINDING AFFINITY PREDICTED BY RF-SCORE:    0.00 PKD
ROOT
HETATM    1  C   UNL     1     -11.919  12.658  69.367  1.00  0.00    -0.318 C  
HETATM    2  C   UNL     1     -12.018  13.616  68.217  1.00  0.00    -0.385 C  
HETATM    3  C   UNL     1     -10.663  13.097  68.647  1.00  0.00    -0.274 C  
ENDROOT
BRANCH   3   4
HETATM    4  C   UNL     1      -9.883  12.085  67.840  1.00  0.00    -0.196 C  
BRANCH   4   5
HETATM    5  N   UNL     1     -10.779  11.403  66.931  1.00  0.00    -0.252 NA 
HETATM    6  H   UNL     1     -11.538  10.838  67.310  1.00  0.00     0.000 HD 
BRANCH   5   7
HETATM    7  C   UNL     1     -10.629  11.501  65.590  1.00  0.00    -0.274 A  
HETATM    8  N   UNL     1     -10.968  12.470  64.811  1.00  0.00    -0.292 NA 
HETATM    9  C   UNL     1     -10.542  12.038  63.482  1.00  0.00    -0.465 A  
HETATM   10  C   UNL     1      -9.808  10.734  63.696  1.00  0.00    -0.350 A  
HETATM   11  O   UNL     1     -10.009  10.420  65.064  1.00  0.00    -0.294 OA 
ENDBRANCH   5   7
ENDBRANCH   4   5
BRANCH   4  12
HETATM   12  C   UNL     1      -8.809  12.767  67.021  1.00  0.00    -0.213 C  
HETATM   13  C   UNL     1      -7.457  13.058  67.634  1.00  0.00    -0.156 C  
HETATM   14  C   UNL     1      -8.391  14.189  67.319  1.00  0.00    -0.212 C  
ENDBRANCH   4  12
ENDBRANCH   3   4
TORSDOF 4
ENDMDL
MODEL      147
REMARK 921   NORMALIZED FREE ENERGY PREDICTED BY IDOCK:   -2.74 KCAL/MOL
REMARK 922        TOTAL FREE ENERGY PREDICTED BY IDOCK:   -3.82 KCAL/MOL
REMARK 923 INTER-LIGAND FREE ENERGY PREDICTED BY IDOCK:   -3.50 KCAL/MOL
REMARK 924 INTRA-LIGAND FREE ENERGY PREDICTED BY IDOCK:   -0.32 KCAL/MOL
REMARK 927      BINDING AFFINITY PREDICTED BY RF-SCORE:    0.00 PKD
ROOT
HETATM    1  C   UNL     1      -6.544  11.742  67.426  1.00  0.00    -0.118 C  
HETATM    2  C   UNL     1      -7.155  10.819  66.414  1.00  0.00    -0.134 C  
HETATM    3  C   UNL     1      -7.949  11.223  67.638  1.00  0.00    -0.118 C  
ENDROOT
BRANCH   3   4
HETATM    4  C   UNL     1      -9.111  12.189  67.573  1.00  0.00    -0.180 C  
BRANCH   4   5
HETATM    5  N   UNL     1      -9.137  12.820  66.272  1.00  0.00    -0.434 NA 
HETATM    6  H   UNL     1      -8.746  12.327  65.470  1.00  0.00     0.000 HD 
BRANCH   5   7
HETATM    7  C   UNL     1      -9.670  14.052  66.099  1.00  0.00    -0.280 A  
HETATM    8  N   UNL     1      -9.566  15.088  66.859  1.00  0.00    -0.230 NA 
HETATM    9  C   UNL     1     -10.318  16.130  66.163  1.00  0.00    -0.339 A  
HETATM   10  C   UNL     1     -10.736  15.516  64.847  1.00  0.00    -0.392 A  
HETATM   11  O   UNL     1     -10.367  14.151  64.943  1.00  0.00    -0.411 OA 
ENDBRANCH   5   7
ENDBRANCH   4   5
BRANCH   4  12
HETATM   12  C   UNL     1     -10.422  11.462  67.774  1.00  0.00    -0.215 C  
HETATM   13  C   UNL     1     -11.566  12.142  68.492  1.00  0.00    -0.366 C  
HETATM   14  C   UNL     1     -10.851  10.997  69.146  1.00  0.00    -0.283 C  
ENDBRANCH   4  12
ENDBRANCH   3   4
TORSDOF 4
ENDMDL
MODEL      148
REMARK 921   NORMALIZED FREE ENERGY PREDICTED BY IDOCK:   -2.73 KCAL/MOL
REMARK 922        TOTAL FREE ENERGY PREDICTED BY IDOCK:   -3.81 KCAL/MOL
REMARK 923 INTER-LIGAND FREE ENERGY PREDICTED BY IDOCK:   -3.46 KCAL/MOL
REMARK 924 INTRA-LIGAND FREE ENERGY PREDICTED BY IDOCK:   -0.35 KCAL/MOL
REMARK 927      BINDING AFFINITY PREDICTED BY RF-SCORE:    0.00 PKD
ROOT
HETATM    1  C   UNL     1      -8.075   8.789  71.116  1.00  0.00    -0.192 C  
HETATM    2  C   UNL     1      -8.011   9.808  70.017  1.00  0.00    -0.196 C  
HETATM    3  C   UNL     1      -8.993   8.660  69.920  1.00  0.00    -0.149 C  
ENDROOT
BRANCH   3   4
HETATM    4  C   UNL     1     -10.482   8.843  70.110  1.00  0.00    -0.214 C  
BRANCH   4   5
HETATM    5  N   UNL     1     -11.152   8.666  68.839  1.00  0.00    -0.420 NA 
HETATM    6  H   UNL     1     -11.875   7.953  68.751  1.00  0.00     0.000 HD 
BRANCH   5   7
HETATM    7  C   UNL     1     -10.836   9.427  67.766  1.00  0.00    -0.159 A  
HETATM    8  N   UNL     1     -10.932  10.705  67.630  1.00  0.00    -0.292 NA 
HETATM    9  C   UNL     1     -10.427  10.969  66.285  1.00  0.00    -0.254 A  
HETATM   10  C   UNL     1      -9.930   9.638  65.770  1.00  0.00    -0.272 A  
HETATM   11  O   UNL     1     -10.332   8.693  66.747  1.00  0.00    -0.286 OA 
ENDBRANCH   5   7
ENDBRANCH   4   5
BRANCH   4  12
HETATM   12  C   UNL     1     -11.027   7.817  71.079  1.00  0.00    -0.260 C  
HETATM   13  C   UNL     1     -11.677   6.554  70.562  1.00  0.00    -0.438 C  
HETATM   14  C   UNL     1     -12.515   7.604  71.229  1.00  0.00    -0.324 C  
ENDBRANCH   4  12
ENDBRANCH   3   4
TORSDOF 4
ENDMDL
MODEL      149
REMARK 921   NORMALIZED FREE ENERGY PREDICTED BY IDOCK:   -2.72 KCAL/MOL
REMARK 922        TOTAL FREE ENERGY PREDICTED BY IDOCK:   -3.80 KCAL/MOL
REMARK 923 INTER-LIGAND FREE ENERGY PREDICTED BY IDOCK:   -3.61 KCAL/MOL
REMARK 924 INTRA-LIGAND FREE ENERGY PREDICTED BY IDOCK:   -0.19 KCAL/MOL
REMARK 927      BINDING AFFINITY PREDICTED BY RF-SCORE:    0.00 PKD
ROOT
HETATM    1  C   UNL     1     -13.407  10.015  71.326  1.00  0.00    -0.410 C  
HETATM    2  C   UNL     1     -12.369   9.322  72.157  1.00  0.00    -0.398 C  
HETATM    3  C   UNL     1     -12.063   9.680  70.718  1.00  0.00    -0.328 C  
ENDROOT
BRANCH   3   4
HETATM    4  C   UNL     1     -11.124  10.803  70.339  1.00  0.00    -0.096 C  
BRANCH   4   5
HETATM    5  N   UNL     1      -9.886  10.244  69.840  1.00  0.00    -0.409 NA 
HETATM    6  H   UNL     1      -9.363  10.749  69.125  1.00  0.00     0.000 HD 
BRANCH   5   7
HETATM    7  C   UNL     1      -9.410   9.065  70.302  1.00  0.00    -0.198 A  
HETATM    8  N   UNL     1      -9.475   7.901  69.753  1.00  0.00    -0.163 NA 
HETATM    9  C   UNL     1      -8.775   7.018  70.684  1.00  0.00    -0.149 A  
HETATM   10  C   UNL     1      -8.218   7.922  71.759  1.00  0.00    -0.117 A  
HETATM   11  O   UNL     1      -8.767   9.200  71.485  1.00  0.00    -0.334 OA 
ENDBRANCH   5   7
ENDBRANCH   4   5
BRANCH   4  12
HETATM   12  C   UNL     1     -11.730  11.661  69.250  1.00  0.00    -0.396 C  
HETATM   13  C   UNL     1     -11.484  11.328  67.796  1.00  0.00    -0.350 C  
HETATM   14  C   UNL     1     -10.864  12.555  68.394  1.00  0.00    -0.266 C  
ENDBRANCH   4  12
ENDBRANCH   3   4
TORSDOF 4
ENDMDL
MODEL      150
REMARK 921   NORMALIZED FREE ENERGY PREDICTED BY IDOCK:   -2.71 KCAL/MOL
REMARK 922        TOTAL FREE ENERGY PREDICTED BY IDOCK:   -3.79 KCAL/MOL
REMARK 923 INTER-LIGAND FREE ENERGY PREDICTED BY IDOCK:   -3.53 KCAL/MOL
REMARK 924 INTRA-LIGAND FREE ENERGY PREDICTED BY IDOCK:   -0.26 KCAL/MOL
REMARK 927      BINDING AFFINITY PREDICTED BY RF-SCORE:    0.00 PKD
ROOT
HETATM    1  C   UNL     1      -8.110  11.087  68.917  1.00  0.00    -0.135 C  
HETATM    2  C   UNL     1      -9.282  10.386  68.297  1.00  0.00    -0.149 C  
HETATM    3  C   UNL     1      -9.155  11.890  68.174  1.00  0.00    -0.190 C  
ENDROOT
BRANCH   3   4
HETATM    4  C   UNL     1      -8.777  12.573  66.879  1.00  0.00    -0.182 C  
BRANCH   4   5
HETATM    5  N   UNL     1      -9.687  12.157  65.834  1.00  0.00    -0.243 NA 
HETATM    6  H   UNL     1      -9.462  11.336  65.274  1.00  0.00     0.000 HD 
BRANCH   5   7
HETATM    7  C   UNL     1     -10.830  12.837  65.586  1.00  0.00    -0.273 A  
HETATM    8  N   UNL     1     -11.872  12.960  66.335  1.00  0.00    -0.400 NA 
HETATM    9  C   UNL     1     -12.774  13.819  65.571  1.00  0.00    -0.488 A  
HETATM   10  C   UNL     1     -11.994  14.236  64.346  1.00  0.00    -0.456 A  
HETATM   11  O   UNL     1     -10.801  13.472  64.392  1.00  0.00    -0.392 OA 
ENDBRANCH   5   7
ENDBRANCH   4   5
BRANCH   4  12
HETATM   12  C   UNL     1      -8.874  14.076  67.020  1.00  0.00    -0.234 C  
HETATM   13  C   UNL     1      -7.734  14.856  67.636  1.00  0.00    -0.197 C  
HETATM   14  C   UNL     1      -9.030  14.720  68.378  1.00  0.00    -0.187 C  
ENDBRANCH   4  12
ENDBRANCH   3   4
TORSDOF 4
ENDMDL
MODEL      151
REMARK 921   NORMALIZED FREE ENERGY PREDICTED BY IDOCK:   -2.70 KCAL/MOL
REMARK 922        TOTAL FREE ENERGY PREDICTED BY IDOCK:   -3.77 KCAL/MOL
REMARK 923 INTER-LIGAND FREE ENERGY PREDICTED BY IDOCK:   -3.41 KCAL/MOL
REMARK 924 INTRA-LIGAND FREE ENERGY PREDICTED BY IDOCK:   -0.36 KCAL/MOL
REMARK 927      BINDING AFFINITY PREDICTED BY RF-SCORE:    0.00 PKD
ROOT
HETATM    1  C   UNL     1      -5.144  20.759  70.084  1.00  0.00    -0.366 C  
HETATM    2  C   UNL     1      -5.963  19.982  71.071  1.00  0.00    -0.322 C  
HETATM    3  C   UNL     1      -6.466  20.161  69.654  1.00  0.00    -0.333 C  
ENDROOT
BRANCH   3   4
HETATM    4  C   UNL     1      -6.472  19.037  68.643  1.00  0.00    -0.252 C  
BRANCH   4   5
HETATM    5  N   UNL     1      -7.661  18.233  68.828  1.00  0.00    -0.298 NA 
HETATM    6  H   UNL     1      -8.550  18.693  69.022  1.00  0.00     0.000 HD 
BRANCH   5   7
HETATM    7  C   UNL     1      -7.615  16.883  68.750  1.00  0.00    -0.243 A  
HETATM    8  N   UNL     1      -6.951  16.056  69.483  1.00  0.00    -0.209 NA 
HETATM    9  C   UNL     1      -7.305  14.738  68.962  1.00  0.00    -0.139 A  
HETATM   10  C   UNL     1      -8.363  14.988  67.911  1.00  0.00    -0.148 A  
HETATM   11  O   UNL     1      -8.417  16.398  67.773  1.00  0.00    -0.165 OA 
ENDBRANCH   5   7
ENDBRANCH   4   5
BRANCH   4  12
HETATM   12  C   UNL     1      -6.488  19.586  67.233  1.00  0.00    -0.210 C  
HETATM   13  C   UNL     1      -6.854  21.032  66.986  1.00  0.00    -0.397 C  
HETATM   14  C   UNL     1      -7.789  19.942  66.553  1.00  0.00    -0.330 C  
ENDBRANCH   4  12
ENDBRANCH   3   4
TORSDOF 4
ENDMDL
MODEL      152
REMARK 921   NORMALIZED FREE ENERGY PREDICTED BY IDOCK:   -2.70 KCAL/MOL
REMARK 922        TOTAL FREE ENERGY PREDICTED BY IDOCK:   -3.77 KCAL/MOL
REMARK 923 INTER-LIGAND FREE ENERGY PREDICTED BY IDOCK:   -3.27 KCAL/MOL
REMARK 924 INTRA-LIGAND FREE ENERGY PREDICTED BY IDOCK:   -0.50 KCAL/MOL
REMARK 927      BINDING AFFINITY PREDICTED BY RF-SCORE:    0.00 PKD
ROOT
HETATM    1  C   UNL     1     -11.782   6.393  72.008  1.00  0.00    -0.376 C  
HETATM    2  C   UNL     1     -12.941   7.170  71.459  1.00  0.00    -0.431 C  
HETATM    3  C   UNL     1     -11.532   7.692  71.275  1.00  0.00    -0.293 C  
ENDROOT
BRANCH   3   4
HETATM    4  C   UNL     1     -10.819   7.661  69.942  1.00  0.00    -0.235 C  
BRANCH   4   5
HETATM    5  N   UNL     1      -9.390   7.705  70.162  1.00  0.00    -0.157 NA 
HETATM    6  H   UNL     1      -8.916   6.882  70.535  1.00  0.00     0.000 HD 
BRANCH   5   7
HETATM    7  C   UNL     1      -8.670   8.816  69.884  1.00  0.00    -0.135 A  
HETATM    8  N   UNL     1      -7.850   9.456  70.645  1.00  0.00    -0.183 NA 
HETATM    9  C   UNL     1      -7.352  10.548  69.812  1.00  0.00    -0.134 A  
HETATM   10  C   UNL     1      -7.944  10.314  68.441  1.00  0.00    -0.108 A  
HETATM   11  O   UNL     1      -8.857   9.244  68.614  1.00  0.00    -0.130 OA 
ENDBRANCH   5   7
ENDBRANCH   4   5
BRANCH   4  12
HETATM   12  C   UNL     1     -11.143   6.387  69.192  1.00  0.00    -0.428 C  
HETATM   13  C   UNL     1     -10.030   5.535  68.626  1.00  0.00    -0.222 C  
HETATM   14  C   UNL     1     -10.935   6.291  67.698  1.00  0.00    -0.438 C  
ENDBRANCH   4  12
ENDBRANCH   3   4
TORSDOF 4
ENDMDL
MODEL      153
REMARK 921   NORMALIZED FREE ENERGY PREDICTED BY IDOCK:   -2.67 KCAL/MOL
REMARK 922        TOTAL FREE ENERGY PREDICTED BY IDOCK:   -3.74 KCAL/MOL
REMARK 923 INTER-LIGAND FREE ENERGY PREDICTED BY IDOCK:   -3.57 KCAL/MOL
REMARK 924 INTRA-LIGAND FREE ENERGY PREDICTED BY IDOCK:   -0.17 KCAL/MOL
REMARK 927      BINDING AFFINITY PREDICTED BY RF-SCORE:    0.00 PKD
ROOT
HETATM    1  C   UNL     1     -10.241  15.589  68.827  1.00  0.00    -0.212 C  
HETATM    2  C   UNL     1     -10.909  16.875  68.443  1.00  0.00    -0.347 C  
HETATM    3  C   UNL     1      -9.420  16.707  68.223  1.00  0.00    -0.230 C  
ENDROOT
BRANCH   3   4
HETATM    4  C   UNL     1      -8.814  16.520  66.851  1.00  0.00    -0.208 C  
BRANCH   4   5
HETATM    5  N   UNL     1      -8.996  17.730  66.078  1.00  0.00    -0.514 NA 
HETATM    6  H   UNL     1      -9.824  17.828  65.491  1.00  0.00     0.000 HD 
BRANCH   5   7
HETATM    7  C   UNL     1      -8.088  18.733  66.119  1.00  0.00    -0.199 A  
HETATM    8  N   UNL     1      -7.140  18.994  65.286  1.00  0.00    -0.464 NA 
HETATM    9  C   UNL     1      -6.505  20.197  65.819  1.00  0.00    -0.229 A  
HETATM   10  C   UNL     1      -7.347  20.608  67.005  1.00  0.00    -0.316 A  
HETATM   11  O   UNL     1      -8.274  19.550  67.181  1.00  0.00    -0.264 OA 
ENDBRANCH   5   7
ENDBRANCH   4   5
BRANCH   4  12
HETATM   12  C   UNL     1      -7.331  16.243  66.955  1.00  0.00    -0.264 C  
HETATM   13  C   UNL     1      -6.841  14.947  67.559  1.00  0.00    -0.189 C  
HETATM   14  C   UNL     1      -6.634  16.237  68.296  1.00  0.00    -0.130 C  
ENDBRANCH   4  12
ENDBRANCH   3   4
TORSDOF 4
ENDMDL
MODEL      154
REMARK 921   NORMALIZED FREE ENERGY PREDICTED BY IDOCK:   -2.67 KCAL/MOL
REMARK 922        TOTAL FREE ENERGY PREDICTED BY IDOCK:   -3.73 KCAL/MOL
REMARK 923 INTER-LIGAND FREE ENERGY PREDICTED BY IDOCK:   -3.40 KCAL/MOL
REMARK 924 INTRA-LIGAND FREE ENERGY PREDICTED BY IDOCK:   -0.34 KCAL/MOL
REMARK 927      BINDING AFFINITY PREDICTED BY RF-SCORE:    0.00 PKD
ROOT
HETATM    1  C   UNL     1     -13.107  10.007  71.326  1.00  0.00    -0.493 C  
HETATM    2  C   UNL     1     -13.240   9.033  72.459  1.00  0.00    -0.467 C  
HETATM    3  C   UNL     1     -12.729   8.557  71.115  1.00  0.00    -0.127 C  
ENDROOT
BRANCH   3   4
HETATM    4  C   UNL     1     -11.280   8.199  70.873  1.00  0.00    -0.266 C  
BRANCH   4   5
HETATM    5  N   UNL     1     -11.166   6.771  70.676  1.00  0.00    -0.291 NA 
HETATM    6  H   UNL     1     -11.229   6.390  69.732  1.00  0.00     0.000 HD 
BRANCH   5   7
HETATM    7  C   UNL     1     -10.978   5.930  71.718  1.00  0.00    -0.269 A  
HETATM    8  N   UNL     1     -11.836   5.524  72.590  1.00  0.00    -0.210 NA 
HETATM    9  C   UNL     1     -11.081   4.618  73.453  1.00  0.00    -0.337 A  
HETATM   10  C   UNL     1      -9.711   4.509  72.826  1.00  0.00    -0.140 A  
HETATM   11  O   UNL     1      -9.708   5.467  71.781  1.00  0.00    -0.156 OA 
ENDBRANCH   5   7
ENDBRANCH   4   5
BRANCH   4  12
HETATM   12  C   UNL     1     -10.759   8.892  69.633  1.00  0.00    -0.222 C  
HETATM   13  C   UNL     1      -9.310   8.739  69.230  1.00  0.00    -0.149 C  
HETATM   14  C   UNL     1      -9.807  10.060  69.738  1.00  0.00    -0.270 C  
ENDBRANCH   4  12
ENDBRANCH   3   4
TORSDOF 4
ENDMDL
MODEL      155
REMARK 921   NORMALIZED FREE ENERGY PREDICTED BY IDOCK:   -2.67 KCAL/MOL
REMARK 922        TOTAL FREE ENERGY PREDICTED BY IDOCK:   -3.73 KCAL/MOL
REMARK 923 INTER-LIGAND FREE ENERGY PREDICTED BY IDOCK:   -3.29 KCAL/MOL
REMARK 924 INTRA-LIGAND FREE ENERGY PREDICTED BY IDOCK:   -0.44 KCAL/MOL
REMARK 927      BINDING AFFINITY PREDICTED BY RF-SCORE:    0.00 PKD
ROOT
HETATM    1  C   UNL     1     -10.979  12.177  66.319  1.00  0.00    -0.332 C  
HETATM    2  C   UNL     1     -11.889  13.080  67.098  1.00  0.00    -0.431 C  
HETATM    3  C   UNL     1     -10.489  12.806  67.605  1.00  0.00    -0.224 C  
ENDROOT
BRANCH   3   4
HETATM    4  C   UNL     1      -9.384  13.837  67.547  1.00  0.00    -0.222 C  
BRANCH   4   5
HETATM    5  N   UNL     1      -9.763  14.990  68.334  1.00  0.00    -0.210 NA 
HETATM    6  H   UNL     1     -10.001  14.866  69.318  1.00  0.00     0.000 HD 
BRANCH   5   7
HETATM    7  C   UNL     1      -9.808  16.228  67.791  1.00  0.00    -0.237 A  
HETATM    8  N   UNL     1     -10.451  16.627  66.748  1.00  0.00    -0.288 NA 
HETATM    9  C   UNL     1     -10.151  18.054  66.655  1.00  0.00    -0.372 A  
HETATM   10  C   UNL     1      -9.343  18.379  67.890  1.00  0.00    -0.280 A  
HETATM   11  O   UNL     1      -9.085  17.126  68.500  1.00  0.00    -0.251 OA 
ENDBRANCH   5   7
ENDBRANCH   4   5
BRANCH   4  12
HETATM   12  C   UNL     1      -8.100  13.276  68.116  1.00  0.00    -0.159 C  
HETATM   13  C   UNL     1      -7.280  12.291  67.314  1.00  0.00    -0.138 C  
HETATM   14  C   UNL     1      -8.006  11.829  68.543  1.00  0.00    -0.145 C  
ENDBRANCH   4  12
ENDBRANCH   3   4
TORSDOF 4
ENDMDL
MODEL      156
REMARK 921   NORMALIZED FREE ENERGY PREDICTED BY IDOCK:   -2.67 KCAL/MOL
REMARK 922        TOTAL FREE ENERGY PREDICTED BY IDOCK:   -3.73 KCAL/MOL
REMARK 923 INTER-LIGAND FREE ENERGY PREDICTED BY IDOCK:   -3.29 KCAL/MOL
REMARK 924 INTRA-LIGAND FREE ENERGY PREDICTED BY IDOCK:   -0.44 KCAL/MOL
REMARK 927      BINDING AFFINITY PREDICTED BY RF-SCORE:    0.00 PKD
ROOT
HETATM    1  C   UNL     1     -11.108  12.829  63.937  1.00  0.00    -0.477 C  
HETATM    2  C   UNL     1     -11.689  13.968  64.722  1.00  0.00    -0.403 C  
HETATM    3  C   UNL     1     -10.936  12.868  65.439  1.00  0.00    -0.305 C  
ENDROOT
BRANCH   3   4
HETATM    4  C   UNL     1      -9.553  13.069  66.018  1.00  0.00    -0.165 C  
BRANCH   4   5
HETATM    5  N   UNL     1      -9.610  14.077  67.055  1.00  0.00    -0.244 NA 
HETATM    6  H   UNL     1     -10.374  14.056  67.730  1.00  0.00     0.000 HD 
BRANCH   5   7
HETATM    7  C   UNL     1      -8.670  15.046  67.146  1.00  0.00    -0.220 A  
HETATM    8  N   UNL     1      -7.593  15.058  67.852  1.00  0.00    -0.126 NA 
HETATM    9  C   UNL     1      -6.960  16.336  67.534  1.00  0.00    -0.156 A  
HETATM   10  C   UNL     1      -7.813  16.951  66.448  1.00  0.00    -0.313 A  
HETATM   11  O   UNL     1      -8.942  16.101  66.343  1.00  0.00    -0.257 OA 
ENDBRANCH   5   7
ENDBRANCH   4   5
BRANCH   4  12
HETATM   12  C   UNL     1      -9.040  11.786  66.633  1.00  0.00    -0.194 C  
HETATM   13  C   UNL     1      -8.479  10.692  65.752  1.00  0.00    -0.179 C  
HETATM   14  C   UNL     1      -9.788  10.485  66.455  1.00  0.00    -0.255 C  
ENDBRANCH   4  12
ENDBRANCH   3   4
TORSDOF 4
ENDMDL
MODEL      157
REMARK 921   NORMALIZED FREE ENERGY PREDICTED BY IDOCK:   -2.66 KCAL/MOL
REMARK 922        TOTAL FREE ENERGY PREDICTED BY IDOCK:   -3.72 KCAL/MOL
REMARK 923 INTER-LIGAND FREE ENERGY PREDICTED BY IDOCK:   -3.31 KCAL/MOL
REMARK 924 INTRA-LIGAND FREE ENERGY PREDICTED BY IDOCK:   -0.41 KCAL/MOL
REMARK 927      BINDING AFFINITY PREDICTED BY RF-SCORE:    0.00 PKD
ROOT
HETATM    1  C   UNL     1     -11.700   7.114  70.603  1.00  0.00    -0.348 C  
HETATM    2  C   UNL     1     -10.969   8.193  71.344  1.00  0.00    -0.282 C  
HETATM    3  C   UNL     1     -10.447   7.715  70.006  1.00  0.00    -0.229 C  
ENDROOT
BRANCH   3   4
HETATM    4  C   UNL     1     -10.554   8.543  68.745  1.00  0.00    -0.133 C  
BRANCH   4   5
HETATM    5  N   UNL     1      -9.748   9.736  68.887  1.00  0.00    -0.165 NA 
HETATM    6  H   UNL     1      -8.833   9.672  69.331  1.00  0.00     0.000 HD 
BRANCH   5   7
HETATM    7  C   UNL     1     -10.186  10.936  68.440  1.00  0.00    -0.178 A  
HETATM    8  N   UNL     1      -9.532  12.042  68.331  1.00  0.00    -0.200 NA 
HETATM    9  C   UNL     1     -10.498  12.985  67.773  1.00  0.00    -0.228 A  
HETATM   10  C   UNL     1     -11.739  12.172  67.486  1.00  0.00    -0.315 A  
HETATM   11  O   UNL     1     -11.479  10.896  68.045  1.00  0.00    -0.374 OA 
ENDBRANCH   5   7
ENDBRANCH   4   5
BRANCH   4  12
HETATM   12  C   UNL     1     -10.044   7.766  67.551  1.00  0.00    -0.272 C  
HETATM   13  C   UNL     1     -10.876   6.652  66.959  1.00  0.00    -0.467 C  
HETATM   14  C   UNL     1      -9.608   6.326  67.690  1.00  0.00    -0.118 C  
ENDBRANCH   4  12
ENDBRANCH   3   4
TORSDOF 4
ENDMDL
MODEL      158
REMARK 921   NORMALIZED FREE ENERGY PREDICTED BY IDOCK:   -2.65 KCAL/MOL
REMARK 922        TOTAL FREE ENERGY PREDICTED BY IDOCK:   -3.71 KCAL/MOL
REMARK 923 INTER-LIGAND FREE ENERGY PREDICTED BY IDOCK:   -3.28 KCAL/MOL
REMARK 924 INTRA-LIGAND FREE ENERGY PREDICTED BY IDOCK:   -0.44 KCAL/MOL
REMARK 927      BINDING AFFINITY PREDICTED BY RF-SCORE:    0.00 PKD
ROOT
HETATM    1  C   UNL     1     -11.892  12.832  67.827  1.00  0.00    -0.387 C  
HETATM    2  C   UNL     1     -12.157  13.764  66.683  1.00  0.00    -0.471 C  
HETATM    3  C   UNL     1     -11.724  14.322  68.022  1.00  0.00    -0.386 C  
ENDROOT
BRANCH   3   4
HETATM    4  C   UNL     1     -10.341  14.884  68.263  1.00  0.00    -0.232 C  
BRANCH   4   5
HETATM    5  N   UNL     1      -9.477  14.518  67.162  1.00  0.00    -0.223 NA 
HETATM    6  H   UNL     1      -9.722  14.810  66.216  1.00  0.00     0.000 HD 
BRANCH   5   7
HETATM    7  C   UNL     1      -8.351  13.795  67.362  1.00  0.00    -0.193 A  
HETATM    8  N   UNL     1      -7.307  14.105  68.051  1.00  0.00    -0.122 NA 
HETATM    9  C   UNL     1      -6.430  12.942  67.933  1.00  0.00    -0.127 A  
HETATM   10  C   UNL     1      -7.228  11.909  67.171  1.00  0.00    -0.144 A  
HETATM   11  O   UNL     1      -8.404  12.585  66.757  1.00  0.00    -0.139 OA 
ENDBRANCH   5   7
ENDBRANCH   4   5
BRANCH   4  12
HETATM   12  C   UNL     1     -10.385  16.393  68.348  1.00  0.00    -0.282 C  
HETATM   13  C   UNL     1     -10.317  17.228  67.089  1.00  0.00    -0.321 C  
HETATM   14  C   UNL     1      -9.160  17.224  68.044  1.00  0.00    -0.249 C  
ENDBRANCH   4  12
ENDBRANCH   3   4
TORSDOF 4
ENDMDL
MODEL      159
REMARK 921   NORMALIZED FREE ENERGY PREDICTED BY IDOCK:   -2.64 KCAL/MOL
REMARK 922        TOTAL FREE ENERGY PREDICTED BY IDOCK:   -3.70 KCAL/MOL
REMARK 923 INTER-LIGAND FREE ENERGY PREDICTED BY IDOCK:   -3.65 KCAL/MOL
REMARK 924 INTRA-LIGAND FREE ENERGY PREDICTED BY IDOCK:   -0.05 KCAL/MOL
REMARK 927      BINDING AFFINITY PREDICTED BY RF-SCORE:    0.00 PKD
ROOT
HETATM    1  C   UNL     1      -9.191   8.727  71.481  1.00  0.00    -0.332 C  
HETATM    2  C   UNL     1     -10.554   9.072  72.004  1.00  0.00    -0.321 C  
HETATM    3  C   UNL     1     -10.166   9.472  70.596  1.00  0.00    -0.364 C  
ENDROOT
BRANCH   3   4
HETATM    4  C   UNL     1     -10.723   8.784  69.370  1.00  0.00    -0.169 C  
BRANCH   4   5
HETATM    5  N   UNL     1     -11.529   9.722  68.619  1.00  0.00    -0.488 NA 
HETATM    6  H   UNL     1     -12.064   9.391  67.817  1.00  0.00     0.000 HD 
BRANCH   5   7
HETATM    7  C   UNL     1     -11.586  11.030  68.960  1.00  0.00    -0.323 A  
HETATM    8  N   UNL     1     -12.206  11.578  69.949  1.00  0.00    -0.279 NA 
HETATM    9  C   UNL     1     -11.893  13.000  69.835  1.00  0.00    -0.307 A  
HETATM   10  C   UNL     1     -10.904  13.108  68.698  1.00  0.00    -0.259 A  
HETATM   11  O   UNL     1     -10.852  11.809  68.133  1.00  0.00    -0.197 OA 
ENDBRANCH   5   7
ENDBRANCH   4   5
BRANCH   4  12
HETATM   12  C   UNL     1      -9.604   8.300  68.475  1.00  0.00    -0.154 C  
HETATM   13  C   UNL     1      -9.702   8.470  66.976  1.00  0.00    -0.266 C  
HETATM   14  C   UNL     1      -9.792   7.099  67.577  1.00  0.00    -0.192 C  
ENDBRANCH   4  12
ENDBRANCH   3   4
TORSDOF 4
ENDMDL
MODEL      160
REMARK 921   NORMALIZED FREE ENERGY PREDICTED BY IDOCK:   -2.64 KCAL/MOL
REMARK 922        TOTAL FREE ENERGY PREDICTED BY IDOCK:   -3.70 KCAL/MOL
REMARK 923 INTER-LIGAND FREE ENERGY PREDICTED BY IDOCK:   -3.32 KCAL/MOL
REMARK 924 INTRA-LIGAND FREE ENERGY PREDICTED BY IDOCK:   -0.37 KCAL/MOL
REMARK 927      BINDING AFFINITY PREDICTED BY RF-SCORE:    0.00 PKD
ROOT
HETATM    1  C   UNL     1      -9.082   5.469  67.069  1.00  0.00    -0.112 C  
HETATM    2  C   UNL     1     -10.444   5.102  66.558  1.00  0.00    -0.346 C  
HETATM    3  C   UNL     1     -10.287   5.619  67.973  1.00  0.00    -0.258 C  
ENDROOT
BRANCH   3   4
HETATM    4  C   UNL     1     -10.729   7.003  68.390  1.00  0.00    -0.179 C  
BRANCH   4   5
HETATM    5  N   UNL     1     -10.065   7.367  69.623  1.00  0.00    -0.183 NA 
HETATM    6  H   UNL     1      -9.047   7.344  69.667  1.00  0.00     0.000 HD 
BRANCH   5   7
HETATM    7  C   UNL     1     -10.769   7.736  70.717  1.00  0.00    -0.226 A  
HETATM    8  N   UNL     1     -11.769   8.546  70.796  1.00  0.00    -0.250 NA 
HETATM    9  C   UNL     1     -12.136   8.539  72.211  1.00  0.00    -0.387 A  
HETATM   10  C   UNL     1     -11.249   7.498  72.854  1.00  0.00    -0.346 A  
HETATM   11  O   UNL     1     -10.336   7.116  71.839  1.00  0.00    -0.192 OA 
ENDBRANCH   5   7
ENDBRANCH   4   5
BRANCH   4  12
HETATM   12  C   UNL     1     -10.360   8.022  67.334  1.00  0.00    -0.354 C  
HETATM   13  C   UNL     1      -9.222   8.988  67.576  1.00  0.00    -0.152 C  
HETATM   14  C   UNL     1     -10.634   9.493  67.546  1.00  0.00    -0.338 C  
ENDBRANCH   4  12
ENDBRANCH   3   4
TORSDOF 4
ENDMDL
MODEL      161
REMARK 921   NORMALIZED FREE ENERGY PREDICTED BY IDOCK:   -2.63 KCAL/MOL
REMARK 922        TOTAL FREE ENERGY PREDICTED BY IDOCK:   -3.68 KCAL/MOL
REMARK 923 INTER-LIGAND FREE ENERGY PREDICTED BY IDOCK:   -3.58 KCAL/MOL
REMARK 924 INTRA-LIGAND FREE ENERGY PREDICTED BY IDOCK:   -0.09 KCAL/MOL
REMARK 927      BINDING AFFINITY PREDICTED BY RF-SCORE:    0.00 PKD
ROOT
HETATM    1  C   UNL     1      -9.587  15.719  69.155  1.00  0.00    -0.255 C  
HETATM    2  C   UNL     1     -10.898  16.441  69.242  1.00  0.00    -0.327 C  
HETATM    3  C   UNL     1      -9.870  16.871  68.217  1.00  0.00    -0.266 C  
ENDROOT
BRANCH   3   4
HETATM    4  C   UNL     1     -10.029  16.597  66.738  1.00  0.00    -0.279 C  
BRANCH   4   5
HETATM    5  N   UNL     1      -9.083  17.403  65.997  1.00  0.00    -0.516 NA 
HETATM    6  H   UNL     1      -8.813  17.118  65.056  1.00  0.00     0.000 HD 
BRANCH   5   7
HETATM    7  C   UNL     1      -8.551  18.527  66.528  1.00  0.00    -0.276 A  
HETATM    8  N   UNL     1      -7.311  18.808  66.740  1.00  0.00    -0.212 NA 
HETATM    9  C   UNL     1      -7.331  20.158  67.300  1.00  0.00    -0.276 A  
HETATM   10  C   UNL     1      -8.774  20.601  67.237  1.00  0.00    -0.213 A  
HETATM   11  O   UNL     1      -9.494  19.451  66.827  1.00  0.00    -0.303 OA 
ENDBRANCH   5   7
ENDBRANCH   4   5
BRANCH   4  12
HETATM   12  C   UNL     1      -9.752  15.141  66.432  1.00  0.00    -0.300 C  
HETATM   13  C   UNL     1      -9.877  14.625  65.017  1.00  0.00    -0.065 C  
HETATM   14  C   UNL     1     -10.872  14.200  66.056  1.00  0.00    -0.297 C  
ENDBRANCH   4  12
ENDBRANCH   3   4
TORSDOF 4
ENDMDL
MODEL      162
REMARK 921   NORMALIZED FREE ENERGY PREDICTED BY IDOCK:   -2.62 KCAL/MOL
REMARK 922        TOTAL FREE ENERGY PREDICTED BY IDOCK:   -3.68 KCAL/MOL
REMARK 923 INTER-LIGAND FREE ENERGY PREDICTED BY IDOCK:   -3.44 KCAL/MOL
REMARK 924 INTRA-LIGAND FREE ENERGY PREDICTED BY IDOCK:   -0.24 KCAL/MOL
REMARK 927      BINDING AFFINITY PREDICTED BY RF-SCORE:    0.00 PKD
ROOT
HETATM    1  C   UNL     1      -9.159  10.425  64.759  1.00  0.00    -0.247 C  
HETATM    2  C   UNL     1      -8.825  10.255  66.211  1.00  0.00    -0.161 C  
HETATM    3  C   UNL     1      -9.333  11.590  65.709  1.00  0.00    -0.238 C  
ENDROOT
BRANCH   3   4
HETATM    4  C   UNL     1     -10.726  12.097  66.008  1.00  0.00    -0.273 C  
BRANCH   4   5
HETATM    5  N   UNL     1     -10.667  13.049  67.095  1.00  0.00    -0.253 NA 
HETATM    6  H   UNL     1     -11.465  13.142  67.722  1.00  0.00     0.000 HD 
BRANCH   5   7
HETATM    7  C   UNL     1      -9.572  13.819  67.296  1.00  0.00    -0.237 A  
HETATM    8  N   UNL     1      -9.195  14.866  66.646  1.00  0.00    -0.261 NA 
HETATM    9  C   UNL     1      -7.969  15.292  67.318  1.00  0.00    -0.202 A  
HETATM   10  C   UNL     1      -7.820  14.374  68.509  1.00  0.00    -0.138 A  
HETATM   11  O   UNL     1      -8.836  13.398  68.350  1.00  0.00    -0.178 OA 
ENDBRANCH   5   7
ENDBRANCH   4   5
BRANCH   4  12
HETATM   12  C   UNL     1     -11.311  12.794  64.799  1.00  0.00    -0.346 C  
HETATM   13  C   UNL     1     -12.704  13.380  64.860  1.00  0.00    -0.365 C  
HETATM   14  C   UNL     1     -12.441  12.170  64.014  1.00  0.00    -0.541 C  
ENDBRANCH   4  12
ENDBRANCH   3   4
TORSDOF 4
ENDMDL
MODEL      163
REMARK 921   NORMALIZED FREE ENERGY PREDICTED BY IDOCK:   -2.61 KCAL/MOL
REMARK 922        TOTAL FREE ENERGY PREDICTED BY IDOCK:   -3.66 KCAL/MOL
REMARK 923 INTER-LIGAND FREE ENERGY PREDICTED BY IDOCK:   -3.19 KCAL/MOL
REMARK 924 INTRA-LIGAND FREE ENERGY PREDICTED BY IDOCK:   -0.47 KCAL/MOL
REMARK 927      BINDING AFFINITY PREDICTED BY RF-SCORE:    0.00 PKD
ROOT
HETATM    1  C   UNL     1      -6.635  10.935  67.984  1.00  0.00    -0.062 C  
HETATM    2  C   UNL     1      -6.292  11.354  66.586  1.00  0.00    -0.127 C  
HETATM    3  C   UNL     1      -7.558  10.564  66.844  1.00  0.00    -0.110 C  
ENDROOT
BRANCH   3   4
HETATM    4  C   UNL     1      -8.935  11.185  66.778  1.00  0.00    -0.165 C  
BRANCH   4   5
HETATM    5  N   UNL     1      -8.846  12.481  66.142  1.00  0.00    -0.418 NA 
HETATM    6  H   UNL     1      -8.157  12.630  65.405  1.00  0.00     0.000 HD 
BRANCH   5   7
HETATM    7  C   UNL     1      -9.659  13.500  66.506  1.00  0.00    -0.277 A  
HETATM    8  N   UNL     1     -10.313  14.316  65.753  1.00  0.00    -0.312 NA 
HETATM    9  C   UNL     1     -11.034  15.178  66.687  1.00  0.00    -0.318 A  
HETATM   10  C   UNL     1     -10.755  14.612  68.060  1.00  0.00    -0.246 A  
HETATM   11  O   UNL     1      -9.780  13.604  67.850  1.00  0.00    -0.219 OA 
ENDBRANCH   5   7
ENDBRANCH   4   5
BRANCH   4  12
HETATM   12  C   UNL     1      -9.872  10.321  65.964  1.00  0.00    -0.292 C  
HETATM   13  C   UNL     1      -9.319   9.223  65.083  1.00  0.00    -0.239 C  
HETATM   14  C   UNL     1      -9.929  10.442  64.458  1.00  0.00    -0.401 C  
ENDBRANCH   4  12
ENDBRANCH   3   4
TORSDOF 4
ENDMDL
MODEL      164
REMARK 921   NORMALIZED FREE ENERGY PREDICTED BY IDOCK:   -2.59 KCAL/MOL
REMARK 922        TOTAL FREE ENERGY PREDICTED BY IDOCK:   -3.64 KCAL/MOL
REMARK 923 INTER-LIGAND FREE ENERGY PREDICTED BY IDOCK:   -3.19 KCAL/MOL
REMARK 924 INTRA-LIGAND FREE ENERGY PREDICTED BY IDOCK:   -0.45 KCAL/MOL
REMARK 927      BINDING AFFINITY PREDICTED BY RF-SCORE:    0.00 PKD
ROOT
HETATM    1  C   UNL     1     -13.746  14.150  71.312  1.00  0.00    -0.278 C  
HETATM    2  C   UNL     1     -12.998  13.300  72.295  1.00  0.00    -0.376 C  
HETATM    3  C   UNL     1     -12.975  12.943  70.824  1.00  0.00    -0.017 C  
ENDROOT
BRANCH   3   4
HETATM    4  C   UNL     1     -11.756  13.149  69.954  1.00  0.00    -0.257 C  
BRANCH   4   5
HETATM    5  N   UNL     1     -11.908  12.393  68.730  1.00  0.00    -0.322 NA 
HETATM    6  H   UNL     1     -12.658  12.634  68.084  1.00  0.00     0.000 HD 
BRANCH   5   7
HETATM    7  C   UNL     1     -11.073  11.372  68.427  1.00  0.00    -0.242 A  
HETATM    8  N   UNL     1     -11.169  10.510  67.473  1.00  0.00    -0.375 NA 
HETATM    9  C   UNL     1      -9.982   9.671  67.616  1.00  0.00    -0.174 A  
HETATM   10  C   UNL     1      -9.172  10.301  68.725  1.00  0.00    -0.166 A  
HETATM   11  O   UNL     1     -10.003  11.321  69.253  1.00  0.00    -0.105 OA 
ENDBRANCH   5   7
ENDBRANCH   4   5
BRANCH   4  12
HETATM   12  C   UNL     1     -11.599  14.609  69.592  1.00  0.00    -0.349 C  
HETATM   13  C   UNL     1     -11.892  15.079  68.185  1.00  0.00    -0.286 C  
HETATM   14  C   UNL     1     -10.479  15.069  68.687  1.00  0.00    -0.238 C  
ENDBRANCH   4  12
ENDBRANCH   3   4
TORSDOF 4
ENDMDL
MODEL      165
REMARK 921   NORMALIZED FREE ENERGY PREDICTED BY IDOCK:   -2.54 KCAL/MOL
REMARK 922        TOTAL FREE ENERGY PREDICTED BY IDOCK:   -3.58 KCAL/MOL
REMARK 923 INTER-LIGAND FREE ENERGY PREDICTED BY IDOCK:   -3.13 KCAL/MOL
REMARK 924 INTRA-LIGAND FREE ENERGY PREDICTED BY IDOCK:   -0.45 KCAL/MOL
REMARK 927      BINDING AFFINITY PREDICTED BY RF-SCORE:    0.00 PKD
ROOT
HETATM    1  C   UNL     1     -11.094  14.834  67.645  1.00  0.00    -0.311 C  
HETATM    2  C   UNL     1     -12.172  14.185  66.828  1.00  0.00    -0.429 C  
HETATM    3  C   UNL     1     -10.718  13.892  66.523  1.00  0.00    -0.277 C  
ENDROOT
BRANCH   3   4
HETATM    4  C   UNL     1     -10.065  12.569  66.857  1.00  0.00    -0.225 C  
BRANCH   4   5
HETATM    5  N   UNL     1      -9.364  12.687  68.117  1.00  0.00    -0.208 NA 
HETATM    6  H   UNL     1      -9.890  12.621  68.989  1.00  0.00     0.000 HD 
BRANCH   5   7
HETATM    7  C   UNL     1      -8.026  12.881  68.162  1.00  0.00    -0.153 A  
HETATM    8  N   UNL     1      -7.336  13.845  67.657  1.00  0.00    -0.163 NA 
HETATM    9  C   UNL     1      -5.957  13.549  68.039  1.00  0.00    -0.131 A  
HETATM   10  C   UNL     1      -6.038  12.335  68.936  1.00  0.00    -0.073 A  
HETATM   11  O   UNL     1      -7.391  11.918  68.868  1.00  0.00    -0.112 OA 
ENDBRANCH   5   7
ENDBRANCH   4   5
BRANCH   4  12
HETATM   12  C   UNL     1     -11.106  11.479  66.993  1.00  0.00    -0.365 C  
HETATM   13  C   UNL     1     -11.379  10.855  68.343  1.00  0.00    -0.370 C  
HETATM   14  C   UNL     1     -10.701  10.051  67.274  1.00  0.00    -0.309 C  
ENDBRANCH   4  12
ENDBRANCH   3   4
TORSDOF 4
ENDMDL
MODEL      166
REMARK 921   NORMALIZED FREE ENERGY PREDICTED BY IDOCK:   -2.53 KCAL/MOL
REMARK 922        TOTAL FREE ENERGY PREDICTED BY IDOCK:   -3.56 KCAL/MOL
REMARK 923 INTER-LIGAND FREE ENERGY PREDICTED BY IDOCK:   -3.13 KCAL/MOL
REMARK 924 INTRA-LIGAND FREE ENERGY PREDICTED BY IDOCK:   -0.43 KCAL/MOL
REMARK 927      BINDING AFFINITY PREDICTED BY RF-SCORE:    0.00 PKD
ROOT
HETATM    1  C   UNL     1      -7.057  14.718  68.582  1.00  0.00    -0.112 C  
HETATM    2  C   UNL     1      -8.076  15.223  69.559  1.00  0.00    -0.196 C  
HETATM    3  C   UNL     1      -7.409  16.189  68.602  1.00  0.00    -0.175 C  
ENDROOT
BRANCH   3   4
HETATM    4  C   UNL     1      -8.129  16.791  67.417  1.00  0.00    -0.170 C  
BRANCH   4   5
HETATM    5  N   UNL     1      -7.218  16.878  66.296  1.00  0.00    -0.238 NA 
HETATM    6  H   UNL     1      -7.058  16.053  65.718  1.00  0.00     0.000 HD 
BRANCH   5   7
HETATM    7  C   UNL     1      -6.575  18.031  66.001  1.00  0.00    -0.275 A  
HETATM    8  N   UNL     1      -5.322  18.308  66.124  1.00  0.00    -0.150 NA 
HETATM    9  C   UNL     1      -5.199  19.677  65.630  1.00  0.00    -0.154 A  
HETATM   10  C   UNL     1      -6.569  20.044  65.107  1.00  0.00    -0.295 A  
HETATM   11  O   UNL     1      -7.407  18.965  65.485  1.00  0.00    -0.494 OA 
ENDBRANCH   5   7
ENDBRANCH   4   5
BRANCH   4  12
HETATM   12  C   UNL     1      -9.301  15.927  67.008  1.00  0.00    -0.230 C  
HETATM   13  C   UNL     1     -10.209  16.361  65.879  1.00  0.00    -0.379 C  
HETATM   14  C   UNL     1     -10.722  16.361  67.289  1.00  0.00    -0.257 C  
ENDBRANCH   4  12
ENDBRANCH   3   4
TORSDOF 4
ENDMDL
MODEL      167
REMARK 921   NORMALIZED FREE ENERGY PREDICTED BY IDOCK:   -2.51 KCAL/MOL
REMARK 922        TOTAL FREE ENERGY PREDICTED BY IDOCK:   -3.54 KCAL/MOL
REMARK 923 INTER-LIGAND FREE ENERGY PREDICTED BY IDOCK:   -3.44 KCAL/MOL
REMARK 924 INTRA-LIGAND FREE ENERGY PREDICTED BY IDOCK:   -0.11 KCAL/MOL
REMARK 927      BINDING AFFINITY PREDICTED BY RF-SCORE:    0.00 PKD
ROOT
HETATM    1  C   UNL     1     -10.839   6.075  70.981  1.00  0.00    -0.345 C  
HETATM    2  C   UNL     1     -10.353   5.196  69.867  1.00  0.00    -0.347 C  
HETATM    3  C   UNL     1     -10.940   6.555  69.550  1.00  0.00    -0.398 C  
ENDROOT
BRANCH   3   4
HETATM    4  C   UNL     1     -10.094   7.725  69.102  1.00  0.00    -0.196 C  
BRANCH   4   5
HETATM    5  N   UNL     1     -10.836   8.515  68.144  1.00  0.00    -0.456 NA 
HETATM    6  H   UNL     1     -11.852   8.561  68.215  1.00  0.00     0.000 HD 
BRANCH   5   7
HETATM    7  C   UNL     1     -10.209   9.192  67.155  1.00  0.00    -0.261 A  
HETATM    8  N   UNL     1     -10.071  10.466  67.014  1.00  0.00    -0.206 NA 
HETATM    9  C   UNL     1      -9.289  10.617  65.789  1.00  0.00    -0.186 A  
HETATM   10  C   UNL     1      -8.926   9.212  65.365  1.00  0.00    -0.207 A  
HETATM   11  O   UNL     1      -9.649   8.365  66.242  1.00  0.00    -0.223 OA 
ENDBRANCH   5   7
ENDBRANCH   4   5
BRANCH   4  12
HETATM   12  C   UNL     1      -9.745   8.612  70.278  1.00  0.00    -0.191 C  
HETATM   13  C   UNL     1      -8.547   9.532  70.206  1.00  0.00    -0.258 C  
HETATM   14  C   UNL     1      -8.519   8.341  71.118  1.00  0.00    -0.164 C  
ENDBRANCH   4  12
ENDBRANCH   3   4
TORSDOF 4
ENDMDL
MODEL      168
REMARK 921   NORMALIZED FREE ENERGY PREDICTED BY IDOCK:   -2.51 KCAL/MOL
REMARK 922        TOTAL FREE ENERGY PREDICTED BY IDOCK:   -3.54 KCAL/MOL
REMARK 923 INTER-LIGAND FREE ENERGY PREDICTED BY IDOCK:   -3.08 KCAL/MOL
REMARK 924 INTRA-LIGAND FREE ENERGY PREDICTED BY IDOCK:   -0.46 KCAL/MOL
REMARK 927      BINDING AFFINITY PREDICTED BY RF-SCORE:    0.00 PKD
ROOT
HETATM    1  C   UNL     1      -6.544  14.405  69.748  1.00  0.00    -0.142 C  
HETATM    2  C   UNL     1      -6.125  15.065  68.468  1.00  0.00    -0.096 C  
HETATM    3  C   UNL     1      -7.008  13.836  68.425  1.00  0.00    -0.103 C  
ENDROOT
BRANCH   3   4
HETATM    4  C   UNL     1      -8.477  13.899  68.069  1.00  0.00    -0.173 C  
BRANCH   4   5
HETATM    5  N   UNL     1      -8.630  14.530  66.777  1.00  0.00    -0.395 NA 
HETATM    6  H   UNL     1      -8.211  14.095  65.955  1.00  0.00     0.000 HD 
BRANCH   5   7
HETATM    7  C   UNL     1      -9.318  15.686  66.636  1.00  0.00    -0.265 A  
HETATM    8  N   UNL     1      -9.663  16.292  65.552  1.00  0.00    -0.487 NA 
HETATM    9  C   UNL     1     -10.404  17.466  66.007  1.00  0.00    -0.304 A  
HETATM   10  C   UNL     1     -10.506  17.324  67.508  1.00  0.00    -0.356 A  
HETATM   11  O   UNL     1      -9.690  16.210  67.828  1.00  0.00    -0.226 OA 
ENDBRANCH   5   7
ENDBRANCH   4   5
BRANCH   4  12
HETATM   12  C   UNL     1      -9.067  12.508  67.990  1.00  0.00    -0.200 C  
HETATM   13  C   UNL     1      -8.181  11.296  68.170  1.00  0.00    -0.140 C  
HETATM   14  C   UNL     1      -8.762  11.601  66.821  1.00  0.00    -0.189 C  
ENDBRANCH   4  12
ENDBRANCH   3   4
TORSDOF 4
ENDMDL
MODEL      169
REMARK 921   NORMALIZED FREE ENERGY PREDICTED BY IDOCK:   -2.51 KCAL/MOL
REMARK 922        TOTAL FREE ENERGY PREDICTED BY IDOCK:   -3.53 KCAL/MOL
REMARK 923 INTER-LIGAND FREE ENERGY PREDICTED BY IDOCK:   -3.23 KCAL/MOL
REMARK 924 INTRA-LIGAND FREE ENERGY PREDICTED BY IDOCK:   -0.30 KCAL/MOL
REMARK 927      BINDING AFFINITY PREDICTED BY RF-SCORE:    0.00 PKD
ROOT
HETATM    1  C   UNL     1     -13.464   7.271  71.602  1.00  0.00    -0.428 C  
HETATM    2  C   UNL     1     -13.327   8.759  71.471  1.00  0.00    -0.355 C  
HETATM    3  C   UNL     1     -12.171   7.942  72.010  1.00  0.00    -0.357 C  
ENDROOT
BRANCH   3   4
HETATM    4  C   UNL     1     -10.917   7.676  71.209  1.00  0.00    -0.238 C  
BRANCH   4   5
HETATM    5  N   UNL     1     -10.818   8.644  70.138  1.00  0.00    -0.235 NA 
HETATM    6  H   UNL     1     -10.947   9.634  70.346  1.00  0.00     0.000 HD 
BRANCH   5   7
HETATM    7  C   UNL     1     -10.558   8.262  68.866  1.00  0.00    -0.139 A  
HETATM    8  N   UNL     1     -10.074   8.961  67.898  1.00  0.00    -0.194 NA 
HETATM    9  C   UNL     1      -9.989   8.027  66.778  1.00  0.00    -0.274 A  
HETATM   10  C   UNL     1     -10.389   6.683  67.340  1.00  0.00    -0.220 A  
HETATM   11  O   UNL     1     -10.838   6.954  68.657  1.00  0.00    -0.219 OA 
ENDBRANCH   5   7
ENDBRANCH   4   5
BRANCH   4  12
HETATM   12  C   UNL     1      -9.688   7.807  72.080  1.00  0.00    -0.240 C  
HETATM   13  C   UNL     1      -8.462   8.525  71.562  1.00  0.00    -0.221 C  
HETATM   14  C   UNL     1      -8.425   7.039  71.764  1.00  0.00    -0.114 C  
ENDBRANCH   4  12
ENDBRANCH   3   4
TORSDOF 4
ENDMDL
MODEL      170
REMARK 921   NORMALIZED FREE ENERGY PREDICTED BY IDOCK:   -2.50 KCAL/MOL
REMARK 922        TOTAL FREE ENERGY PREDICTED BY IDOCK:   -3.52 KCAL/MOL
REMARK 923 INTER-LIGAND FREE ENERGY PREDICTED BY IDOCK:   -3.32 KCAL/MOL
REMARK 924 INTRA-LIGAND FREE ENERGY PREDICTED BY IDOCK:   -0.20 KCAL/MOL
REMARK 927      BINDING AFFINITY PREDICTED BY RF-SCORE:    0.00 PKD
ROOT
HETATM    1  C   UNL     1     -12.375   6.594  71.790  1.00  0.00    -0.385 C  
HETATM    2  C   UNL     1     -12.885   7.998  71.657  1.00  0.00    -0.350 C  
HETATM    3  C   UNL     1     -11.409   7.715  71.475  1.00  0.00    -0.286 C  
ENDROOT
BRANCH   3   4
HETATM    4  C   UNL     1     -10.734   7.748  70.122  1.00  0.00    -0.240 C  
BRANCH   4   5
HETATM    5  N   UNL     1      -9.300   7.668  70.301  1.00  0.00    -0.157 NA 
HETATM    6  H   UNL     1      -8.698   7.592  69.482  1.00  0.00     0.000 HD 
BRANCH   5   7
HETATM    7  C   UNL     1      -8.743   7.691  71.534  1.00  0.00    -0.120 A  
HETATM    8  N   UNL     1      -8.513   8.705  72.295  1.00  0.00    -0.372 NA 
HETATM    9  C   UNL     1      -7.929   8.131  73.505  1.00  0.00    -0.190 A  
HETATM   10  C   UNL     1      -7.999   6.633  73.317  1.00  0.00    -0.100 A  
HETATM   11  O   UNL     1      -8.437   6.451  71.981  1.00  0.00    -0.116 OA 
ENDBRANCH   5   7
ENDBRANCH   4   5
BRANCH   4  12
HETATM   12  C   UNL     1     -11.172   6.573  69.277  1.00  0.00    -0.390 C  
HETATM   13  C   UNL     1     -10.203   5.452  68.974  1.00  0.00    -0.291 C  
HETATM   14  C   UNL     1     -10.637   6.380  67.877  1.00  0.00    -0.321 C  
ENDBRANCH   4  12
ENDBRANCH   3   4
TORSDOF 4
ENDMDL
MODEL      171
REMARK 921   NORMALIZED FREE ENERGY PREDICTED BY IDOCK:   -2.50 KCAL/MOL
REMARK 922        TOTAL FREE ENERGY PREDICTED BY IDOCK:   -3.52 KCAL/MOL
REMARK 923 INTER-LIGAND FREE ENERGY PREDICTED BY IDOCK:   -3.09 KCAL/MOL
REMARK 924 INTRA-LIGAND FREE ENERGY PREDICTED BY IDOCK:   -0.43 KCAL/MOL
REMARK 927      BINDING AFFINITY PREDICTED BY RF-SCORE:    0.00 PKD
ROOT
HETATM    1  C   UNL     1     -11.092   6.218  67.031  1.00  0.00    -0.379 C  
HETATM    2  C   UNL     1      -9.730   6.755  66.705  1.00  0.00    -0.222 C  
HETATM    3  C   UNL     1     -10.208   6.740  68.142  1.00  0.00    -0.198 C  
ENDROOT
BRANCH   3   4
HETATM    4  C   UNL     1      -9.668   5.773  69.171  1.00  0.00    -0.147 C  
BRANCH   4   5
HETATM    5  N   UNL     1     -10.630   5.626  70.242  1.00  0.00    -0.290 NA 
HETATM    6  H   UNL     1     -11.262   4.826  70.239  1.00  0.00     0.000 HD 
BRANCH   5   7
HETATM    7  C   UNL     1     -10.708   6.530  71.245  1.00  0.00    -0.237 A  
HETATM    8  N   UNL     1      -9.751   7.140  71.855  1.00  0.00    -0.157 NA 
HETATM    9  C   UNL     1     -10.424   8.008  72.818  1.00  0.00    -0.345 A  
HETATM   10  C   UNL     1     -11.902   7.854  72.539  1.00  0.00    -0.335 A  
HETATM   11  O   UNL     1     -11.988   6.807  71.587  1.00  0.00    -0.311 OA 
ENDBRANCH   5   7
ENDBRANCH   4   5
BRANCH   4  12
HETATM   12  C   UNL     1      -9.435   4.412  68.554  1.00  0.00    -0.217 C  
HETATM   13  C   UNL     1      -9.013   3.247  69.422  1.00  0.00    -0.176 C  
HETATM   14  C   UNL     1      -8.041   3.837  68.444  1.00  0.00    -0.079 C  
ENDBRANCH   4  12
ENDBRANCH   3   4
TORSDOF 4
ENDMDL
MODEL      172
REMARK 921   NORMALIZED FREE ENERGY PREDICTED BY IDOCK:   -2.50 KCAL/MOL
REMARK 922        TOTAL FREE ENERGY PREDICTED BY IDOCK:   -3.52 KCAL/MOL
REMARK 923 INTER-LIGAND FREE ENERGY PREDICTED BY IDOCK:   -3.12 KCAL/MOL
REMARK 924 INTRA-LIGAND FREE ENERGY PREDICTED BY IDOCK:   -0.40 KCAL/MOL
REMARK 927      BINDING AFFINITY PREDICTED BY RF-SCORE:    0.00 PKD
ROOT
HETATM    1  C   UNL     1      -7.536   9.086  70.515  1.00  0.00    -0.113 C  
HETATM    2  C   UNL     1      -7.773  10.158  69.493  1.00  0.00    -0.155 C  
HETATM    3  C   UNL     1      -8.513   8.841  69.385  1.00  0.00    -0.125 C  
ENDROOT
BRANCH   3   4
HETATM    4  C   UNL     1      -9.986   8.705  69.700  1.00  0.00    -0.191 C  
BRANCH   4   5
HETATM    5  N   UNL     1     -10.344   7.303  69.720  1.00  0.00    -0.214 NA 
HETATM    6  H   UNL     1     -10.604   6.866  70.604  1.00  0.00     0.000 HD 
BRANCH   5   7
HETATM    7  C   UNL     1     -10.339   6.560  68.589  1.00  0.00    -0.191 A  
HETATM    8  N   UNL     1     -11.104   6.660  67.557  1.00  0.00    -0.323 NA 
HETATM    9  C   UNL     1     -10.626   5.625  66.644  1.00  0.00    -0.295 A  
HETATM   10  C   UNL     1      -9.400   5.037  67.304  1.00  0.00    -0.126 A  
HETATM   11  O   UNL     1      -9.359   5.627  68.593  1.00  0.00    -0.119 OA 
ENDBRANCH   5   7
ENDBRANCH   4   5
BRANCH   4  12
HETATM   12  C   UNL     1     -10.298   9.292  71.059  1.00  0.00    -0.388 C  
HETATM   13  C   UNL     1     -10.962   8.443  72.119  1.00  0.00    -0.411 C  
HETATM   14  C   UNL     1     -11.724   9.564  71.478  1.00  0.00    -0.472 C  
ENDBRANCH   4  12
ENDBRANCH   3   4
TORSDOF 4
ENDMDL
MODEL      173
REMARK 921   NORMALIZED FREE ENERGY PREDICTED BY IDOCK:   -2.49 KCAL/MOL
REMARK 922        TOTAL FREE ENERGY PREDICTED BY IDOCK:   -3.52 KCAL/MOL
REMARK 923 INTER-LIGAND FREE ENERGY PREDICTED BY IDOCK:   -3.31 KCAL/MOL
REMARK 924 INTRA-LIGAND FREE ENERGY PREDICTED BY IDOCK:   -0.21 KCAL/MOL
REMARK 927      BINDING AFFINITY PREDICTED BY RF-SCORE:    0.00 PKD
ROOT
HETATM    1  C   UNL     1     -11.551  10.402  70.286  1.00  0.00    -0.410 C  
HETATM    2  C   UNL     1     -12.131  11.676  69.747  1.00  0.00    -0.357 C  
HETATM    3  C   UNL     1     -10.946  11.038  69.054  1.00  0.00    -0.284 C  
ENDROOT
BRANCH   3   4
HETATM    4  C   UNL     1     -11.063  10.328  67.724  1.00  0.00    -0.269 C  
BRANCH   4   5
HETATM    5  N   UNL     1     -10.094  10.877  66.801  1.00  0.00    -0.208 NA 
HETATM    6  H   UNL     1      -9.828  10.338  65.977  1.00  0.00     0.000 HD 
BRANCH   5   7
HETATM    7  C   UNL     1      -9.533  12.090  67.009  1.00  0.00    -0.198 A  
HETATM    8  N   UNL     1      -8.429  12.374  67.612  1.00  0.00    -0.158 NA 
HETATM    9  C   UNL     1      -8.319  13.828  67.510  1.00  0.00    -0.192 A  
HETATM   10  C   UNL     1      -9.481  14.262  66.647  1.00  0.00    -0.286 A  
HETATM   11  O   UNL     1     -10.260  13.092  66.464  1.00  0.00    -0.266 OA 
ENDBRANCH   5   7
ENDBRANCH   4   5
BRANCH   4  12
HETATM   12  C   UNL     1     -10.782   8.850  67.881  1.00  0.00    -0.185 C  
HETATM   13  C   UNL     1      -9.367   8.364  68.101  1.00  0.00    -0.141 C  
HETATM   14  C   UNL     1     -10.060   8.077  66.802  1.00  0.00    -0.357 C  
ENDBRANCH   4  12
ENDBRANCH   3   4
TORSDOF 4
ENDMDL
MODEL      174
REMARK 921   NORMALIZED FREE ENERGY PREDICTED BY IDOCK:   -2.46 KCAL/MOL
REMARK 922        TOTAL FREE ENERGY PREDICTED BY IDOCK:   -3.48 KCAL/MOL
REMARK 923 INTER-LIGAND FREE ENERGY PREDICTED BY IDOCK:   -3.11 KCAL/MOL
REMARK 924 INTRA-LIGAND FREE ENERGY PREDICTED BY IDOCK:   -0.37 KCAL/MOL
REMARK 927      BINDING AFFINITY PREDICTED BY RF-SCORE:    0.00 PKD
ROOT
HETATM    1  C   UNL     1      -8.582  10.092  65.735  1.00  0.00    -0.159 C  
HETATM    2  C   UNL     1      -7.465   9.207  66.202  1.00  0.00    -0.095 C  
HETATM    3  C   UNL     1      -8.493   9.707  67.196  1.00  0.00    -0.131 C  
ENDROOT
BRANCH   3   4
HETATM    4  C   UNL     1      -9.557   8.811  67.788  1.00  0.00    -0.148 C  
BRANCH   4   5
HETATM    5  N   UNL     1     -10.624   9.626  68.327  1.00  0.00    -0.222 NA 
HETATM    6  H   UNL     1     -11.075  10.318  67.728  1.00  0.00     0.000 HD 
BRANCH   5   7
HETATM    7  C   UNL     1     -11.034   9.489  69.609  1.00  0.00    -0.212 A  
HETATM    8  N   UNL     1     -10.535   8.750  70.539  1.00  0.00    -0.201 NA 
HETATM    9  C   UNL     1     -11.364   9.026  71.711  1.00  0.00    -0.377 A  
HETATM   10  C   UNL     1     -12.310  10.126  71.287  1.00  0.00    -0.400 A  
HETATM   11  O   UNL     1     -12.094  10.281  69.895  1.00  0.00    -0.206 OA 
ENDBRANCH   5   7
ENDBRANCH   4   5
BRANCH   4  12
HETATM   12  C   UNL     1     -10.142   7.904  66.729  1.00  0.00    -0.352 C  
HETATM   13  C   UNL     1     -11.057   6.766  67.124  1.00  0.00    -0.404 C  
HETATM   14  C   UNL     1      -9.685   6.470  66.594  1.00  0.00    -0.201 C  
ENDBRANCH   4  12
ENDBRANCH   3   4
TORSDOF 4
ENDMDL
MODEL      175
REMARK 921   NORMALIZED FREE ENERGY PREDICTED BY IDOCK:   -2.45 KCAL/MOL
REMARK 922        TOTAL FREE ENERGY PREDICTED BY IDOCK:   -3.47 KCAL/MOL
REMARK 923 INTER-LIGAND FREE ENERGY PREDICTED BY IDOCK:   -3.20 KCAL/MOL
REMARK 924 INTRA-LIGAND FREE ENERGY PREDICTED BY IDOCK:   -0.27 KCAL/MOL
REMARK 927      BINDING AFFINITY PREDICTED BY RF-SCORE:    0.00 PKD
ROOT
HETATM    1  C   UNL     1      -9.866   3.821  71.330  1.00  0.00    -0.219 C  
HETATM    2  C   UNL     1      -8.914   4.342  70.294  1.00  0.00    -0.142 C  
HETATM    3  C   UNL     1     -10.247   5.030  70.503  1.00  0.00    -0.316 C  
ENDROOT
BRANCH   3   4
HETATM    4  C   UNL     1     -10.373   6.376  71.180  1.00  0.00    -0.205 C  
BRANCH   4   5
HETATM    5  N   UNL     1     -11.400   7.151  70.518  1.00  0.00    -0.288 NA 
HETATM    6  H   UNL     1     -12.322   6.740  70.376  1.00  0.00     0.000 HD 
BRANCH   5   7
HETATM    7  C   UNL     1     -11.161   8.409  70.083  1.00  0.00    -0.182 A  
HETATM    8  N   UNL     1     -10.567   8.789  69.004  1.00  0.00    -0.206 NA 
HETATM    9  C   UNL     1     -10.623  10.248  69.048  1.00  0.00    -0.224 A  
HETATM   10  C   UNL     1     -11.453  10.585  70.265  1.00  0.00    -0.333 A  
HETATM   11  O   UNL     1     -11.662   9.346  70.922  1.00  0.00    -0.281 OA 
ENDBRANCH   5   7
ENDBRANCH   4   5
BRANCH   4  12
HETATM   12  C   UNL     1     -10.767   6.210  72.631  1.00  0.00    -0.261 C  
HETATM   13  C   UNL     1     -10.736   7.397  73.567  1.00  0.00    -0.347 C  
HETATM   14  C   UNL     1      -9.734   6.292  73.731  1.00  0.00    -0.194 C  
ENDBRANCH   4  12
ENDBRANCH   3   4
TORSDOF 4
ENDMDL
MODEL      176
REMARK 921   NORMALIZED FREE ENERGY PREDICTED BY IDOCK:   -2.44 KCAL/MOL
REMARK 922        TOTAL FREE ENERGY PREDICTED BY IDOCK:   -3.45 KCAL/MOL
REMARK 923 INTER-LIGAND FREE ENERGY PREDICTED BY IDOCK:   -2.92 KCAL/MOL
REMARK 924 INTRA-LIGAND FREE ENERGY PREDICTED BY IDOCK:   -0.53 KCAL/MOL
REMARK 927      BINDING AFFINITY PREDICTED BY RF-SCORE:    0.00 PKD
ROOT
HETATM    1  C   UNL     1      -9.656   5.913  70.601  1.00  0.00    -0.208 C  
HETATM    2  C   UNL     1     -10.138   4.531  70.275  1.00  0.00    -0.230 C  
HETATM    3  C   UNL     1     -10.803   5.729  69.632  1.00  0.00    -0.418 C  
ENDROOT
BRANCH   3   4
HETATM    4  C   UNL     1     -10.604   6.089  68.177  1.00  0.00    -0.262 C  
BRANCH   4   5
HETATM    5  N   UNL     1      -9.676   7.194  68.079  1.00  0.00    -0.137 NA 
HETATM    6  H   UNL     1      -8.688   7.036  68.280  1.00  0.00     0.000 HD 
BRANCH   5   7
HETATM    7  C   UNL     1     -10.091   8.433  67.728  1.00  0.00    -0.207 A  
HETATM    8  N   UNL     1     -10.453   9.407  68.490  1.00  0.00    -0.206 NA 
HETATM    9  C   UNL     1     -10.769  10.496  67.569  1.00  0.00    -0.276 A  
HETATM   10  C   UNL     1     -10.398   9.985  66.196  1.00  0.00    -0.155 A  
HETATM   11  O   UNL     1     -10.074   8.619  66.388  1.00  0.00    -0.284 OA 
ENDBRANCH   5   7
ENDBRANCH   4   5
BRANCH   4  12
HETATM   12  C   UNL     1     -10.028   4.918  67.411  1.00  0.00    -0.209 C  
HETATM   13  C   UNL     1      -8.700   5.054  66.702  1.00  0.00    -0.108 C  
HETATM   14  C   UNL     1      -9.962   4.935  65.901  1.00  0.00    -0.222 C  
ENDBRANCH   4  12
ENDBRANCH   3   4
TORSDOF 4
ENDMDL
MODEL      177
REMARK 921   NORMALIZED FREE ENERGY PREDICTED BY IDOCK:   -2.40 KCAL/MOL
REMARK 922        TOTAL FREE ENERGY PREDICTED BY IDOCK:   -3.40 KCAL/MOL
REMARK 923 INTER-LIGAND FREE ENERGY PREDICTED BY IDOCK:   -2.97 KCAL/MOL
REMARK 924 INTRA-LIGAND FREE ENERGY PREDICTED BY IDOCK:   -0.44 KCAL/MOL
REMARK 927      BINDING AFFINITY PREDICTED BY RF-SCORE:    0.00 PKD
ROOT
HETATM    1  C   UNL     1     -11.107   6.378  68.758  1.00  0.00    -0.404 C  
HETATM    2  C   UNL     1     -10.117   5.291  69.051  1.00  0.00    -0.272 C  
HETATM    3  C   UNL     1      -9.960   6.646  69.707  1.00  0.00    -0.189 C  
ENDROOT
BRANCH   3   4
HETATM    4  C   UNL     1     -10.255   6.882  71.171  1.00  0.00    -0.195 C  
BRANCH   4   5
HETATM    5  N   UNL     1      -9.406   6.029  71.975  1.00  0.00    -0.150 NA 
HETATM    6  H   UNL     1      -8.394   6.140  71.922  1.00  0.00     0.000 HD 
BRANCH   5   7
HETATM    7  C   UNL     1      -9.929   5.088  72.793  1.00  0.00    -0.163 A  
HETATM    8  N   UNL     1     -11.160   4.727  72.923  1.00  0.00    -0.239 NA 
HETATM    9  C   UNL     1     -11.127   3.662  73.922  1.00  0.00    -0.141 A  
HETATM   10  C   UNL     1      -9.663   3.426  74.215  1.00  0.00    -0.108 A  
HETATM   11  O   UNL     1      -8.980   4.458  73.524  1.00  0.00    -0.101 OA 
ENDBRANCH   5   7
ENDBRANCH   4   5
BRANCH   4  12
HETATM   12  C   UNL     1      -9.972   8.320  71.548  1.00  0.00    -0.260 C  
HETATM   13  C   UNL     1     -10.910   9.420  71.104  1.00  0.00    -0.427 C  
HETATM   14  C   UNL     1      -9.538   9.325  70.506  1.00  0.00    -0.317 C  
ENDBRANCH   4  12
ENDBRANCH   3   4
TORSDOF 4
ENDMDL
MODEL      178
REMARK 921   NORMALIZED FREE ENERGY PREDICTED BY IDOCK:   -2.40 KCAL/MOL
REMARK 922        TOTAL FREE ENERGY PREDICTED BY IDOCK:   -3.40 KCAL/MOL
REMARK 923 INTER-LIGAND FREE ENERGY PREDICTED BY IDOCK:   -2.91 KCAL/MOL
REMARK 924 INTRA-LIGAND FREE ENERGY PREDICTED BY IDOCK:   -0.49 KCAL/MOL
REMARK 927      BINDING AFFINITY PREDICTED BY RF-SCORE:    0.00 PKD
ROOT
HETATM    1  C   UNL     1     -13.250   7.227  71.542  1.00  0.00    -0.434 C  
HETATM    2  C   UNL     1     -12.647   8.593  71.684  1.00  0.00    -0.381 C  
HETATM    3  C   UNL     1     -11.826   7.370  72.034  1.00  0.00    -0.335 C  
ENDROOT
BRANCH   3   4
HETATM    4  C   UNL     1     -10.692   6.872  71.167  1.00  0.00    -0.225 C  
BRANCH   4   5
HETATM    5  N   UNL     1     -10.722   5.427  71.122  1.00  0.00    -0.208 NA 
HETATM    6  H   UNL     1     -11.551   4.955  70.762  1.00  0.00     0.000 HD 
BRANCH   5   7
HETATM    7  C   UNL     1      -9.672   4.688  71.548  1.00  0.00    -0.175 A  
HETATM    8  N   UNL     1      -8.772   4.089  70.847  1.00  0.00    -0.075 NA 
HETATM    9  C   UNL     1      -7.884   3.479  71.834  1.00  0.00    -0.062 A  
HETATM   10  C   UNL     1      -8.385   3.954  73.178  1.00  0.00    -0.088 A  
HETATM   11  O   UNL     1      -9.596   4.636  72.898  1.00  0.00    -0.129 OA 
ENDBRANCH   5   7
ENDBRANCH   4   5
BRANCH   4  12
HETATM   12  C   UNL     1     -10.833   7.393  69.754  1.00  0.00    -0.246 C  
HETATM   13  C   UNL     1     -11.004   6.428  68.602  1.00  0.00    -0.404 C  
HETATM   14  C   UNL     1      -9.727   7.202  68.742  1.00  0.00    -0.145 C  
ENDBRANCH   4  12
ENDBRANCH   3   4
TORSDOF 4
ENDMDL
MODEL      179
REMARK 921   NORMALIZED FREE ENERGY PREDICTED BY IDOCK:   -2.40 KCAL/MOL
REMARK 922        TOTAL FREE ENERGY PREDICTED BY IDOCK:   -3.40 KCAL/MOL
REMARK 923 INTER-LIGAND FREE ENERGY PREDICTED BY IDOCK:   -2.92 KCAL/MOL
REMARK 924 INTRA-LIGAND FREE ENERGY PREDICTED BY IDOCK:   -0.48 KCAL/MOL
REMARK 927      BINDING AFFINITY PREDICTED BY RF-SCORE:    0.00 PKD
ROOT
HETATM    1  C   UNL     1     -10.223  11.665  68.493  1.00  0.00    -0.216 C  
HETATM    2  C   UNL     1      -9.385  12.893  68.299  1.00  0.00    -0.194 C  
HETATM    3  C   UNL     1      -9.143  11.675  67.434  1.00  0.00    -0.169 C  
ENDROOT
BRANCH   3   4
HETATM    4  C   UNL     1      -9.540  11.618  65.976  1.00  0.00    -0.228 C  
BRANCH   4   5
HETATM    5  N   UNL     1     -10.059  10.303  65.671  1.00  0.00    -0.281 NA 
HETATM    6  H   UNL     1     -11.056  10.189  65.489  1.00  0.00     0.000 HD 
BRANCH   5   7
HETATM    7  C   UNL     1      -9.248   9.221  65.625  1.00  0.00    -0.231 A  
HETATM    8  N   UNL     1      -9.329   8.125  66.299  1.00  0.00    -0.203 NA 
HETATM    9  C   UNL     1      -8.212   7.315  65.818  1.00  0.00    -0.135 A  
HETATM   10  C   UNL     1      -7.595   8.107  64.688  1.00  0.00    -0.111 A  
HETATM   11  O   UNL     1      -8.261   9.359  64.711  1.00  0.00    -0.128 OA 
ENDBRANCH   5   7
ENDBRANCH   4   5
BRANCH   4  12
HETATM   12  C   UNL     1     -10.620  12.634  65.676  1.00  0.00    -0.299 C  
HETATM   13  C   UNL     1     -11.990  12.177  65.228  1.00  0.00    -0.313 C  
HETATM   14  C   UNL     1     -11.085  12.879  64.259  1.00  0.00    -0.414 C  
ENDBRANCH   4  12
ENDBRANCH   3   4
TORSDOF 4
ENDMDL
MODEL      180
REMARK 921   NORMALIZED FREE ENERGY PREDICTED BY IDOCK:   -2.40 KCAL/MOL
REMARK 922        TOTAL FREE ENERGY PREDICTED BY IDOCK:   -3.40 KCAL/MOL
REMARK 923 INTER-LIGAND FREE ENERGY PREDICTED BY IDOCK:   -3.07 KCAL/MOL
REMARK 924 INTRA-LIGAND FREE ENERGY PREDICTED BY IDOCK:   -0.32 KCAL/MOL
REMARK 927      BINDING AFFINITY PREDICTED BY RF-SCORE:    0.00 PKD
ROOT
HETATM    1  C   UNL     1     -10.332   7.382  68.342  1.00  0.00    -0.224 C  
HETATM    2  C   UNL     1     -10.869   6.755  67.090  1.00  0.00    -0.462 C  
HETATM    3  C   UNL     1     -10.477   8.217  67.088  1.00  0.00    -0.386 C  
ENDROOT
BRANCH   3   4
HETATM    4  C   UNL     1      -9.234   8.727  66.394  1.00  0.00    -0.189 C  
BRANCH   4   5
HETATM    5  N   UNL     1      -9.121  10.154  66.603  1.00  0.00    -0.143 NA 
HETATM    6  H   UNL     1      -8.247  10.539  66.962  1.00  0.00     0.000 HD 
BRANCH   5   7
HETATM    7  C   UNL     1     -10.151  10.989  66.332  1.00  0.00    -0.229 A  
HETATM    8  N   UNL     1     -10.981  11.535  67.152  1.00  0.00    -0.270 NA 
HETATM    9  C   UNL     1     -11.851  12.349  66.306  1.00  0.00    -0.364 A  
HETATM   10  C   UNL     1     -11.272  12.247  64.914  1.00  0.00    -0.319 A  
HETATM   11  O   UNL     1     -10.250  11.270  65.012  1.00  0.00    -0.252 OA 
ENDBRANCH   5   7
ENDBRANCH   4   5
BRANCH   4  12
HETATM   12  C   UNL     1      -7.997   8.066  66.960  1.00  0.00    -0.108 C  
HETATM   13  C   UNL     1      -6.724   8.863  67.138  1.00  0.00    -0.066 C  
HETATM   14  C   UNL     1      -6.793   7.795  66.087  1.00  0.00    -0.061 C  
ENDBRANCH   4  12
ENDBRANCH   3   4
TORSDOF 4
ENDMDL
MODEL      181
REMARK 921   NORMALIZED FREE ENERGY PREDICTED BY IDOCK:   -2.39 KCAL/MOL
REMARK 922        TOTAL FREE ENERGY PREDICTED BY IDOCK:   -3.39 KCAL/MOL
REMARK 923 INTER-LIGAND FREE ENERGY PREDICTED BY IDOCK:   -2.92 KCAL/MOL
REMARK 924 INTRA-LIGAND FREE ENERGY PREDICTED BY IDOCK:   -0.47 KCAL/MOL
REMARK 927      BINDING AFFINITY PREDICTED BY RF-SCORE:    0.00 PKD
ROOT
HETATM    1  C   UNL     1     -10.304   6.489  69.033  1.00  0.00    -0.226 C  
HETATM    2  C   UNL     1     -10.109   7.772  68.281  1.00  0.00    -0.221 C  
HETATM    3  C   UNL     1     -10.802   7.789  69.627  1.00  0.00    -0.185 C  
ENDROOT
BRANCH   3   4
HETATM    4  C   UNL     1     -10.145   8.329  70.877  1.00  0.00    -0.190 C  
BRANCH   4   5
HETATM    5  N   UNL     1      -9.010   9.147  70.506  1.00  0.00    -0.213 NA 
HETATM    6  H   UNL     1      -9.158   9.973  69.927  1.00  0.00     0.000 HD 
BRANCH   5   7
HETATM    7  C   UNL     1      -7.758   8.837  70.912  1.00  0.00    -0.109 A  
HETATM    8  N   UNL     1      -6.980   9.498  71.699  1.00  0.00    -0.290 NA 
HETATM    9  C   UNL     1      -5.775   8.678  71.798  1.00  0.00    -0.050 A  
HETATM   10  C   UNL     1      -6.084   7.410  71.036  1.00  0.00    -0.035 A  
HETATM   11  O   UNL     1      -7.336   7.650  70.416  1.00  0.00    -0.068 OA 
ENDBRANCH   5   7
ENDBRANCH   4   5
BRANCH   4  12
HETATM   12  C   UNL     1     -11.112   9.188  71.661  1.00  0.00    -0.445 C  
HETATM   13  C   UNL     1     -12.603   9.027  71.464  1.00  0.00    -0.400 C  
HETATM   14  C   UNL     1     -11.918  10.270  70.979  1.00  0.00    -0.483 C  
ENDBRANCH   4  12
ENDBRANCH   3   4
TORSDOF 4
ENDMDL
MODEL      182
REMARK 921   NORMALIZED FREE ENERGY PREDICTED BY IDOCK:   -2.35 KCAL/MOL
REMARK 922        TOTAL FREE ENERGY PREDICTED BY IDOCK:   -3.34 KCAL/MOL
REMARK 923 INTER-LIGAND FREE ENERGY PREDICTED BY IDOCK:   -2.85 KCAL/MOL
REMARK 924 INTRA-LIGAND FREE ENERGY PREDICTED BY IDOCK:   -0.50 KCAL/MOL
REMARK 927      BINDING AFFINITY PREDICTED BY RF-SCORE:    0.00 PKD
ROOT
HETATM    1  C   UNL     1      -7.476   5.671  65.885  1.00  0.00    -0.078 C  
HETATM    2  C   UNL     1      -6.706   6.001  67.129  1.00  0.00    -0.061 C  
HETATM    3  C   UNL     1      -7.593   7.052  66.494  1.00  0.00    -0.089 C  
ENDROOT
BRANCH   3   4
HETATM    4  C   UNL     1      -8.910   7.482  67.099  1.00  0.00    -0.125 C  
BRANCH   4   5
HETATM    5  N   UNL     1      -9.706   8.147  66.090  1.00  0.00    -0.446 NA 
HETATM    6  H   UNL     1     -10.096   7.602  65.322  1.00  0.00     0.000 HD 
BRANCH   5   7
HETATM    7  C   UNL     1      -9.942   9.478  66.147  1.00  0.00    -0.272 A  
HETATM    8  N   UNL     1      -9.788  10.363  65.222  1.00  0.00    -0.275 NA 
HETATM    9  C   UNL     1     -10.222  11.615  65.837  1.00  0.00    -0.238 A  
HETATM   10  C   UNL     1     -10.749  11.235  67.201  1.00  0.00    -0.253 A  
HETATM   11  O   UNL     1     -10.430   9.862  67.349  1.00  0.00    -0.232 OA 
ENDBRANCH   5   7
ENDBRANCH   4   5
BRANCH   4  12
HETATM   12  C   UNL     1      -9.685   6.283  67.599  1.00  0.00    -0.126 C  
HETATM   13  C   UNL     1     -11.056   5.978  67.039  1.00  0.00    -0.263 C  
HETATM   14  C   UNL     1     -10.919   6.458  68.454  1.00  0.00    -0.390 C  
ENDBRANCH   4  12
ENDBRANCH   3   4
TORSDOF 4
ENDMDL
MODEL      183
REMARK 921   NORMALIZED FREE ENERGY PREDICTED BY IDOCK:   -2.35 KCAL/MOL
REMARK 922        TOTAL FREE ENERGY PREDICTED BY IDOCK:   -3.34 KCAL/MOL
REMARK 923 INTER-LIGAND FREE ENERGY PREDICTED BY IDOCK:   -2.89 KCAL/MOL
REMARK 924 INTRA-LIGAND FREE ENERGY PREDICTED BY IDOCK:   -0.44 KCAL/MOL
REMARK 927      BINDING AFFINITY PREDICTED BY RF-SCORE:    0.00 PKD
ROOT
HETATM    1  C   UNL     1      -6.665  10.291  64.900  1.00  0.00    -0.099 C  
HETATM    2  C   UNL     1      -6.664   9.939  66.358  1.00  0.00    -0.085 C  
HETATM    3  C   UNL     1      -7.895  10.567  65.738  1.00  0.00    -0.154 C  
ENDROOT
BRANCH   3   4
HETATM    4  C   UNL     1      -9.161   9.786  65.469  1.00  0.00    -0.215 C  
BRANCH   4   5
HETATM    5  N   UNL     1      -9.598   9.146  66.690  1.00  0.00    -0.185 NA 
HETATM    6  H   UNL     1      -9.892   9.723  67.479  1.00  0.00     0.000 HD 
BRANCH   5   7
HETATM    7  C   UNL     1      -9.625   7.799  66.807  1.00  0.00    -0.212 A  
HETATM    8  N   UNL     1      -8.638   6.984  66.959  1.00  0.00    -0.120 NA 
HETATM    9  C   UNL     1      -9.261   5.666  67.053  1.00  0.00    -0.117 A  
HETATM   10  C   UNL     1     -10.751   5.921  67.052  1.00  0.00    -0.318 A  
HETATM   11  O   UNL     1     -10.886   7.307  66.784  1.00  0.00    -0.311 OA 
ENDBRANCH   5   7
ENDBRANCH   4   5
BRANCH   4  12
HETATM   12  C   UNL     1     -10.265  10.705  64.994  1.00  0.00    -0.380 C  
HETATM   13  C   UNL     1     -10.096  11.501  63.720  1.00  0.00    -0.407 C  
HETATM   14  C   UNL     1     -10.100  12.207  65.044  1.00  0.00    -0.289 C  
ENDBRANCH   4  12
ENDBRANCH   3   4
TORSDOF 4
ENDMDL
MODEL      184
REMARK 921   NORMALIZED FREE ENERGY PREDICTED BY IDOCK:   -2.34 KCAL/MOL
REMARK 922        TOTAL FREE ENERGY PREDICTED BY IDOCK:   -3.33 KCAL/MOL
REMARK 923 INTER-LIGAND FREE ENERGY PREDICTED BY IDOCK:   -3.28 KCAL/MOL
REMARK 924 INTRA-LIGAND FREE ENERGY PREDICTED BY IDOCK:   -0.05 KCAL/MOL
REMARK 927      BINDING AFFINITY PREDICTED BY RF-SCORE:    0.00 PKD
ROOT
HETATM    1  C   UNL     1     -12.174   6.814  71.559  1.00  0.00    -0.413 C  
HETATM    2  C   UNL     1     -11.891   6.534  70.113  1.00  0.00    -0.331 C  
HETATM    3  C   UNL     1     -11.232   7.715  70.793  1.00  0.00    -0.282 C  
ENDROOT
BRANCH   3   4
HETATM    4  C   UNL     1      -9.765   7.730  71.159  1.00  0.00    -0.158 C  
BRANCH   4   5
HETATM    5  N   UNL     1      -9.028   8.467  70.155  1.00  0.00    -0.140 NA 
HETATM    6  H   UNL     1      -8.010   8.501  70.207  1.00  0.00     0.000 HD 
BRANCH   5   7
HETATM    7  C   UNL     1      -9.663   9.111  69.149  1.00  0.00    -0.163 A  
HETATM    8  N   UNL     1     -10.169  10.297  69.145  1.00  0.00    -0.205 NA 
HETATM    9  C   UNL     1     -10.694  10.467  67.792  1.00  0.00    -0.279 A  
HETATM   10  C   UNL     1     -10.277   9.226  67.037  1.00  0.00    -0.262 A  
HETATM   11  O   UNL     1      -9.714   8.371  68.017  1.00  0.00    -0.150 OA 
ENDBRANCH   5   7
ENDBRANCH   4   5
BRANCH   4  12
HETATM   12  C   UNL     1      -9.554   8.410  72.494  1.00  0.00    -0.358 C  
HETATM   13  C   UNL     1      -8.256   8.223  73.245  1.00  0.00    -0.238 C  
HETATM   14  C   UNL     1      -9.518   7.610  73.775  1.00  0.00    -0.300 C  
ENDBRANCH   4  12
ENDBRANCH   3   4
TORSDOF 4
ENDMDL
MODEL      185
REMARK 921   NORMALIZED FREE ENERGY PREDICTED BY IDOCK:   -2.32 KCAL/MOL
REMARK 922        TOTAL FREE ENERGY PREDICTED BY IDOCK:   -3.30 KCAL/MOL
REMARK 923 INTER-LIGAND FREE ENERGY PREDICTED BY IDOCK:   -2.88 KCAL/MOL
REMARK 924 INTRA-LIGAND FREE ENERGY PREDICTED BY IDOCK:   -0.42 KCAL/MOL
REMARK 927      BINDING AFFINITY PREDICTED BY RF-SCORE:    0.00 PKD
ROOT
HETATM    1  C   UNL     1      -8.676   4.570  72.455  1.00  0.00    -0.124 C  
HETATM    2  C   UNL     1      -7.985   5.814  72.929  1.00  0.00    -0.108 C  
HETATM    3  C   UNL     1      -8.535   5.751  71.520  1.00  0.00    -0.128 C  
ENDROOT
BRANCH   3   4
HETATM    4  C   UNL     1      -9.774   6.507  71.093  1.00  0.00    -0.174 C  
BRANCH   4   5
HETATM    5  N   UNL     1     -10.572   5.667  70.227  1.00  0.00    -0.290 NA 
HETATM    6  H   UNL     1     -11.261   5.038  70.637  1.00  0.00     0.000 HD 
BRANCH   5   7
HETATM    7  C   UNL     1     -10.422   5.701  68.882  1.00  0.00    -0.240 A  
HETATM    8  N   UNL     1      -9.956   4.788  68.101  1.00  0.00    -0.122 NA 
HETATM    9  C   UNL     1     -10.056   5.365  66.762  1.00  0.00    -0.214 A  
HETATM   10  C   UNL     1     -10.767   6.686  66.943  1.00  0.00    -0.331 A  
HETATM   11  O   UNL     1     -10.865   6.862  68.346  1.00  0.00    -0.215 OA 
ENDBRANCH   5   7
ENDBRANCH   4   5
BRANCH   4  12
HETATM   12  C   UNL     1     -10.613   6.878  72.296  1.00  0.00    -0.244 C  
HETATM   13  C   UNL     1     -11.851   7.729  72.125  1.00  0.00    -0.370 C  
HETATM   14  C   UNL     1     -10.645   8.299  72.812  1.00  0.00    -0.321 C  
ENDBRANCH   4  12
ENDBRANCH   3   4
TORSDOF 4
ENDMDL
MODEL      186
REMARK 921   NORMALIZED FREE ENERGY PREDICTED BY IDOCK:   -2.30 KCAL/MOL
REMARK 922        TOTAL FREE ENERGY PREDICTED BY IDOCK:   -3.28 KCAL/MOL
REMARK 923 INTER-LIGAND FREE ENERGY PREDICTED BY IDOCK:   -2.93 KCAL/MOL
REMARK 924 INTRA-LIGAND FREE ENERGY PREDICTED BY IDOCK:   -0.36 KCAL/MOL
REMARK 927      BINDING AFFINITY PREDICTED BY RF-SCORE:    0.00 PKD
ROOT
HETATM    1  C   UNL     1     -11.874  12.753  67.848  1.00  0.00    -0.392 C  
HETATM    2  C   UNL     1     -12.007  13.859  68.852  1.00  0.00    -0.393 C  
HETATM    3  C   UNL     1     -10.728  13.052  68.790  1.00  0.00    -0.250 C  
ENDROOT
BRANCH   3   4
HETATM    4  C   UNL     1      -9.439  13.609  68.229  1.00  0.00    -0.213 C  
BRANCH   4   5
HETATM    5  N   UNL     1      -8.976  14.688  69.074  1.00  0.00    -0.338 NA 
HETATM    6  H   UNL     1      -9.365  14.791  70.011  1.00  0.00     0.000 HD 
BRANCH   5   7
HETATM    7  C   UNL     1      -8.037  15.563  68.645  1.00  0.00    -0.159 A  
HETATM    8  N   UNL     1      -7.821  15.989  67.449  1.00  0.00    -0.147 NA 
HETATM    9  C   UNL     1      -6.711  16.929  67.589  1.00  0.00    -0.142 A  
HETATM   10  C   UNL     1      -6.450  17.029  69.074  1.00  0.00    -0.202 A  
HETATM   11  O   UNL     1      -7.278  16.038  69.660  1.00  0.00    -0.193 OA 
ENDBRANCH   5   7
ENDBRANCH   4   5
BRANCH   4  12
HETATM   12  C   UNL     1      -8.367  12.542  68.194  1.00  0.00    -0.175 C  
HETATM   13  C   UNL     1      -8.274  11.596  67.018  1.00  0.00    -0.170 C  
HETATM   14  C   UNL     1      -8.719  11.081  68.354  1.00  0.00    -0.150 C  
ENDBRANCH   4  12
ENDBRANCH   3   4
TORSDOF 4
ENDMDL
MODEL      187
REMARK 921   NORMALIZED FREE ENERGY PREDICTED BY IDOCK:   -2.28 KCAL/MOL
REMARK 922        TOTAL FREE ENERGY PREDICTED BY IDOCK:   -3.25 KCAL/MOL
REMARK 923 INTER-LIGAND FREE ENERGY PREDICTED BY IDOCK:   -3.28 KCAL/MOL
REMARK 924 INTRA-LIGAND FREE ENERGY PREDICTED BY IDOCK:    0.03 KCAL/MOL
REMARK 927      BINDING AFFINITY PREDICTED BY RF-SCORE:    0.00 PKD
ROOT
HETATM    1  C   UNL     1     -11.173  14.239  67.314  1.00  0.00    -0.330 C  
HETATM    2  C   UNL     1     -11.870  14.368  68.636  1.00  0.00    -0.366 C  
HETATM    3  C   UNL     1     -11.759  13.011  67.975  1.00  0.00    -0.397 C  
ENDROOT
BRANCH   3   4
HETATM    4  C   UNL     1     -10.829  11.931  68.481  1.00  0.00    -0.221 C  
BRANCH   4   5
HETATM    5  N   UNL     1     -11.599  10.749  68.803  1.00  0.00    -0.386 NA 
HETATM    6  H   UNL     1     -12.557  10.668  68.464  1.00  0.00     0.000 HD 
BRANCH   5   7
HETATM    7  C   UNL     1     -11.072   9.749  69.547  1.00  0.00    -0.192 A  
HETATM    8  N   UNL     1     -10.764   9.752  70.798  1.00  0.00    -0.321 NA 
HETATM    9  C   UNL     1     -10.268   8.403  71.058  1.00  0.00    -0.199 A  
HETATM   10  C   UNL     1     -10.478   7.640  69.771  1.00  0.00    -0.232 A  
HETATM   11  O   UNL     1     -10.899   8.614  68.831  1.00  0.00    -0.133 OA 
ENDBRANCH   5   7
ENDBRANCH   4   5
BRANCH   4  12
HETATM   12  C   UNL     1      -9.814  11.560  67.422  1.00  0.00    -0.202 C  
HETATM   13  C   UNL     1      -8.516  10.893  67.815  1.00  0.00    -0.124 C  
HETATM   14  C   UNL     1      -8.504  12.305  67.308  1.00  0.00    -0.181 C  
ENDBRANCH   4  12
ENDBRANCH   3   4
TORSDOF 4
ENDMDL
MODEL      188
REMARK 921   NORMALIZED FREE ENERGY PREDICTED BY IDOCK:   -2.26 KCAL/MOL
REMARK 922        TOTAL FREE ENERGY PREDICTED BY IDOCK:   -3.23 KCAL/MOL
REMARK 923 INTER-LIGAND FREE ENERGY PREDICTED BY IDOCK:   -2.76 KCAL/MOL
REMARK 924 INTRA-LIGAND FREE ENERGY PREDICTED BY IDOCK:   -0.47 KCAL/MOL
REMARK 927      BINDING AFFINITY PREDICTED BY RF-SCORE:    0.00 PKD
ROOT
HETATM    1  C   UNL     1      -9.484   4.653  68.729  1.00  0.00    -0.214 C  
HETATM    2  C   UNL     1     -10.609   5.224  67.918  1.00  0.00    -0.098 C  
HETATM    3  C   UNL     1     -10.531   5.513  69.402  1.00  0.00    -0.360 C  
ENDROOT
BRANCH   3   4
HETATM    4  C   UNL     1     -10.134   6.865  69.950  1.00  0.00    -0.188 C  
BRANCH   4   5
HETATM    5  N   UNL     1     -10.346   7.874  68.935  1.00  0.00    -0.213 NA 
HETATM    6  H   UNL     1     -11.124   7.771  68.283  1.00  0.00     0.000 HD 
BRANCH   5   7
HETATM    7  C   UNL     1      -9.533   8.951  68.834  1.00  0.00    -0.152 A  
HETATM    8  N   UNL     1      -9.838  10.200  68.916  1.00  0.00    -0.180 NA 
HETATM    9  C   UNL     1      -8.565  10.900  68.759  1.00  0.00    -0.159 A  
HETATM   10  C   UNL     1      -7.512   9.817  68.703  1.00  0.00    -0.075 A  
HETATM   11  O   UNL     1      -8.239   8.601  68.651  1.00  0.00    -0.118 OA 
ENDBRANCH   5   7
ENDBRANCH   4   5
BRANCH   4  12
HETATM   12  C   UNL     1     -10.976   7.221  71.155  1.00  0.00    -0.267 C  
HETATM   13  C   UNL     1     -11.738   6.145  71.894  1.00  0.00    -0.337 C  
HETATM   14  C   UNL     1     -12.485   7.168  71.091  1.00  0.00    -0.400 C  
ENDBRANCH   4  12
ENDBRANCH   3   4
TORSDOF 4
ENDMDL
MODEL      189
REMARK 921   NORMALIZED FREE ENERGY PREDICTED BY IDOCK:   -2.24 KCAL/MOL
REMARK 922        TOTAL FREE ENERGY PREDICTED BY IDOCK:   -3.20 KCAL/MOL
REMARK 923 INTER-LIGAND FREE ENERGY PREDICTED BY IDOCK:   -2.93 KCAL/MOL
REMARK 924 INTRA-LIGAND FREE ENERGY PREDICTED BY IDOCK:   -0.28 KCAL/MOL
REMARK 927      BINDING AFFINITY PREDICTED BY RF-SCORE:    0.00 PKD
ROOT
HETATM    1  C   UNL     1     -10.287  12.124  67.086  1.00  0.00    -0.233 C  
HETATM    2  C   UNL     1      -8.877  11.662  66.866  1.00  0.00    -0.190 C  
HETATM    3  C   UNL     1      -9.626  11.224  68.107  1.00  0.00    -0.186 C  
ENDROOT
BRANCH   3   4
HETATM    4  C   UNL     1     -10.143   9.815  68.293  1.00  0.00    -0.163 C  
BRANCH   4   5
HETATM    5  N   UNL     1     -10.174   9.143  67.012  1.00  0.00    -0.247 NA 
HETATM    6  H   UNL     1     -10.200   9.699  66.157  1.00  0.00     0.000 HD 
BRANCH   5   7
HETATM    7  C   UNL     1     -10.170   7.793  66.926  1.00  0.00    -0.303 A  
HETATM    8  N   UNL     1     -11.112   6.965  67.222  1.00  0.00    -0.328 NA 
HETATM    9  C   UNL     1     -10.557   5.651  66.906  1.00  0.00    -0.296 A  
HETATM   10  C   UNL     1      -9.211   5.920  66.275  1.00  0.00    -0.158 A  
HETATM   11  O   UNL     1      -9.006   7.315  66.429  1.00  0.00    -0.148 OA 
ENDBRANCH   5   7
ENDBRANCH   4   5
BRANCH   4  12
HETATM   12  C   UNL     1      -9.236   9.031  69.216  1.00  0.00    -0.145 C  
HETATM   13  C   UNL     1      -9.361   9.188  70.715  1.00  0.00    -0.325 C  
HETATM   14  C   UNL     1      -8.150   9.721  70.008  1.00  0.00    -0.203 C  
ENDBRANCH   4  12
ENDBRANCH   3   4
TORSDOF 4
ENDMDL
MODEL      190
REMARK 921   NORMALIZED FREE ENERGY PREDICTED BY IDOCK:   -2.23 KCAL/MOL
REMARK 922        TOTAL FREE ENERGY PREDICTED BY IDOCK:   -3.19 KCAL/MOL
REMARK 923 INTER-LIGAND FREE ENERGY PREDICTED BY IDOCK:   -2.81 KCAL/MOL
REMARK 924 INTRA-LIGAND FREE ENERGY PREDICTED BY IDOCK:   -0.38 KCAL/MOL
REMARK 927      BINDING AFFINITY PREDICTED BY RF-SCORE:    0.00 PKD
ROOT
HETATM    1  C   UNL     1      -9.752   8.769  71.941  1.00  0.00    -0.386 C  
HETATM    2  C   UNL     1     -11.138   8.590  71.396  1.00  0.00    -0.328 C  
HETATM    3  C   UNL     1     -10.103   9.339  70.584  1.00  0.00    -0.339 C  
ENDROOT
BRANCH   3   4
HETATM    4  C   UNL     1      -9.456   8.755  69.349  1.00  0.00    -0.161 C  
BRANCH   4   5
HETATM    5  N   UNL     1     -10.283   7.684  68.836  1.00  0.00    -0.205 NA 
HETATM    6  H   UNL     1     -11.185   7.907  68.417  1.00  0.00     0.000 HD 
BRANCH   5   7
HETATM    7  C   UNL     1      -9.882   6.394  68.901  1.00  0.00    -0.137 A  
HETATM    8  N   UNL     1     -10.372   5.434  69.607  1.00  0.00    -0.273 NA 
HETATM    9  C   UNL     1      -9.562   4.269  69.255  1.00  0.00    -0.190 A  
HETATM   10  C   UNL     1      -8.640   4.736  68.153  1.00  0.00    -0.102 A  
HETATM   11  O   UNL     1      -8.846   6.136  68.070  1.00  0.00    -0.114 OA 
ENDBRANCH   5   7
ENDBRANCH   4   5
BRANCH   4  12
HETATM   12  C   UNL     1      -9.319   9.806  68.270  1.00  0.00    -0.134 C  
HETATM   13  C   UNL     1     -10.315   9.862  67.133  1.00  0.00    -0.304 C  
HETATM   14  C   UNL     1      -8.903   9.430  66.866  1.00  0.00    -0.141 C  
ENDBRANCH   4  12
ENDBRANCH   3   4
TORSDOF 4
ENDMDL
MODEL      191
REMARK 921   NORMALIZED FREE ENERGY PREDICTED BY IDOCK:   -2.20 KCAL/MOL
REMARK 922        TOTAL FREE ENERGY PREDICTED BY IDOCK:   -3.15 KCAL/MOL
REMARK 923 INTER-LIGAND FREE ENERGY PREDICTED BY IDOCK:   -2.93 KCAL/MOL
REMARK 924 INTRA-LIGAND FREE ENERGY PREDICTED BY IDOCK:   -0.23 KCAL/MOL
REMARK 927      BINDING AFFINITY PREDICTED BY RF-SCORE:    0.00 PKD
ROOT
HETATM    1  C   UNL     1      -7.851  15.584  69.282  1.00  0.00    -0.227 C  
HETATM    2  C   UNL     1      -9.346  15.560  69.395  1.00  0.00    -0.279 C  
HETATM    3  C   UNL     1      -8.667  14.810  68.269  1.00  0.00    -0.170 C  
ENDROOT
BRANCH   3   4
HETATM    4  C   UNL     1      -8.565  13.302  68.238  1.00  0.00    -0.169 C  
BRANCH   4   5
HETATM    5  N   UNL     1      -8.733  12.839  66.878  1.00  0.00    -0.310 NA 
HETATM    6  H   UNL     1      -7.947  12.399  66.399  1.00  0.00     0.000 HD 
BRANCH   5   7
HETATM    7  C   UNL     1      -9.912  12.978  66.229  1.00  0.00    -0.283 A  
HETATM    8  N   UNL     1     -10.133  13.010  64.960  1.00  0.00    -0.252 NA 
HETATM    9  C   UNL     1     -11.583  13.150  64.843  1.00  0.00    -0.323 A  
HETATM   10  C   UNL     1     -12.113  13.062  66.256  1.00  0.00    -0.386 A  
HETATM   11  O   UNL     1     -10.960  13.059  67.081  1.00  0.00    -0.260 OA 
ENDBRANCH   5   7
ENDBRANCH   4   5
BRANCH   4  12
HETATM   12  C   UNL     1      -7.207  12.848  68.728  1.00  0.00    -0.081 C  
HETATM   13  C   UNL     1      -6.113  12.518  67.737  1.00  0.00    -0.119 C  
HETATM   14  C   UNL     1      -6.750  11.420  68.537  1.00  0.00    -0.069 C  
ENDBRANCH   4  12
ENDBRANCH   3   4
TORSDOF 4
ENDMDL
MODEL      192
REMARK 921   NORMALIZED FREE ENERGY PREDICTED BY IDOCK:   -2.17 KCAL/MOL
REMARK 922        TOTAL FREE ENERGY PREDICTED BY IDOCK:   -3.12 KCAL/MOL
REMARK 923 INTER-LIGAND FREE ENERGY PREDICTED BY IDOCK:   -2.94 KCAL/MOL
REMARK 924 INTRA-LIGAND FREE ENERGY PREDICTED BY IDOCK:   -0.19 KCAL/MOL
REMARK 927      BINDING AFFINITY PREDICTED BY RF-SCORE:    0.00 PKD
ROOT
HETATM    1  C   UNL     1     -10.720  12.930  65.877  1.00  0.00    -0.291 C  
HETATM    2  C   UNL     1     -10.783  12.644  64.406  1.00  0.00    -0.384 C  
HETATM    3  C   UNL     1     -10.067  11.680  65.329  1.00  0.00    -0.305 C  
ENDROOT
BRANCH   3   4
HETATM    4  C   UNL     1     -10.637  10.329  65.697  1.00  0.00     0.026 C  
BRANCH   4   5
HETATM    5  N   UNL     1      -9.738   9.290  65.242  1.00  0.00    -0.454 NA 
HETATM    6  H   UNL     1      -9.882   8.332  65.559  1.00  0.00     0.000 HD 
BRANCH   5   7
HETATM    7  C   UNL     1      -8.711   9.566  64.405  1.00  0.00    -0.208 A  
HETATM    8  N   UNL     1      -7.464   9.728  64.688  1.00  0.00    -0.128 NA 
HETATM    9  C   UNL     1      -6.825   9.974  63.397  1.00  0.00    -0.132 A  
HETATM   10  C   UNL     1      -7.914   9.794  62.365  1.00  0.00    -0.117 A  
HETATM   11  O   UNL     1      -9.108   9.639  63.114  1.00  0.00    -0.259 OA 
ENDBRANCH   5   7
ENDBRANCH   4   5
BRANCH   4  12
HETATM   12  C   UNL     1     -10.786  10.203  67.197  1.00  0.00    -0.257 C  
HETATM   13  C   UNL     1      -9.579  10.349  68.095  1.00  0.00    -0.155 C  
HETATM   14  C   UNL     1     -10.230   9.007  67.935  1.00  0.00    -0.272 C  
ENDBRANCH   4  12
ENDBRANCH   3   4
TORSDOF 4
ENDMDL
MODEL      193
REMARK 921   NORMALIZED FREE ENERGY PREDICTED BY IDOCK:   -2.16 KCAL/MOL
REMARK 922        TOTAL FREE ENERGY PREDICTED BY IDOCK:   -3.10 KCAL/MOL
REMARK 923 INTER-LIGAND FREE ENERGY PREDICTED BY IDOCK:   -2.76 KCAL/MOL
REMARK 924 INTRA-LIGAND FREE ENERGY PREDICTED BY IDOCK:   -0.34 KCAL/MOL
REMARK 927      BINDING AFFINITY PREDICTED BY RF-SCORE:    0.00 PKD
ROOT
HETATM    1  C   UNL     1      -9.537  10.512  63.988  1.00  0.00    -0.367 C  
HETATM    2  C   UNL     1      -8.998   9.130  64.209  1.00  0.00    -0.076 C  
HETATM    3  C   UNL     1      -8.406  10.297  64.970  1.00  0.00    -0.169 C  
ENDROOT
BRANCH   3   4
HETATM    4  C   UNL     1      -8.657  10.522  66.444  1.00  0.00    -0.144 C  
BRANCH   4   5
HETATM    5  N   UNL     1     -10.072  10.728  66.663  1.00  0.00    -0.210 NA 
HETATM    6  H   UNL     1     -10.737  10.039  66.314  1.00  0.00     0.000 HD 
BRANCH   5   7
HETATM    7  C   UNL     1     -10.530  11.818  67.322  1.00  0.00    -0.214 A  
HETATM    8  N   UNL     1     -11.749  12.170  67.545  1.00  0.00    -0.498 NA 
HETATM    9  C   UNL     1     -11.638  13.405  68.318  1.00  0.00    -0.344 A  
HETATM   10  C   UNL     1     -10.161  13.589  68.578  1.00  0.00    -0.229 A  
HETATM   11  O   UNL     1      -9.525  12.581  67.811  1.00  0.00    -0.184 OA 
ENDBRANCH   5   7
ENDBRANCH   4   5
BRANCH   4  12
HETATM   12  C   UNL     1      -8.224   9.316  67.249  1.00  0.00    -0.121 C  
HETATM   13  C   UNL     1      -8.776   9.093  68.639  1.00  0.00    -0.129 C  
HETATM   14  C   UNL     1      -7.336   9.470  68.461  1.00  0.00    -0.079 C  
ENDBRANCH   4  12
ENDBRANCH   3   4
TORSDOF 4
ENDMDL
MODEL      194
REMARK 921   NORMALIZED FREE ENERGY PREDICTED BY IDOCK:   -2.15 KCAL/MOL
REMARK 922        TOTAL FREE ENERGY PREDICTED BY IDOCK:   -3.10 KCAL/MOL
REMARK 923 INTER-LIGAND FREE ENERGY PREDICTED BY IDOCK:   -2.66 KCAL/MOL
REMARK 924 INTRA-LIGAND FREE ENERGY PREDICTED BY IDOCK:   -0.43 KCAL/MOL
REMARK 927      BINDING AFFINITY PREDICTED BY RF-SCORE:    0.00 PKD
ROOT
HETATM    1  C   UNL     1     -11.218  14.386  67.379  1.00  0.00    -0.337 C  
HETATM    2  C   UNL     1     -11.943  13.623  68.447  1.00  0.00    -0.391 C  
HETATM    3  C   UNL     1     -11.151  12.875  67.396  1.00  0.00    -0.307 C  
ENDROOT
BRANCH   3   4
HETATM    4  C   UNL     1      -9.833  12.198  67.697  1.00  0.00    -0.194 C  
BRANCH   4   5
HETATM    5  N   UNL     1      -9.667  11.060  66.819  1.00  0.00    -0.190 NA 
HETATM    6  H   UNL     1      -9.476  11.216  65.830  1.00  0.00     0.000 HD 
BRANCH   5   7
HETATM    7  C   UNL     1      -9.762   9.794  67.285  1.00  0.00    -0.169 A  
HETATM    8  N   UNL     1     -10.803   9.038  67.356  1.00  0.00    -0.154 NA 
HETATM    9  C   UNL     1     -10.307   7.781  67.912  1.00  0.00    -0.217 A  
HETATM   10  C   UNL     1      -8.808   7.946  68.012  1.00  0.00    -0.124 A  
HETATM   11  O   UNL     1      -8.566   9.304  67.687  1.00  0.00    -0.116 OA 
ENDBRANCH   5   7
ENDBRANCH   4   5
BRANCH   4  12
HETATM   12  C   UNL     1      -8.679  13.149  67.462  1.00  0.00    -0.201 C  
HETATM   13  C   UNL     1      -7.269  12.616  67.340  1.00  0.00    -0.138 C  
HETATM   14  C   UNL     1      -7.661  13.417  68.546  1.00  0.00    -0.124 C  
ENDBRANCH   4  12
ENDBRANCH   3   4
TORSDOF 4
ENDMDL
MODEL      195
REMARK 921   NORMALIZED FREE ENERGY PREDICTED BY IDOCK:   -2.13 KCAL/MOL
REMARK 922        TOTAL FREE ENERGY PREDICTED BY IDOCK:   -3.06 KCAL/MOL
REMARK 923 INTER-LIGAND FREE ENERGY PREDICTED BY IDOCK:   -2.63 KCAL/MOL
REMARK 924 INTRA-LIGAND FREE ENERGY PREDICTED BY IDOCK:   -0.43 KCAL/MOL
REMARK 927      BINDING AFFINITY PREDICTED BY RF-SCORE:    0.00 PKD
ROOT
HETATM    1  C   UNL     1     -10.580   5.969  68.259  1.00  0.00    -0.325 C  
HETATM    2  C   UNL     1     -10.786   7.330  67.664  1.00  0.00    -0.294 C  
HETATM    3  C   UNL     1     -10.955   7.130  69.155  1.00  0.00    -0.142 C  
ENDROOT
BRANCH   3   4
HETATM    4  C   UNL     1      -9.950   7.636  70.165  1.00  0.00    -0.186 C  
BRANCH   4   5
HETATM    5  N   UNL     1      -9.293   8.813  69.639  1.00  0.00    -0.156 NA 
HETATM    6  H   UNL     1      -9.853   9.539  69.193  1.00  0.00     0.000 HD 
BRANCH   5   7
HETATM    7  C   UNL     1      -7.952   8.969  69.728  1.00  0.00    -0.099 A  
HETATM    8  N   UNL     1      -7.030   8.435  69.003  1.00  0.00    -0.059 NA 
HETATM    9  C   UNL     1      -5.784   8.981  69.534  1.00  0.00    -0.034 A  
HETATM   10  C   UNL     1      -6.197   9.991  70.580  1.00  0.00    -0.109 A  
HETATM   11  O   UNL     1      -7.600   9.834  70.707  1.00  0.00    -0.300 OA 
ENDBRANCH   5   7
ENDBRANCH   4   5
BRANCH   4  12
HETATM   12  C   UNL     1     -10.637   8.015  71.458  1.00  0.00    -0.273 C  
HETATM   13  C   UNL     1     -11.543   7.025  72.155  1.00  0.00    -0.320 C  
HETATM   14  C   UNL     1     -12.130   8.244  71.507  1.00  0.00    -0.335 C  
ENDBRANCH   4  12
ENDBRANCH   3   4
TORSDOF 4
ENDMDL
MODEL      196
REMARK 921   NORMALIZED FREE ENERGY PREDICTED BY IDOCK:   -2.12 KCAL/MOL
REMARK 922        TOTAL FREE ENERGY PREDICTED BY IDOCK:   -3.06 KCAL/MOL
REMARK 923 INTER-LIGAND FREE ENERGY PREDICTED BY IDOCK:   -2.58 KCAL/MOL
REMARK 924 INTRA-LIGAND FREE ENERGY PREDICTED BY IDOCK:   -0.48 KCAL/MOL
REMARK 927      BINDING AFFINITY PREDICTED BY RF-SCORE:    0.00 PKD
ROOT
HETATM    1  C   UNL     1     -11.344   6.044  72.649  1.00  0.00    -0.320 C  
HETATM    2  C   UNL     1      -9.878   6.087  72.960  1.00  0.00    -0.176 C  
HETATM    3  C   UNL     1     -10.387   5.167  71.870  1.00  0.00    -0.275 C  
ENDROOT
BRANCH   3   4
HETATM    4  C   UNL     1     -10.165   5.443  70.400  1.00  0.00    -0.262 C  
BRANCH   4   5
HETATM    5  N   UNL     1      -9.274   6.573  70.254  1.00  0.00    -0.155 NA 
HETATM    6  H   UNL     1      -8.595   6.772  70.989  1.00  0.00     0.000 HD 
BRANCH   5   7
HETATM    7  C   UNL     1      -9.324   7.372  69.163  1.00  0.00    -0.146 A  
HETATM    8  N   UNL     1      -8.353   7.946  68.540  1.00  0.00    -0.127 NA 
HETATM    9  C   UNL     1      -8.993   8.652  67.433  1.00  0.00    -0.133 A  
HETATM   10  C   UNL     1     -10.451   8.260  67.493  1.00  0.00    -0.255 A  
HETATM   11  O   UNL     1     -10.585   7.523  68.696  1.00  0.00    -0.197 OA 
ENDBRANCH   5   7
ENDBRANCH   4   5
BRANCH   4  12
HETATM   12  C   UNL     1      -9.529   4.249  69.723  1.00  0.00    -0.260 C  
HETATM   13  C   UNL     1      -9.461   2.918  70.438  1.00  0.00    -0.201 C  
HETATM   14  C   UNL     1      -8.203   3.701  70.200  1.00  0.00    -0.070 C  
ENDBRANCH   4  12
ENDBRANCH   3   4
TORSDOF 4
ENDMDL
MODEL      197
REMARK 921   NORMALIZED FREE ENERGY PREDICTED BY IDOCK:   -2.11 KCAL/MOL
REMARK 922        TOTAL FREE ENERGY PREDICTED BY IDOCK:   -3.04 KCAL/MOL
REMARK 923 INTER-LIGAND FREE ENERGY PREDICTED BY IDOCK:   -2.66 KCAL/MOL
REMARK 924 INTRA-LIGAND FREE ENERGY PREDICTED BY IDOCK:   -0.39 KCAL/MOL
REMARK 927      BINDING AFFINITY PREDICTED BY RF-SCORE:    0.00 PKD
ROOT
HETATM    1  C   UNL     1     -10.425   4.618  71.441  1.00  0.00    -0.083 C  
HETATM    2  C   UNL     1     -10.516   5.429  70.183  1.00  0.00    -0.361 C  
HETATM    3  C   UNL     1     -11.300   5.852  71.406  1.00  0.00    -0.247 C  
ENDROOT
BRANCH   3   4
HETATM    4  C   UNL     1     -10.920   7.050  72.245  1.00  0.00    -0.245 C  
BRANCH   4   5
HETATM    5  N   UNL     1      -9.572   7.459  71.913  1.00  0.00    -0.151 NA 
HETATM    6  H   UNL     1      -9.374   7.814  70.978  1.00  0.00     0.000 HD 
BRANCH   5   7
HETATM    7  C   UNL     1      -8.570   7.379  72.819  1.00  0.00    -0.117 A  
HETATM    8  N   UNL     1      -8.127   6.339  73.438  1.00  0.00    -0.111 NA 
HETATM    9  C   UNL     1      -7.030   6.843  74.262  1.00  0.00    -0.089 A  
HETATM   10  C   UNL     1      -6.879   8.300  73.888  1.00  0.00    -0.129 A  
HETATM   11  O   UNL     1      -7.977   8.576  73.035  1.00  0.00    -0.344 OA 
ENDBRANCH   5   7
ENDBRANCH   4   5
BRANCH   4  12
HETATM   12  C   UNL     1     -11.848   8.212  71.969  1.00  0.00    -0.392 C  
HETATM   13  C   UNL     1     -11.963   8.777  70.571  1.00  0.00     0.025 C  
HETATM   14  C   UNL     1     -11.302   9.584  71.649  1.00  0.00    -0.411 C  
ENDBRANCH   4  12
ENDBRANCH   3   4
TORSDOF 4
ENDMDL
MODEL      198
REMARK 921   NORMALIZED FREE ENERGY PREDICTED BY IDOCK:   -2.11 KCAL/MOL
REMARK 922        TOTAL FREE ENERGY PREDICTED BY IDOCK:   -3.04 KCAL/MOL
REMARK 923 INTER-LIGAND FREE ENERGY PREDICTED BY IDOCK:   -2.88 KCAL/MOL
REMARK 924 INTRA-LIGAND FREE ENERGY PREDICTED BY IDOCK:   -0.16 KCAL/MOL
REMARK 927      BINDING AFFINITY PREDICTED BY RF-SCORE:    0.00 PKD
ROOT
HETATM    1  C   UNL     1      -8.497   8.278  73.025  1.00  0.00    -0.262 C  
HETATM    2  C   UNL     1      -8.093   8.097  74.458  1.00  0.00    -0.265 C  
HETATM    3  C   UNL     1      -9.223   7.268  73.887  1.00  0.00    -0.290 C  
ENDROOT
BRANCH   3   4
HETATM    4  C   UNL     1      -9.078   5.795  73.577  1.00  0.00    -0.131 C  
BRANCH   4   5
HETATM    5  N   UNL     1     -10.339   5.282  73.088  1.00  0.00    -0.184 NA 
HETATM    6  H   UNL     1     -10.760   4.472  73.544  1.00  0.00     0.000 HD 
BRANCH   5   7
HETATM    7  C   UNL     1     -10.970   5.854  72.037  1.00  0.00    -0.266 A  
HETATM    8  N   UNL     1     -10.777   5.658  70.778  1.00  0.00    -0.264 NA 
HETATM    9  C   UNL     1     -11.755   6.519  70.118  1.00  0.00    -0.353 A  
HETATM   10  C   UNL     1     -12.587   7.114  71.231  1.00  0.00    -0.380 A  
HETATM   11  O   UNL     1     -11.941   6.712  72.427  1.00  0.00    -0.244 OA 
ENDBRANCH   5   7
ENDBRANCH   4   5
BRANCH   4  12
HETATM   12  C   UNL     1      -8.030   5.574  72.508  1.00  0.00    -0.103 C  
HETATM   13  C   UNL     1      -7.681   4.171  72.065  1.00  0.00    -0.076 C  
HETATM   14  C   UNL     1      -6.686   4.974  72.850  1.00  0.00    -0.066 C  
ENDBRANCH   4  12
ENDBRANCH   3   4
TORSDOF 4
ENDMDL
MODEL      199
REMARK 921   NORMALIZED FREE ENERGY PREDICTED BY IDOCK:   -2.09 KCAL/MOL
REMARK 922        TOTAL FREE ENERGY PREDICTED BY IDOCK:   -3.02 KCAL/MOL
REMARK 923 INTER-LIGAND FREE ENERGY PREDICTED BY IDOCK:   -3.06 KCAL/MOL
REMARK 924 INTRA-LIGAND FREE ENERGY PREDICTED BY IDOCK:    0.04 KCAL/MOL
REMARK 927      BINDING AFFINITY PREDICTED BY RF-SCORE:    0.00 PKD
ROOT
HETATM    1  C   UNL     1     -10.085  10.910  64.909  1.00  0.00    -0.374 C  
HETATM    2  C   UNL     1      -9.167  10.584  66.049  1.00  0.00    -0.205 C  
HETATM    3  C   UNL     1      -9.512  12.028  65.751  1.00  0.00    -0.186 C  
ENDROOT
BRANCH   3   4
HETATM    4  C   UNL     1     -10.438  12.843  66.625  1.00  0.00    -0.263 C  
BRANCH   4   5
HETATM    5  N   UNL     1     -11.274  11.952  67.399  1.00  0.00    -0.284 NA 
HETATM    6  H   UNL     1     -11.542  11.050  67.005  1.00  0.00     0.000 HD 
BRANCH   5   7
HETATM    7  C   UNL     1     -11.708  12.291  68.634  1.00  0.00    -0.328 A  
HETATM    8  N   UNL     1     -11.526  11.672  69.750  1.00  0.00    -0.282 NA 
HETATM    9  C   UNL     1     -12.191  12.507  70.747  1.00  0.00    -0.240 A  
HETATM   10  C   UNL     1     -12.652  13.738  70.000  1.00  0.00    -0.147 A  
HETATM   11  O   UNL     1     -12.391  13.459  68.635  1.00  0.00    -0.203 OA 
ENDBRANCH   5   7
ENDBRANCH   4   5
BRANCH   4  12
HETATM   12  C   UNL     1      -9.646  13.703  67.585  1.00  0.00    -0.221 C  
HETATM   13  C   UNL     1      -8.273  14.205  67.201  1.00  0.00    -0.166 C  
HETATM   14  C   UNL     1      -8.413  13.166  68.274  1.00  0.00    -0.161 C  
ENDBRANCH   4  12
ENDBRANCH   3   4
TORSDOF 4
ENDMDL
MODEL      200
REMARK 921   NORMALIZED FREE ENERGY PREDICTED BY IDOCK:   -2.09 KCAL/MOL
REMARK 922        TOTAL FREE ENERGY PREDICTED BY IDOCK:   -3.01 KCAL/MOL
REMARK 923 INTER-LIGAND FREE ENERGY PREDICTED BY IDOCK:   -2.59 KCAL/MOL
REMARK 924 INTRA-LIGAND FREE ENERGY PREDICTED BY IDOCK:   -0.43 KCAL/MOL
REMARK 927      BINDING AFFINITY PREDICTED BY RF-SCORE:    0.00 PKD
ROOT
HETATM    1  C   UNL     1      -9.350   2.773  69.670  1.00  0.00    -0.198 C  
HETATM    2  C   UNL     1      -9.576   3.017  71.132  1.00  0.00    -0.229 C  
HETATM    3  C   UNL     1      -8.867   4.062  70.297  1.00  0.00    -0.141 C  
ENDROOT
BRANCH   3   4
HETATM    4  C   UNL     1      -9.519   5.367  69.898  1.00  0.00    -0.159 C  
BRANCH   4   5
HETATM    5  N   UNL     1     -10.077   5.236  68.570  1.00  0.00    -0.174 NA 
HETATM    6  H   UNL     1     -10.818   4.556  68.404  1.00  0.00     0.000 HD 
BRANCH   5   7
HETATM    7  C   UNL     1      -9.635   5.999  67.543  1.00  0.00    -0.113 A  
HETATM    8  N   UNL     1      -9.718   7.276  67.395  1.00  0.00    -0.143 NA 
HETATM    9  C   UNL     1      -9.052   7.542  66.122  1.00  0.00    -0.137 A  
HETATM   10  C   UNL     1      -8.490   6.213  65.674  1.00  0.00    -0.151 A  
HETATM   11  O   UNL     1      -9.005   5.267  66.595  1.00  0.00    -0.115 OA 
ENDBRANCH   5   7
ENDBRANCH   4   5
BRANCH   4  12
HETATM   12  C   UNL     1     -10.641   5.717  70.851  1.00  0.00    -0.328 C  
HETATM   13  C   UNL     1     -11.777   6.604  70.393  1.00  0.00    -0.446 C  
HETATM   14  C   UNL     1     -10.787   7.119  71.396  1.00  0.00    -0.253 C  
ENDBRANCH   4  12
ENDBRANCH   3   4
TORSDOF 4
ENDMDL
MODEL      201
REMARK 921   NORMALIZED FREE ENERGY PREDICTED BY IDOCK:   -2.04 KCAL/MOL
REMARK 922        TOTAL FREE ENERGY PREDICTED BY IDOCK:   -2.96 KCAL/MOL
REMARK 923 INTER-LIGAND FREE ENERGY PREDICTED BY IDOCK:   -2.55 KCAL/MOL
REMARK 924 INTRA-LIGAND FREE ENERGY PREDICTED BY IDOCK:   -0.40 KCAL/MOL
REMARK 927      BINDING AFFINITY PREDICTED BY RF-SCORE:    0.00 PKD
ROOT
HETATM    1  C   UNL     1     -13.250   7.227  71.542  1.00  0.00    -0.434 C  
HETATM    2  C   UNL     1     -12.647   8.593  71.684  1.00  0.00    -0.381 C  
HETATM    3  C   UNL     1     -11.826   7.370  72.034  1.00  0.00    -0.335 C  
ENDROOT
BRANCH   3   4
HETATM    4  C   UNL     1     -10.692   6.872  71.167  1.00  0.00    -0.225 C  
BRANCH   4   5
HETATM    5  N   UNL     1      -9.451   6.956  71.906  1.00  0.00    -0.142 NA 
HETATM    6  H   UNL     1      -9.355   6.442  72.781  1.00  0.00     0.000 HD 
BRANCH   5   7
HETATM    7  C   UNL     1      -8.416   7.705  71.459  1.00  0.00    -0.115 A  
HETATM    8  N   UNL     1      -7.338   7.317  70.871  1.00  0.00    -0.073 NA 
HETATM    9  C   UNL     1      -6.605   8.552  70.597  1.00  0.00    -0.039 A  
HETATM   10  C   UNL     1      -7.525   9.672  71.024  1.00  0.00     0.183 A  
HETATM   11  O   UNL     1      -8.616   9.028  71.661  1.00  0.00    -0.333 OA 
ENDBRANCH   5   7
ENDBRANCH   4   5
BRANCH   4  12
HETATM   12  C   UNL     1     -10.913   5.428  70.776  1.00  0.00    -0.109 C  
HETATM   13  C   UNL     1      -9.922   4.366  71.198  1.00  0.00    -0.243 C  
HETATM   14  C   UNL     1     -10.026   4.756  69.753  1.00  0.00    -0.308 C  
ENDBRANCH   4  12
ENDBRANCH   3   4
TORSDOF 4
ENDMDL
MODEL      202
REMARK 921   NORMALIZED FREE ENERGY PREDICTED BY IDOCK:   -2.03 KCAL/MOL
REMARK 922        TOTAL FREE ENERGY PREDICTED BY IDOCK:   -2.95 KCAL/MOL
REMARK 923 INTER-LIGAND FREE ENERGY PREDICTED BY IDOCK:   -2.61 KCAL/MOL
REMARK 924 INTRA-LIGAND FREE ENERGY PREDICTED BY IDOCK:   -0.33 KCAL/MOL
REMARK 927      BINDING AFFINITY PREDICTED BY RF-SCORE:    0.00 PKD
ROOT
HETATM    1  C   UNL     1      -8.289   8.899  68.822  1.00  0.00    -0.123 C  
HETATM    2  C   UNL     1      -8.319  10.366  68.511  1.00  0.00    -0.124 C  
HETATM    3  C   UNL     1      -8.045   9.369  67.405  1.00  0.00    -0.110 C  
ENDROOT
BRANCH   3   4
HETATM    4  C   UNL     1      -9.060   9.040  66.333  1.00  0.00    -0.170 C  
BRANCH   4   5
HETATM    5  N   UNL     1      -8.878   9.933  65.210  1.00  0.00    -0.168 NA 
HETATM    6  H   UNL     1      -8.095   9.782  64.574  1.00  0.00     0.000 HD 
BRANCH   5   7
HETATM    7  C   UNL     1      -9.724  10.965  64.988  1.00  0.00    -0.267 A  
HETATM    8  N   UNL     1     -10.048  11.925  65.784  1.00  0.00    -0.233 NA 
HETATM    9  C   UNL     1     -10.967  12.752  65.005  1.00  0.00    -0.289 A  
HETATM   10  C   UNL     1     -10.985  12.145  63.621  1.00  0.00    -0.461 A  
HETATM   11  O   UNL     1     -10.241  10.944  63.738  1.00  0.00    -0.331 OA 
ENDBRANCH   5   7
ENDBRANCH   4   5
BRANCH   4  12
HETATM   12  C   UNL     1      -8.879   7.620  65.844  1.00  0.00    -0.163 C  
HETATM   13  C   UNL     1      -7.540   6.932  65.987  1.00  0.00    -0.093 C  
HETATM   14  C   UNL     1      -8.036   7.320  64.625  1.00  0.00    -0.081 C  
ENDBRANCH   4  12
ENDBRANCH   3   4
TORSDOF 4
ENDMDL
MODEL      203
REMARK 921   NORMALIZED FREE ENERGY PREDICTED BY IDOCK:   -2.00 KCAL/MOL
REMARK 922        TOTAL FREE ENERGY PREDICTED BY IDOCK:   -2.91 KCAL/MOL
REMARK 923 INTER-LIGAND FREE ENERGY PREDICTED BY IDOCK:   -2.47 KCAL/MOL
REMARK 924 INTRA-LIGAND FREE ENERGY PREDICTED BY IDOCK:   -0.44 KCAL/MOL
REMARK 927      BINDING AFFINITY PREDICTED BY RF-SCORE:    0.00 PKD
ROOT
HETATM    1  C   UNL     1     -11.455   5.998  71.738  1.00  0.00    -0.314 C  
HETATM    2  C   UNL     1     -11.946   6.508  70.416  1.00  0.00    -0.295 C  
HETATM    3  C   UNL     1     -11.145   7.419  71.323  1.00  0.00    -0.269 C  
ENDROOT
BRANCH   3   4
HETATM    4  C   UNL     1      -9.713   7.807  71.031  1.00  0.00    -0.163 C  
BRANCH   4   5
HETATM    5  N   UNL     1      -9.246   7.077  69.872  1.00  0.00    -0.145 NA 
HETATM    6  H   UNL     1      -9.642   7.287  68.956  1.00  0.00     0.000 HD 
BRANCH   5   7
HETATM    7  C   UNL     1      -8.294   6.122  69.981  1.00  0.00    -0.125 A  
HETATM    8  N   UNL     1      -7.222   6.131  70.696  1.00  0.00    -0.075 NA 
HETATM    9  C   UNL     1      -6.597   4.836  70.438  1.00  0.00    -0.035 A  
HETATM   10  C   UNL     1      -7.574   4.083  69.564  1.00  0.00    -0.053 A  
HETATM   11  O   UNL     1      -8.579   5.027  69.239  1.00  0.00    -0.087 OA 
ENDBRANCH   5   7
ENDBRANCH   4   5
BRANCH   4  12
HETATM   12  C   UNL     1      -9.612   9.287  70.731  1.00  0.00    -0.341 C  
HETATM   13  C   UNL     1     -10.804  10.033  70.174  1.00  0.00    -0.365 C  
HETATM   14  C   UNL     1      -9.604   9.792  69.306  1.00  0.00    -0.204 C  
ENDBRANCH   4  12
ENDBRANCH   3   4
TORSDOF 4
ENDMDL
MODEL      204
REMARK 921   NORMALIZED FREE ENERGY PREDICTED BY IDOCK:   -2.00 KCAL/MOL
REMARK 922        TOTAL FREE ENERGY PREDICTED BY IDOCK:   -2.90 KCAL/MOL
REMARK 923 INTER-LIGAND FREE ENERGY PREDICTED BY IDOCK:   -2.71 KCAL/MOL
REMARK 924 INTRA-LIGAND FREE ENERGY PREDICTED BY IDOCK:   -0.19 KCAL/MOL
REMARK 927      BINDING AFFINITY PREDICTED BY RF-SCORE:    0.00 PKD
ROOT
HETATM    1  C   UNL     1      -7.051   7.740  67.447  1.00  0.00    -0.086 C  
HETATM    2  C   UNL     1      -7.225   7.557  65.968  1.00  0.00    -0.070 C  
HETATM    3  C   UNL     1      -8.346   8.159  66.788  1.00  0.00    -0.115 C  
ENDROOT
BRANCH   3   4
HETATM    4  C   UNL     1      -8.703   9.627  66.728  1.00  0.00    -0.134 C  
BRANCH   4   5
HETATM    5  N   UNL     1      -8.831  10.033  65.346  1.00  0.00    -0.162 NA 
HETATM    6  H   UNL     1      -8.345   9.504  64.622  1.00  0.00     0.000 HD 
BRANCH   5   7
HETATM    7  C   UNL     1      -9.582  11.102  64.994  1.00  0.00    -0.239 A  
HETATM    8  N   UNL     1      -9.537  12.305  65.456  1.00  0.00    -0.160 NA 
HETATM    9  C   UNL     1     -10.550  13.029  64.692  1.00  0.00    -0.378 A  
HETATM   10  C   UNL     1     -11.058  12.048  63.661  1.00  0.00    -0.452 A  
HETATM   11  O   UNL     1     -10.455  10.812  64.002  1.00  0.00    -0.358 OA 
ENDBRANCH   5   7
ENDBRANCH   4   5
BRANCH   4  12
HETATM   12  C   UNL     1     -10.022   9.885  67.422  1.00  0.00    -0.235 C  
HETATM   13  C   UNL     1     -10.094   9.909  68.932  1.00  0.00    -0.194 C  
HETATM   14  C   UNL     1     -10.733   8.783  68.173  1.00  0.00    -0.131 C  
ENDBRANCH   4  12
ENDBRANCH   3   4
TORSDOF 4
ENDMDL
MODEL      205
REMARK 921   NORMALIZED FREE ENERGY PREDICTED BY IDOCK:   -1.94 KCAL/MOL
REMARK 922        TOTAL FREE ENERGY PREDICTED BY IDOCK:   -2.84 KCAL/MOL
REMARK 923 INTER-LIGAND FREE ENERGY PREDICTED BY IDOCK:   -2.73 KCAL/MOL
REMARK 924 INTRA-LIGAND FREE ENERGY PREDICTED BY IDOCK:   -0.11 KCAL/MOL
REMARK 927      BINDING AFFINITY PREDICTED BY RF-SCORE:    0.00 PKD
ROOT
HETATM    1  C   UNL     1      -9.572   9.583  65.121  1.00  0.00    -0.270 C  
HETATM    2  C   UNL     1      -8.362   8.764  64.785  1.00  0.00    -0.177 C  
HETATM    3  C   UNL     1      -8.569   9.249  66.204  1.00  0.00    -0.146 C  
ENDROOT
BRANCH   3   4
HETATM    4  C   UNL     1      -8.979   8.327  67.330  1.00  0.00    -0.137 C  
BRANCH   4   5
HETATM    5  N   UNL     1      -9.102   9.090  68.553  1.00  0.00    -0.133 NA 
HETATM    6  H   UNL     1      -8.930   8.630  69.447  1.00  0.00     0.000 HD 
BRANCH   5   7
HETATM    7  C   UNL     1      -9.440  10.399  68.534  1.00  0.00    -0.159 A  
HETATM    8  N   UNL     1      -8.669  11.429  68.447  1.00  0.00    -0.153 NA 
HETATM    9  C   UNL     1      -9.581  12.570  68.445  1.00  0.00    -0.176 A  
HETATM   10  C   UNL     1     -10.971  11.979  68.420  1.00  0.00    -0.237 A  
HETATM   11  O   UNL     1     -10.779  10.584  68.586  1.00  0.00    -0.189 OA 
ENDBRANCH   5   7
ENDBRANCH   4   5
BRANCH   4  12
HETATM   12  C   UNL     1     -10.318   7.686  67.035  1.00  0.00    -0.400 C  
HETATM   13  C   UNL     1     -10.814   6.539  67.886  1.00  0.00    -0.383 C  
HETATM   14  C   UNL     1     -10.401   6.289  66.466  1.00  0.00    -0.165 C  
ENDBRANCH   4  12
ENDBRANCH   3   4
TORSDOF 4
ENDMDL
MODEL      206
REMARK 921   NORMALIZED FREE ENERGY PREDICTED BY IDOCK:   -1.92 KCAL/MOL
REMARK 922        TOTAL FREE ENERGY PREDICTED BY IDOCK:   -2.81 KCAL/MOL
REMARK 923 INTER-LIGAND FREE ENERGY PREDICTED BY IDOCK:   -2.72 KCAL/MOL
REMARK 924 INTRA-LIGAND FREE ENERGY PREDICTED BY IDOCK:   -0.09 KCAL/MOL
REMARK 927      BINDING AFFINITY PREDICTED BY RF-SCORE:    0.00 PKD
ROOT
HETATM    1  C   UNL     1     -11.647  12.784  67.054  1.00  0.00    -0.422 C  
HETATM    2  C   UNL     1     -11.437  11.426  67.655  1.00  0.00    -0.348 C  
HETATM    3  C   UNL     1     -10.393  12.003  66.724  1.00  0.00    -0.233 C  
ENDROOT
BRANCH   3   4
HETATM    4  C   UNL     1      -9.056  12.513  67.212  1.00  0.00    -0.189 C  
BRANCH   4   5
HETATM    5  N   UNL     1      -7.996  11.864  66.472  1.00  0.00    -0.378 NA 
HETATM    6  H   UNL     1      -7.041  12.211  66.558  1.00  0.00     0.000 HD 
BRANCH   5   7
HETATM    7  C   UNL     1      -8.247  10.806  65.667  1.00  0.00    -0.127 A  
HETATM    8  N   UNL     1      -8.269   9.553  65.968  1.00  0.00    -0.114 NA 
HETATM    9  C   UNL     1      -8.619   8.882  64.718  1.00  0.00    -0.158 A  
HETATM   10  C   UNL     1      -8.902   9.989  63.729  1.00  0.00    -0.231 A  
HETATM   11  O   UNL     1      -8.534  11.183  64.399  1.00  0.00     0.117 OA 
ENDBRANCH   5   7
ENDBRANCH   4   5
BRANCH   4  12
HETATM   12  C   UNL     1      -8.941  14.006  66.993  1.00  0.00    -0.248 C  
HETATM   13  C   UNL     1      -7.714  14.751  67.467  1.00  0.00    -0.215 C  
HETATM   14  C   UNL     1      -9.030  14.970  68.153  1.00  0.00    -0.173 C  
ENDBRANCH   4  12
ENDBRANCH   3   4
TORSDOF 4
ENDMDL
MODEL      207
REMARK 921   NORMALIZED FREE ENERGY PREDICTED BY IDOCK:   -1.91 KCAL/MOL
REMARK 922        TOTAL FREE ENERGY PREDICTED BY IDOCK:   -2.80 KCAL/MOL
REMARK 923 INTER-LIGAND FREE ENERGY PREDICTED BY IDOCK:   -2.45 KCAL/MOL
REMARK 924 INTRA-LIGAND FREE ENERGY PREDICTED BY IDOCK:   -0.35 KCAL/MOL
REMARK 927      BINDING AFFINITY PREDICTED BY RF-SCORE:    0.00 PKD
ROOT
HETATM    1  C   UNL     1      -7.139   7.623  65.292  1.00  0.00    -0.063 C  
HETATM    2  C   UNL     1      -7.699   8.243  64.046  1.00  0.00    -0.140 C  
HETATM    3  C   UNL     1      -8.633   7.822  65.160  1.00  0.00    -0.023 C  
ENDROOT
BRANCH   3   4
HETATM    4  C   UNL     1      -9.328   8.817  66.062  1.00  0.00    -0.232 C  
BRANCH   4   5
HETATM    5  N   UNL     1      -8.719   8.780  67.374  1.00  0.00    -0.129 NA 
HETATM    6  H   UNL     1      -7.722   8.968  67.467  1.00  0.00     0.000 HD 
BRANCH   5   7
HETATM    7  C   UNL     1      -9.448   8.501  68.479  1.00  0.00    -0.142 A  
HETATM    8  N   UNL     1      -9.690   9.255  69.495  1.00  0.00    -0.166 NA 
HETATM    9  C   UNL     1     -10.545   8.444  70.359  1.00  0.00    -0.223 A  
HETATM   10  C   UNL     1     -10.823   7.179  69.581  1.00  0.00    -0.234 A  
HETATM   11  O   UNL     1      -9.992   7.262  68.435  1.00  0.00    -0.152 OA 
ENDBRANCH   5   7
ENDBRANCH   4   5
BRANCH   4  12
HETATM   12  C   UNL     1      -9.190  10.221  65.515  1.00  0.00    -0.232 C  
HETATM   13  C   UNL     1     -10.221  11.273  65.854  1.00  0.00    -0.298 C  
HETATM   14  C   UNL     1     -10.135  10.738  64.455  1.00  0.00    -0.415 C  
ENDBRANCH   4  12
ENDBRANCH   3   4
TORSDOF 4
ENDMDL
MODEL      208
REMARK 921   NORMALIZED FREE ENERGY PREDICTED BY IDOCK:   -1.91 KCAL/MOL
REMARK 922        TOTAL FREE ENERGY PREDICTED BY IDOCK:   -2.79 KCAL/MOL
REMARK 923 INTER-LIGAND FREE ENERGY PREDICTED BY IDOCK:   -2.37 KCAL/MOL
REMARK 924 INTRA-LIGAND FREE ENERGY PREDICTED BY IDOCK:   -0.42 KCAL/MOL
REMARK 927      BINDING AFFINITY PREDICTED BY RF-SCORE:    0.00 PKD
ROOT
HETATM    1  C   UNL     1      -9.673   8.828  71.913  1.00  0.00    -0.386 C  
HETATM    2  C   UNL     1     -10.926   8.086  71.552  1.00  0.00    -0.279 C  
HETATM    3  C   UNL     1     -10.267   8.988  70.530  1.00  0.00    -0.268 C  
ENDROOT
BRANCH   3   4
HETATM    4  C   UNL     1      -9.510   8.451  69.336  1.00  0.00    -0.158 C  
BRANCH   4   5
HETATM    5  N   UNL     1      -8.757   9.525  68.724  1.00  0.00    -0.126 NA 
HETATM    6  H   UNL     1      -8.129  10.086  69.300  1.00  0.00     0.000 HD 
BRANCH   5   7
HETATM    7  C   UNL     1      -8.870   9.799  67.404  1.00  0.00    -0.132 A  
HETATM    8  N   UNL     1      -7.937   9.906  66.522  1.00  0.00    -0.109 NA 
HETATM    9  C   UNL     1      -8.644  10.183  65.273  1.00  0.00    -0.158 A  
HETATM   10  C   UNL     1     -10.114  10.082  65.609  1.00  0.00    -0.251 A  
HETATM   11  O   UNL     1     -10.160   9.938  67.018  1.00  0.00    -0.195 OA 
ENDBRANCH   5   7
ENDBRANCH   4   5
BRANCH   4  12
HETATM   12  C   UNL     1      -8.537   7.373  69.761  1.00  0.00    -0.140 C  
HETATM   13  C   UNL     1      -7.048   7.613  69.663  1.00  0.00    -0.064 C  
HETATM   14  C   UNL     1      -7.706   6.631  68.740  1.00  0.00    -0.109 C  
ENDBRANCH   4  12
ENDBRANCH   3   4
TORSDOF 4
ENDMDL
MODEL      209
REMARK 921   NORMALIZED FREE ENERGY PREDICTED BY IDOCK:   -1.86 KCAL/MOL
REMARK 922        TOTAL FREE ENERGY PREDICTED BY IDOCK:   -2.73 KCAL/MOL
REMARK 923 INTER-LIGAND FREE ENERGY PREDICTED BY IDOCK:   -2.36 KCAL/MOL
REMARK 924 INTRA-LIGAND FREE ENERGY PREDICTED BY IDOCK:   -0.38 KCAL/MOL
REMARK 927      BINDING AFFINITY PREDICTED BY RF-SCORE:    0.00 PKD
ROOT
HETATM    1  C   UNL     1      -7.989   8.067  73.004  1.00  0.00    -0.207 C  
HETATM    2  C   UNL     1      -7.936   6.581  72.811  1.00  0.00    -0.102 C  
HETATM    3  C   UNL     1      -9.245   7.317  72.617  1.00  0.00    -0.172 C  
ENDROOT
BRANCH   3   4
HETATM    4  C   UNL     1      -9.853   7.552  71.253  1.00  0.00    -0.179 C  
BRANCH   4   5
HETATM    5  N   UNL     1      -9.438   6.497  70.354  1.00  0.00    -0.162 NA 
HETATM    6  H   UNL     1      -9.592   5.525  70.620  1.00  0.00     0.000 HD 
BRANCH   5   7
HETATM    7  C   UNL     1      -8.850   6.775  69.168  1.00  0.00    -0.134 A  
HETATM    8  N   UNL     1      -9.118   7.725  68.339  1.00  0.00    -0.132 NA 
HETATM    9  C   UNL     1      -8.153   7.550  67.256  1.00  0.00    -0.115 A  
HETATM   10  C   UNL     1      -7.245   6.427  67.701  1.00  0.00    -0.086 A  
HETATM   11  O   UNL     1      -7.835   5.925  68.887  1.00  0.00    -0.092 OA 
ENDBRANCH   5   7
ENDBRANCH   4   5
BRANCH   4  12
HETATM   12  C   UNL     1     -11.364   7.539  71.333  1.00  0.00    -0.284 C  
HETATM   13  C   UNL     1     -12.152   8.793  71.025  1.00  0.00    -0.262 C  
HETATM   14  C   UNL     1     -12.090   8.278  72.433  1.00  0.00    -0.430 C  
ENDBRANCH   4  12
ENDBRANCH   3   4
TORSDOF 4
ENDMDL
MODEL      210
REMARK 921   NORMALIZED FREE ENERGY PREDICTED BY IDOCK:   -1.86 KCAL/MOL
REMARK 922        TOTAL FREE ENERGY PREDICTED BY IDOCK:   -2.73 KCAL/MOL
REMARK 923 INTER-LIGAND FREE ENERGY PREDICTED BY IDOCK:   -2.24 KCAL/MOL
REMARK 924 INTRA-LIGAND FREE ENERGY PREDICTED BY IDOCK:   -0.50 KCAL/MOL
REMARK 927      BINDING AFFINITY PREDICTED BY RF-SCORE:    0.00 PKD
ROOT
HETATM    1  C   UNL     1      -9.651   3.961  66.053  1.00  0.00    -0.189 C  
HETATM    2  C   UNL     1      -9.212   3.290  67.321  1.00  0.00    -0.221 C  
HETATM    3  C   UNL     1      -8.544   4.575  66.881  1.00  0.00    -0.104 C  
ENDROOT
BRANCH   3   4
HETATM    4  C   UNL     1      -8.786   5.898  67.571  1.00  0.00    -0.104 C  
BRANCH   4   5
HETATM    5  N   UNL     1      -9.400   6.819  66.640  1.00  0.00    -0.161 NA 
HETATM    6  H   UNL     1     -10.276   6.560  66.186  1.00  0.00     0.000 HD 
BRANCH   5   7
HETATM    7  C   UNL     1      -8.836   8.017  66.360  1.00  0.00    -0.157 A  
HETATM    8  N   UNL     1      -9.148   8.857  65.434  1.00  0.00    -0.194 NA 
HETATM    9  C   UNL     1      -8.226   9.974  65.626  1.00  0.00    -0.143 A  
HETATM   10  C   UNL     1      -7.453   9.649  66.884  1.00  0.00    -0.091 A  
HETATM   11  O   UNL     1      -7.840   8.328  67.221  1.00  0.00    -0.102 OA 
ENDBRANCH   5   7
ENDBRANCH   4   5
BRANCH   4  12
HETATM   12  C   UNL     1      -9.719   5.723  68.749  1.00  0.00    -0.168 C  
HETATM   13  C   UNL     1     -11.139   6.236  68.676  1.00  0.00    -0.409 C  
HETATM   14  C   UNL     1     -10.150   6.908  69.581  1.00  0.00    -0.195 C  
ENDBRANCH   4  12
ENDBRANCH   3   4
TORSDOF 4
ENDMDL
MODEL      211
REMARK 921   NORMALIZED FREE ENERGY PREDICTED BY IDOCK:   -1.79 KCAL/MOL
REMARK 922        TOTAL FREE ENERGY PREDICTED BY IDOCK:   -2.65 KCAL/MOL
REMARK 923 INTER-LIGAND FREE ENERGY PREDICTED BY IDOCK:   -2.14 KCAL/MOL
REMARK 924 INTRA-LIGAND FREE ENERGY PREDICTED BY IDOCK:   -0.51 KCAL/MOL
REMARK 927      BINDING AFFINITY PREDICTED BY RF-SCORE:    0.00 PKD
ROOT
HETATM    1  C   UNL     1      -6.130   5.823  64.570  1.00  0.00    -0.025 C  
HETATM    2  C   UNL     1      -7.234   5.404  63.645  1.00  0.00    -0.050 C  
HETATM    3  C   UNL     1      -7.395   5.216  65.138  1.00  0.00    -0.068 C  
ENDROOT
BRANCH   3   4
HETATM    4  C   UNL     1      -8.314   6.077  65.975  1.00  0.00    -0.134 C  
BRANCH   4   5
HETATM    5  N   UNL     1      -8.871   7.126  65.149  1.00  0.00    -0.361 NA 
HETATM    6  H   UNL     1      -9.340   6.880  64.277  1.00  0.00     0.000 HD 
BRANCH   5   7
HETATM    7  C   UNL     1      -8.783   8.427  65.510  1.00  0.00    -0.162 A  
HETATM    8  N   UNL     1      -7.788   9.234  65.373  1.00  0.00    -0.098 NA 
HETATM    9  C   UNL     1      -8.269  10.504  65.913  1.00  0.00    -0.152 A  
HETATM   10  C   UNL     1      -9.725  10.276  66.247  1.00  0.00    -0.209 A  
HETATM   11  O   UNL     1      -9.933   8.888  66.054  1.00  0.00    -0.270 OA 
ENDBRANCH   5   7
ENDBRANCH   4   5
BRANCH   4  12
HETATM   12  C   UNL     1      -9.456   5.255  66.530  1.00  0.00    -0.155 C  
HETATM   13  C   UNL     1      -9.464   3.752  66.361  1.00  0.00    -0.197 C  
HETATM   14  C   UNL     1     -10.455   4.591  65.610  1.00  0.00    -0.261 C  
ENDBRANCH   4  12
ENDBRANCH   3   4
TORSDOF 4
ENDMDL
MODEL      212
REMARK 921   NORMALIZED FREE ENERGY PREDICTED BY IDOCK:   -1.79 KCAL/MOL
REMARK 922        TOTAL FREE ENERGY PREDICTED BY IDOCK:   -2.65 KCAL/MOL
REMARK 923 INTER-LIGAND FREE ENERGY PREDICTED BY IDOCK:   -3.09 KCAL/MOL
REMARK 924 INTRA-LIGAND FREE ENERGY PREDICTED BY IDOCK:    0.45 KCAL/MOL
REMARK 927      BINDING AFFINITY PREDICTED BY RF-SCORE:    0.00 PKD
ROOT
HETATM    1  C   UNL     1      -9.538  10.083  69.175  1.00  0.00    -0.217 C  
HETATM    2  C   UNL     1      -9.609   8.591  69.313  1.00  0.00    -0.170 C  
HETATM    3  C   UNL     1      -9.945   9.240  67.987  1.00  0.00    -0.216 C  
ENDROOT
BRANCH   3   4
HETATM    4  C   UNL     1      -9.028   9.166  66.787  1.00  0.00    -0.128 C  
BRANCH   4   5
HETATM    5  N   UNL     1      -9.822   9.043  65.584  1.00  0.00    -0.465 NA 
HETATM    6  H   UNL     1     -10.358   8.191  65.423  1.00  0.00     0.000 HD 
BRANCH   5   7
HETATM    7  C   UNL     1      -9.868  10.038  64.667  1.00  0.00    -0.218 A  
HETATM    8  N   UNL     1      -9.294  10.097  63.515  1.00  0.00    -0.284 NA 
HETATM    9  C   UNL     1      -9.717  11.381  62.960  1.00  0.00    -0.371 A  
HETATM   10  C   UNL     1     -10.709  11.943  63.952  1.00  0.00    -0.395 A  
HETATM   11  O   UNL     1     -10.659  11.062  65.061  1.00  0.00    -0.292 OA 
ENDBRANCH   5   7
ENDBRANCH   4   5
BRANCH   4  12
HETATM   12  C   UNL     1      -8.191  10.421  66.676  1.00  0.00    -0.128 C  
HETATM   13  C   UNL     1      -6.832  10.371  66.015  1.00  0.00    -0.128 C  
HETATM   14  C   UNL     1      -6.933  10.590  67.495  1.00  0.00    -0.080 C  
ENDBRANCH   4  12
ENDBRANCH   3   4
TORSDOF 4
ENDMDL
MODEL      213
REMARK 921   NORMALIZED FREE ENERGY PREDICTED BY IDOCK:   -1.78 KCAL/MOL
REMARK 922        TOTAL FREE ENERGY PREDICTED BY IDOCK:   -2.63 KCAL/MOL
REMARK 923 INTER-LIGAND FREE ENERGY PREDICTED BY IDOCK:   -2.23 KCAL/MOL
REMARK 924 INTRA-LIGAND FREE ENERGY PREDICTED BY IDOCK:   -0.41 KCAL/MOL
REMARK 927      BINDING AFFINITY PREDICTED BY RF-SCORE:    0.00 PKD
ROOT
HETATM    1  C   UNL     1      -6.960   7.517  65.826  1.00  0.00    -0.061 C  
HETATM    2  C   UNL     1      -7.543   8.799  65.312  1.00  0.00    -0.091 C  
HETATM    3  C   UNL     1      -8.380   7.892  66.190  1.00  0.00    -0.127 C  
ENDROOT
BRANCH   3   4
HETATM    4  C   UNL     1      -8.709   8.226  67.627  1.00  0.00    -0.133 C  
BRANCH   4   5
HETATM    5  N   UNL     1     -10.126   8.498  67.743  1.00  0.00    -0.198 NA 
HETATM    6  H   UNL     1     -10.782   7.719  67.793  1.00  0.00     0.000 HD 
BRANCH   5   7
HETATM    7  C   UNL     1     -10.596   9.766  67.786  1.00  0.00    -0.266 A  
HETATM    8  N   UNL     1     -10.859  10.560  66.805  1.00  0.00    -0.190 NA 
HETATM    9  C   UNL     1     -11.359  11.776  67.442  1.00  0.00    -0.311 A  
HETATM   10  C   UNL     1     -11.438  11.457  68.918  1.00  0.00    -0.298 A  
HETATM   11  O   UNL     1     -10.829  10.185  69.051  1.00  0.00    -0.206 OA 
ENDBRANCH   5   7
ENDBRANCH   4   5
BRANCH   4  12
HETATM   12  C   UNL     1      -8.375   7.063  68.536  1.00  0.00    -0.121 C  
HETATM   13  C   UNL     1      -8.669   7.147  70.017  1.00  0.00    -0.141 C  
HETATM   14  C   UNL     1      -7.248   7.159  69.537  1.00  0.00    -0.080 C  
ENDBRANCH   4  12
ENDBRANCH   3   4
TORSDOF 4
ENDMDL
MODEL      214
REMARK 921   NORMALIZED FREE ENERGY PREDICTED BY IDOCK:   -1.78 KCAL/MOL
REMARK 922        TOTAL FREE ENERGY PREDICTED BY IDOCK:   -2.63 KCAL/MOL
REMARK 923 INTER-LIGAND FREE ENERGY PREDICTED BY IDOCK:   -2.29 KCAL/MOL
REMARK 924 INTRA-LIGAND FREE ENERGY PREDICTED BY IDOCK:   -0.35 KCAL/MOL
REMARK 927      BINDING AFFINITY PREDICTED BY RF-SCORE:    0.00 PKD
ROOT
HETATM    1  C   UNL     1      -9.720   9.013  70.895  1.00  0.00    -0.329 C  
HETATM    2  C   UNL     1      -8.542   8.766  71.790  1.00  0.00    -0.198 C  
HETATM    3  C   UNL     1      -9.517   7.643  71.504  1.00  0.00    -0.166 C  
ENDROOT
BRANCH   3   4
HETATM    4  C   UNL     1      -9.178   6.478  70.603  1.00  0.00    -0.162 C  
BRANCH   4   5
HETATM    5  N   UNL     1      -9.628   5.249  71.219  1.00  0.00    -0.154 NA 
HETATM    6  H   UNL     1     -10.349   4.694  70.758  1.00  0.00     0.000 HD 
BRANCH   5   7
HETATM    7  C   UNL     1      -9.112   4.822  72.395  1.00  0.00    -0.126 A  
HETATM    8  N   UNL     1      -7.878   4.632  72.711  1.00  0.00    -0.087 NA 
HETATM    9  C   UNL     1      -7.918   4.200  74.106  1.00  0.00    -0.091 A  
HETATM   10  C   UNL     1      -9.367   4.309  74.522  1.00  0.00    -0.107 A  
HETATM   11  O   UNL     1     -10.069   4.614  73.329  1.00  0.00    -0.150 OA 
ENDBRANCH   5   7
ENDBRANCH   4   5
BRANCH   4  12
HETATM   12  C   UNL     1      -9.870   6.618  69.265  1.00  0.00    -0.157 C  
HETATM   13  C   UNL     1     -11.363   6.404  69.157  1.00  0.00    -0.366 C  
HETATM   14  C   UNL     1     -10.421   5.409  68.545  1.00  0.00    -0.192 C  
ENDBRANCH   4  12
ENDBRANCH   3   4
TORSDOF 4
ENDMDL
MODEL      215
REMARK 921   NORMALIZED FREE ENERGY PREDICTED BY IDOCK:   -1.77 KCAL/MOL
REMARK 922        TOTAL FREE ENERGY PREDICTED BY IDOCK:   -2.62 KCAL/MOL
REMARK 923 INTER-LIGAND FREE ENERGY PREDICTED BY IDOCK:   -2.21 KCAL/MOL
REMARK 924 INTRA-LIGAND FREE ENERGY PREDICTED BY IDOCK:   -0.42 KCAL/MOL
REMARK 927      BINDING AFFINITY PREDICTED BY RF-SCORE:    0.00 PKD
ROOT
HETATM    1  C   UNL     1      -6.495   6.381  72.592  1.00  0.00    -0.063 C  
HETATM    2  C   UNL     1      -6.551   4.892  72.425  1.00  0.00    -0.047 C  
HETATM    3  C   UNL     1      -7.582   5.590  73.286  1.00  0.00    -0.096 C  
ENDROOT
BRANCH   3   4
HETATM    4  C   UNL     1      -9.019   5.773  72.851  1.00  0.00    -0.123 C  
BRANCH   4   5
HETATM    5  N   UNL     1      -9.130   5.495  71.436  1.00  0.00    -0.142 NA 
HETATM    6  H   UNL     1      -8.797   4.602  71.074  1.00  0.00     0.000 HD 
BRANCH   5   7
HETATM    7  C   UNL     1      -9.667   6.398  70.583  1.00  0.00    -0.179 A  
HETATM    8  N   UNL     1     -10.581   6.219  69.692  1.00  0.00    -0.234 NA 
HETATM    9  C   UNL     1     -10.777   7.539  69.097  1.00  0.00    -0.151 A  
HETATM   10  C   UNL     1      -9.908   8.478  69.900  1.00  0.00    -0.186 A  
HETATM   11  O   UNL     1      -9.156   7.638  70.759  1.00  0.00    -0.151 OA 
ENDBRANCH   5   7
ENDBRANCH   4   5
BRANCH   4  12
HETATM   12  C   UNL     1      -9.927   4.818  73.594  1.00  0.00    -0.187 C  
HETATM   13  C   UNL     1     -10.495   3.606  72.889  1.00  0.00    -0.239 C  
HETATM   14  C   UNL     1     -11.401   4.739  73.271  1.00  0.00    -0.408 C  
ENDBRANCH   4  12
ENDBRANCH   3   4
TORSDOF 4
ENDMDL
MODEL      216
REMARK 921   NORMALIZED FREE ENERGY PREDICTED BY IDOCK:   -1.76 KCAL/MOL
REMARK 922        TOTAL FREE ENERGY PREDICTED BY IDOCK:   -2.61 KCAL/MOL
REMARK 923 INTER-LIGAND FREE ENERGY PREDICTED BY IDOCK:   -2.20 KCAL/MOL
REMARK 924 INTRA-LIGAND FREE ENERGY PREDICTED BY IDOCK:   -0.41 KCAL/MOL
REMARK 927      BINDING AFFINITY PREDICTED BY RF-SCORE:    0.00 PKD
ROOT
HETATM    1  C   UNL     1     -10.242   4.660  65.819  1.00  0.00    -0.283 C  
HETATM    2  C   UNL     1     -10.281   5.121  67.246  1.00  0.00    -0.239 C  
HETATM    3  C   UNL     1      -9.108   5.499  66.367  1.00  0.00    -0.145 C  
ENDROOT
BRANCH   3   4
HETATM    4  C   UNL     1      -8.903   6.900  65.837  1.00  0.00    -0.105 C  
BRANCH   4   5
HETATM    5  N   UNL     1      -8.821   7.825  66.947  1.00  0.00    -0.126 NA 
HETATM    6  H   UNL     1      -8.211   7.607  67.734  1.00  0.00     0.000 HD 
BRANCH   5   7
HETATM    7  C   UNL     1      -9.537   8.972  66.960  1.00  0.00    -0.176 A  
HETATM    8  N   UNL     1     -10.650   9.220  67.562  1.00  0.00    -0.279 NA 
HETATM    9  C   UNL     1     -10.935  10.617  67.245  1.00  0.00    -0.284 A  
HETATM   10  C   UNL     1      -9.731  11.113  66.478  1.00  0.00    -0.198 A  
HETATM   11  O   UNL     1      -8.938   9.959  66.254  1.00  0.00    -0.141 OA 
ENDBRANCH   5   7
ENDBRANCH   4   5
BRANCH   4  12
HETATM   12  C   UNL     1      -7.615   6.990  65.049  1.00  0.00    -0.104 C  
HETATM   13  C   UNL     1      -7.431   6.162  63.797  1.00  0.00    -0.075 C  
HETATM   14  C   UNL     1      -6.636   5.839  65.027  1.00  0.00    -0.043 C  
ENDBRANCH   4  12
ENDBRANCH   3   4
TORSDOF 4
ENDMDL
MODEL      217
REMARK 921   NORMALIZED FREE ENERGY PREDICTED BY IDOCK:   -1.67 KCAL/MOL
REMARK 922        TOTAL FREE ENERGY PREDICTED BY IDOCK:   -2.51 KCAL/MOL
REMARK 923 INTER-LIGAND FREE ENERGY PREDICTED BY IDOCK:   -2.12 KCAL/MOL
REMARK 924 INTRA-LIGAND FREE ENERGY PREDICTED BY IDOCK:   -0.38 KCAL/MOL
REMARK 927      BINDING AFFINITY PREDICTED BY RF-SCORE:    0.00 PKD
ROOT
HETATM    1  C   UNL     1      -8.092   6.258  66.081  1.00  0.00    -0.116 C  
HETATM    2  C   UNL     1      -8.749   4.910  66.077  1.00  0.00    -0.124 C  
HETATM    3  C   UNL     1      -7.912   5.333  67.265  1.00  0.00    -0.101 C  
ENDROOT
BRANCH   3   4
HETATM    4  C   UNL     1      -8.519   5.712  68.597  1.00  0.00    -0.105 C  
BRANCH   4   5
HETATM    5  N   UNL     1      -9.862   6.207  68.388  1.00  0.00    -0.122 NA 
HETATM    6  H   UNL     1     -10.578   5.574  68.032  1.00  0.00     0.000 HD 
BRANCH   5   7
HETATM    7  C   UNL     1     -10.187   7.493  68.654  1.00  0.00    -0.197 A  
HETATM    8  N   UNL     1     -10.354   8.468  67.829  1.00  0.00    -0.231 NA 
HETATM    9  C   UNL     1     -10.716   9.605  68.673  1.00  0.00    -0.201 A  
HETATM   10  C   UNL     1     -10.837   9.048  70.072  1.00  0.00    -0.231 A  
HETATM   11  O   UNL     1     -10.376   7.711  69.976  1.00  0.00    -0.212 OA 
ENDBRANCH   5   7
ENDBRANCH   4   5
BRANCH   4  12
HETATM   12  C   UNL     1      -8.594   4.509  69.511  1.00  0.00    -0.105 C  
HETATM   13  C   UNL     1      -9.875   4.198  70.253  1.00  0.00    -0.239 C  
HETATM   14  C   UNL     1      -8.672   4.677  71.011  1.00  0.00    -0.140 C  
ENDBRANCH   4  12
ENDBRANCH   3   4
TORSDOF 4
ENDMDL
MODEL      218
REMARK 921   NORMALIZED FREE ENERGY PREDICTED BY IDOCK:   -1.65 KCAL/MOL
REMARK 922        TOTAL FREE ENERGY PREDICTED BY IDOCK:   -2.48 KCAL/MOL
REMARK 923 INTER-LIGAND FREE ENERGY PREDICTED BY IDOCK:   -2.04 KCAL/MOL
REMARK 924 INTRA-LIGAND FREE ENERGY PREDICTED BY IDOCK:   -0.44 KCAL/MOL
REMARK 927      BINDING AFFINITY PREDICTED BY RF-SCORE:    0.00 PKD
ROOT
HETATM    1  C   UNL     1      -6.733   6.423  71.814  1.00  0.00    -0.063 C  
HETATM    2  C   UNL     1      -6.626   5.366  70.755  1.00  0.00    -0.039 C  
HETATM    3  C   UNL     1      -7.832   6.282  70.783  1.00  0.00    -0.106 C  
ENDROOT
BRANCH   3   4
HETATM    4  C   UNL     1      -8.041   7.386  69.772  1.00  0.00    -0.127 C  
BRANCH   4   5
HETATM    5  N   UNL     1      -8.863   8.423  70.359  1.00  0.00    -0.142 NA 
HETATM    6  H   UNL     1      -8.536   9.388  70.342  1.00  0.00     0.000 HD 
BRANCH   5   7
HETATM    7  C   UNL     1     -10.056   8.136  70.928  1.00  0.00    -0.188 A  
HETATM    8  N   UNL     1     -11.107   7.626  70.383  1.00  0.00    -0.261 NA 
HETATM    9  C   UNL     1     -12.071   7.519  71.475  1.00  0.00    -0.316 A  
HETATM   10  C   UNL     1     -11.323   7.938  72.719  1.00  0.00    -0.393 A  
HETATM   11  O   UNL     1     -10.073   8.416  72.252  1.00  0.00    -0.263 OA 
ENDBRANCH   5   7
ENDBRANCH   4   5
BRANCH   4  12
HETATM   12  C   UNL     1      -6.718   8.001  69.371  1.00  0.00    -0.039 C  
HETATM   13  C   UNL     1      -6.496   9.489  69.522  1.00  0.00    -0.044 C  
HETATM   14  C   UNL     1      -6.612   8.889  68.153  1.00  0.00    -0.061 C  
ENDBRANCH   4  12
ENDBRANCH   3   4
TORSDOF 4
ENDMDL
MODEL      219
REMARK 921   NORMALIZED FREE ENERGY PREDICTED BY IDOCK:   -1.61 KCAL/MOL
REMARK 922        TOTAL FREE ENERGY PREDICTED BY IDOCK:   -2.43 KCAL/MOL
REMARK 923 INTER-LIGAND FREE ENERGY PREDICTED BY IDOCK:   -2.14 KCAL/MOL
REMARK 924 INTRA-LIGAND FREE ENERGY PREDICTED BY IDOCK:   -0.29 KCAL/MOL
REMARK 927      BINDING AFFINITY PREDICTED BY RF-SCORE:    0.00 PKD
ROOT
HETATM    1  C   UNL     1      -6.802   6.761  71.593  1.00  0.00    -0.066 C  
HETATM    2  C   UNL     1      -6.253   6.211  70.310  1.00  0.00    -0.031 C  
HETATM    3  C   UNL     1      -7.715   6.009  70.649  1.00  0.00    -0.101 C  
ENDROOT
BRANCH   3   4
HETATM    4  C   UNL     1      -8.825   6.755  69.945  1.00  0.00    -0.141 C  
BRANCH   4   5
HETATM    5  N   UNL     1      -8.577   6.752  68.520  1.00  0.00    -0.125 NA 
HETATM    6  H   UNL     1      -8.071   7.531  68.099  1.00  0.00     0.000 HD 
BRANCH   5   7
HETATM    7  C   UNL     1      -9.004   5.737  67.734  1.00  0.00    -0.107 A  
HETATM    8  N   UNL     1      -8.566   4.526  67.674  1.00  0.00    -0.103 NA 
HETATM    9  C   UNL     1      -9.416   3.878  66.678  1.00  0.00    -0.199 A  
HETATM   10  C   UNL     1     -10.460   4.905  66.306  1.00  0.00    -0.304 A  
HETATM   11  O   UNL     1     -10.050   6.097  66.954  1.00  0.00    -0.154 OA 
ENDBRANCH   5   7
ENDBRANCH   4   5
BRANCH   4  12
HETATM   12  C   UNL     1     -10.160   6.087  70.195  1.00  0.00    -0.249 C  
HETATM   13  C   UNL     1     -10.861   6.265  71.522  1.00  0.00    -0.303 C  
HETATM   14  C   UNL     1     -10.280   4.930  71.160  1.00  0.00    -0.261 C  
ENDBRANCH   4  12
ENDBRANCH   3   4
TORSDOF 4
ENDMDL
MODEL      220
REMARK 921   NORMALIZED FREE ENERGY PREDICTED BY IDOCK:   -1.61 KCAL/MOL
REMARK 922        TOTAL FREE ENERGY PREDICTED BY IDOCK:   -2.42 KCAL/MOL
REMARK 923 INTER-LIGAND FREE ENERGY PREDICTED BY IDOCK:   -2.07 KCAL/MOL
REMARK 924 INTRA-LIGAND FREE ENERGY PREDICTED BY IDOCK:   -0.36 KCAL/MOL
REMARK 927      BINDING AFFINITY PREDICTED BY RF-SCORE:    0.00 PKD
ROOT
HETATM    1  C   UNL     1      -6.396   6.625  72.379  1.00  0.00    -0.054 C  
HETATM    2  C   UNL     1      -6.249   5.247  71.806  1.00  0.00    -0.030 C  
HETATM    3  C   UNL     1      -7.382   5.544  72.766  1.00  0.00    -0.092 C  
ENDROOT
BRANCH   3   4
HETATM    4  C   UNL     1      -8.821   5.663  72.317  1.00  0.00    -0.132 C  
BRANCH   4   5
HETATM    5  N   UNL     1      -9.678   5.003  73.278  1.00  0.00    -0.143 NA 
HETATM    6  H   UNL     1      -9.970   5.506  74.115  1.00  0.00     0.000 HD 
BRANCH   5   7
HETATM    7  C   UNL     1     -10.100   3.732  73.086  1.00  0.00    -0.143 A  
HETATM    8  N   UNL     1      -9.605   2.827  72.313  1.00  0.00    -0.118 NA 
HETATM    9  C   UNL     1     -10.446   1.654  72.536  1.00  0.00    -0.157 A  
HETATM   10  C   UNL     1     -11.395   2.041  73.647  1.00  0.00    -0.217 A  
HETATM   11  O   UNL     1     -11.167   3.424  73.860  1.00  0.00    -0.190 OA 
ENDBRANCH   5   7
ENDBRANCH   4   5
BRANCH   4  12
HETATM   12  C   UNL     1      -9.235   7.115  72.232  1.00  0.00    -0.149 C  
HETATM   13  C   UNL     1      -9.862   7.798  73.427  1.00  0.00    -0.346 C  
HETATM   14  C   UNL     1     -10.695   7.507  72.214  1.00  0.00    -0.294 C  
ENDBRANCH   4  12
ENDBRANCH   3   4
TORSDOF 4
ENDMDL
MODEL      221
REMARK 921   NORMALIZED FREE ENERGY PREDICTED BY IDOCK:   -1.60 KCAL/MOL
REMARK 922        TOTAL FREE ENERGY PREDICTED BY IDOCK:   -2.42 KCAL/MOL
REMARK 923 INTER-LIGAND FREE ENERGY PREDICTED BY IDOCK:   -2.22 KCAL/MOL
REMARK 924 INTRA-LIGAND FREE ENERGY PREDICTED BY IDOCK:   -0.20 KCAL/MOL
REMARK 927      BINDING AFFINITY PREDICTED BY RF-SCORE:    0.00 PKD
ROOT
HETATM    1  C   UNL     1      -6.838   6.960  71.677  1.00  0.00    -0.065 C  
HETATM    2  C   UNL     1      -6.396   7.197  70.264  1.00  0.00    -0.034 C  
HETATM    3  C   UNL     1      -7.801   7.574  70.684  1.00  0.00    -0.095 C  
ENDROOT
BRANCH   3   4
HETATM    4  C   UNL     1      -8.238   9.010  70.872  1.00  0.00    -0.185 C  
BRANCH   4   5
HETATM    5  N   UNL     1      -7.954   9.759  69.667  1.00  0.00    -0.132 NA 
HETATM    6  H   UNL     1      -7.094  10.303  69.608  1.00  0.00     0.000 HD 
BRANCH   5   7
HETATM    7  C   UNL     1      -8.808   9.751  68.617  1.00  0.00    -0.126 A  
HETATM    8  N   UNL     1      -9.709  10.619  68.307  1.00  0.00    -0.156 NA 
HETATM    9  C   UNL     1     -10.299  10.109  67.071  1.00  0.00    -0.244 A  
HETATM   10  C   UNL     1      -9.481   8.892  66.705  1.00  0.00    -0.202 A  
HETATM   11  O   UNL     1      -8.619   8.682  67.810  1.00  0.00    -0.134 OA 
ENDBRANCH   5   7
ENDBRANCH   4   5
BRANCH   4  12
HETATM   12  C   UNL     1      -9.726   9.085  71.136  1.00  0.00    -0.369 C  
HETATM   13  C   UNL     1     -10.283   8.646  72.472  1.00  0.00    -0.238 C  
HETATM   14  C   UNL     1     -10.559   7.829  71.245  1.00  0.00    -0.241 C  
ENDBRANCH   4  12
ENDBRANCH   3   4
TORSDOF 4
ENDMDL
MODEL      222
REMARK 921   NORMALIZED FREE ENERGY PREDICTED BY IDOCK:   -1.54 KCAL/MOL
REMARK 922        TOTAL FREE ENERGY PREDICTED BY IDOCK:   -2.35 KCAL/MOL
REMARK 923 INTER-LIGAND FREE ENERGY PREDICTED BY IDOCK:   -1.94 KCAL/MOL
REMARK 924 INTRA-LIGAND FREE ENERGY PREDICTED BY IDOCK:   -0.41 KCAL/MOL
REMARK 927      BINDING AFFINITY PREDICTED BY RF-SCORE:    0.00 PKD
ROOT
HETATM    1  C   UNL     1      -6.165   3.475  72.677  1.00  0.00    -0.009 C  
HETATM    2  C   UNL     1      -6.989   3.238  71.447  1.00  0.00    -0.032 C  
HETATM    3  C   UNL     1      -7.594   2.998  72.814  1.00  0.00    -0.050 C  
ENDROOT
BRANCH   3   4
HETATM    4  C   UNL     1      -8.625   3.921  73.423  1.00  0.00    -0.087 C  
BRANCH   4   5
HETATM    5  N   UNL     1      -9.129   4.816  72.403  1.00  0.00    -0.125 NA 
HETATM    6  H   UNL     1      -9.513   4.426  71.543  1.00  0.00     0.000 HD 
BRANCH   5   7
HETATM    7  C   UNL     1      -9.100   6.158  72.569  1.00  0.00    -0.138 A  
HETATM    8  N   UNL     1      -9.619   7.072  71.824  1.00  0.00    -0.156 NA 
HETATM    9  C   UNL     1      -9.295   8.326  72.502  1.00  0.00    -0.280 A  
HETATM   10  C   UNL     1      -8.626   7.924  73.796  1.00  0.00    -0.265 A  
HETATM   11  O   UNL     1      -8.451   6.521  73.700  1.00  0.00    -0.121 OA 
ENDBRANCH   5   7
ENDBRANCH   4   5
BRANCH   4  12
HETATM   12  C   UNL     1      -9.790   3.130  73.976  1.00  0.00    -0.148 C  
HETATM   13  C   UNL     1     -10.557   2.181  73.083  1.00  0.00    -0.244 C  
HETATM   14  C   UNL     1     -11.209   3.444  73.562  1.00  0.00    -0.280 C  
ENDBRANCH   4  12
ENDBRANCH   3   4
TORSDOF 4
ENDMDL
MODEL      223
REMARK 921   NORMALIZED FREE ENERGY PREDICTED BY IDOCK:   -1.08 KCAL/MOL
REMARK 922        TOTAL FREE ENERGY PREDICTED BY IDOCK:   -1.77 KCAL/MOL
REMARK 923 INTER-LIGAND FREE ENERGY PREDICTED BY IDOCK:   -1.34 KCAL/MOL
REMARK 924 INTRA-LIGAND FREE ENERGY PREDICTED BY IDOCK:   -0.43 KCAL/MOL
REMARK 927      BINDING AFFINITY PREDICTED BY RF-SCORE:    0.00 PKD
ROOT
HETATM    1  C   UNL     1      -6.024   7.022  71.312  1.00  0.00    -0.036 C  
HETATM    2  C   UNL     1      -5.381   6.166  70.261  1.00  0.00    -0.013 C  
HETATM    3  C   UNL     1      -6.709   6.834  69.976  1.00  0.00    -0.049 C  
ENDROOT
BRANCH   3   4
HETATM    4  C   UNL     1      -6.844   8.016  69.043  1.00  0.00    -0.057 C  
BRANCH   4   5
HETATM    5  N   UNL     1      -7.992   8.806  69.433  1.00  0.00    -0.098 NA 
HETATM    6  H   UNL     1      -8.031   9.199  70.373  1.00  0.00     0.000 HD 
BRANCH   5   7
HETATM    7  C   UNL     1      -9.014   9.031  68.576  1.00  0.00    -0.133 A  
HETATM    8  N   UNL     1      -9.333   8.375  67.514  1.00  0.00    -0.145 NA 
HETATM    9  C   UNL     1     -10.528   9.050  67.012  1.00  0.00    -0.246 A  
HETATM   10  C   UNL     1     -10.867  10.097  68.047  1.00  0.00    -0.270 A  
HETATM   11  O   UNL     1      -9.780  10.080  68.957  1.00  0.00    -0.179 OA 
ENDBRANCH   5   7
ENDBRANCH   4   5
BRANCH   4  12
HETATM   12  C   UNL     1      -5.616   8.897  69.117  1.00  0.00    -0.036 C  
HETATM   13  C   UNL     1      -5.738  10.332  69.578  1.00  0.00    -0.038 C  
HETATM   14  C   UNL     1      -5.417  10.035  68.143  1.00  0.00    -0.038 C  
ENDBRANCH   4  12
ENDBRANCH   3   4
TORSDOF 4
ENDMDL
MODEL      224
REMARK 921   NORMALIZED FREE ENERGY PREDICTED BY IDOCK:   -0.86 KCAL/MOL
REMARK 922        TOTAL FREE ENERGY PREDICTED BY IDOCK:   -1.50 KCAL/MOL
REMARK 923 INTER-LIGAND FREE ENERGY PREDICTED BY IDOCK:   -3.08 KCAL/MOL
REMARK 924 INTRA-LIGAND FREE ENERGY PREDICTED BY IDOCK:    1.58 KCAL/MOL
REMARK 927      BINDING AFFINITY PREDICTED BY RF-SCORE:    0.00 PKD
ROOT
HETATM    1  C   UNL     1      -9.549  14.569  68.732  1.00  0.00    -0.193 C  
HETATM    2  C   UNL     1     -10.459  15.433  67.911  1.00  0.00    -0.256 C  
HETATM    3  C   UNL     1     -10.433  13.938  67.678  1.00  0.00    -0.245 C  
ENDROOT
BRANCH   3   4
HETATM    4  C   UNL     1     -11.558  13.025  68.110  1.00  0.00    -0.341 C  
BRANCH   4   5
HETATM    5  N   UNL     1     -11.613  11.881  67.227  1.00  0.00    -0.506 NA 
HETATM    6  H   UNL     1     -12.520  11.490  66.971  1.00  0.00     0.000 HD 
BRANCH   5   7
HETATM    7  C   UNL     1     -10.485  11.318  66.734  1.00  0.00    -0.248 A  
HETATM    8  N   UNL     1     -10.255  10.079  66.466  1.00  0.00    -0.233 NA 
HETATM    9  C   UNL     1      -8.892  10.065  65.940  1.00  0.00    -0.144 A  
HETATM   10  C   UNL     1      -8.476  11.516  65.854  1.00  0.00     0.062 A  
HETATM   11  O   UNL     1      -9.522  12.235  66.484  1.00  0.00    -0.226 OA 
ENDBRANCH   5   7
ENDBRANCH   4   5
BRANCH   4  12
HETATM   12  C   UNL     1     -11.329  12.525  69.519  1.00  0.00    -0.240 C  
HETATM   13  C   UNL     1     -10.714  11.163  69.751  1.00  0.00    -0.069 C  
HETATM   14  C   UNL     1     -12.157  11.395  70.087  1.00  0.00    -0.439 C  
ENDBRANCH   4  12
ENDBRANCH   3   4
TORSDOF 4
ENDMDL
