MODEL        1
REMARK 921   NORMALIZED FREE ENERGY PREDICTED BY IDOCK:   -7.55 KCAL/MOL
REMARK 922        TOTAL FREE ENERGY PREDICTED BY IDOCK:  -10.53 KCAL/MOL
REMARK 923 INTER-LIGAND FREE ENERGY PREDICTED BY IDOCK:   -9.75 KCAL/MOL
REMARK 924 INTRA-LIGAND FREE ENERGY PREDICTED BY IDOCK:   -0.78 KCAL/MOL
REMARK 927      BINDING AFFINITY PREDICTED BY RF-SCORE:    0.00 PKD
ROOT
HETATM    1  C   UNL     1     -10.360   9.404  67.175  1.00  0.00    -0.326 C  
HETATM    2  C   UNL     1     -10.824   9.662  68.582  1.00  0.00    -0.203 A  
HETATM    3  C   UNL     1     -10.468   8.695  69.547  1.00  0.00    -0.222 A  
HETATM    4  C   UNL     1     -10.844   8.797  70.889  1.00  0.00    -0.293 A  
HETATM    5  C   UNL     1     -11.654  10.742  68.955  1.00  0.00    -0.299 A  
HETATM    6  C   UNL     1     -11.553   9.931  71.281  1.00  0.00    -0.456 A  
HETATM    7  C   UNL     1     -12.642  12.145  70.855  1.00  0.00    -0.340 C  
HETATM    8  C   UNL     1     -11.941  10.913  70.338  1.00  0.00    -0.453 A  
ENDROOT
BRANCH   4   9
HETATM    9  C   UNL     1     -10.520   7.662  71.773  1.00  0.00    -0.241 C  
HETATM   10  C   UNL     1     -10.547   7.659  73.113  1.00  0.00    -0.438 C  
HETATM   11  C   UNL     1     -10.162   6.504  73.854  1.00  0.00    -0.332 C  
HETATM   12  N   UNL     1      -9.837   5.562  74.446  1.00  0.00    -0.190 NA 
ENDBRANCH   4   9
BRANCH   5  13
HETATM   13  N   UNL     1     -12.282  11.580  67.997  1.00  0.00    -0.476 NA 
HETATM   14  H   UNL     1     -13.209  11.271  67.705  1.00  0.00     0.000 HD 
BRANCH  13  15
HETATM   15  C   UNL     1     -11.839  12.773  67.381  1.00  0.00    -0.342 A  
HETATM   16  C   UNL     1     -11.506  12.733  66.043  1.00  0.00    -0.396 A  
HETATM   17  C   UNL     1     -11.090  13.915  65.480  1.00  0.00    -0.304 A  
HETATM   18  N   UNL     1     -11.016  15.073  66.158  1.00  0.00    -0.332 NA 
HETATM   19  C   UNL     1     -11.350  15.032  67.456  1.00  0.00    -0.333 A  
HETATM   20  N   UNL     1     -11.763  13.914  68.074  1.00  0.00    -0.333 NA 
BRANCH  19  21
HETATM   21  N   UNL     1     -11.243  16.238  68.152  1.00  0.00    -0.333 NA 
HETATM   22  H   UNL     1     -11.950  16.373  68.875  1.00  0.00     0.000 HD 
BRANCH  21  23
HETATM   23  C   UNL     1     -10.332  17.295  68.026  1.00  0.00    -0.353 A  
HETATM   24  C   UNL     1      -9.019  17.240  68.508  1.00  0.00    -0.273 A  
HETATM   25  C   UNL     1      -8.122  18.291  68.329  1.00  0.00    -0.311 A  
HETATM   26  C   UNL     1      -8.536  19.450  67.670  1.00  0.00    -0.343 A  
HETATM   27  C   UNL     1      -7.600  20.510  67.452  1.00  0.00    -0.339 C  
HETATM   28  C   UNL     1      -9.854  19.554  67.230  1.00  0.00    -0.468 A  
HETATM   29  C   UNL     1     -10.745  18.488  67.412  1.00  0.00    -0.424 A  
HETATM   30  N   UNL     1      -6.829  21.359  67.266  1.00  0.00    -0.599 NA 
ENDBRANCH  21  23
ENDBRANCH  19  21
ENDBRANCH  13  15
ENDBRANCH   5  13
TORSDOF 5
ENDMDL
MODEL        2
REMARK 921   NORMALIZED FREE ENERGY PREDICTED BY IDOCK:   -7.49 KCAL/MOL
REMARK 922        TOTAL FREE ENERGY PREDICTED BY IDOCK:  -10.46 KCAL/MOL
REMARK 923 INTER-LIGAND FREE ENERGY PREDICTED BY IDOCK:   -9.86 KCAL/MOL
REMARK 924 INTRA-LIGAND FREE ENERGY PREDICTED BY IDOCK:   -0.60 KCAL/MOL
REMARK 927      BINDING AFFINITY PREDICTED BY RF-SCORE:    0.00 PKD
ROOT
HETATM    1  C   UNL     1     -10.014  10.779  66.017  1.00  0.00    -0.295 C  
HETATM    2  C   UNL     1     -10.504  11.524  67.228  1.00  0.00    -0.246 A  
HETATM    3  C   UNL     1     -11.308  10.796  68.132  1.00  0.00    -0.377 A  
HETATM    4  C   UNL     1     -11.844  11.364  69.289  1.00  0.00    -0.417 A  
HETATM    5  C   UNL     1     -10.286  12.902  67.449  1.00  0.00    -0.230 A  
HETATM    6  C   UNL     1     -11.519  12.689  69.574  1.00  0.00    -0.294 A  
HETATM    7  C   UNL     1     -10.363  14.859  69.099  1.00  0.00    -0.246 C  
HETATM    8  C   UNL     1     -10.730  13.456  68.683  1.00  0.00    -0.275 A  
ENDROOT
BRANCH   4   9
HETATM    9  C   UNL     1     -12.769  10.538  70.086  1.00  0.00    -0.191 C  
HETATM   10  C   UNL     1     -12.592  10.133  71.351  1.00  0.00    -0.526 C  
HETATM   11  C   UNL     1     -13.546   9.292  71.995  1.00  0.00    -0.452 C  
HETATM   12  N   UNL     1     -14.324   8.599  72.504  1.00  0.00    -0.549 NA 
ENDBRANCH   4   9
BRANCH   5  13
HETATM   13  N   UNL     1      -9.741  13.753  66.452  1.00  0.00    -0.290 NA 
HETATM   14  H   UNL     1      -8.796  13.508  66.155  1.00  0.00     0.000 HD 
BRANCH  13  15
HETATM   15  C   UNL     1     -10.288  14.881  65.801  1.00  0.00    -0.332 A  
HETATM   16  C   UNL     1     -11.293  14.681  64.878  1.00  0.00    -0.403 A  
HETATM   17  C   UNL     1     -11.805  15.805  64.276  1.00  0.00    -0.118 A  
HETATM   18  N   UNL     1     -11.388  17.052  64.557  1.00  0.00    -0.986 NA 
HETATM   19  C   UNL     1     -10.404  17.166  65.461  1.00  0.00    -0.115 A  
HETATM   20  N   UNL     1      -9.855  16.114  66.087  1.00  0.00    -0.310 NA 
BRANCH  19  21
HETATM   21  N   UNL     1      -9.965  18.466  65.723  1.00  0.00    -0.500 NA 
HETATM   22  H   UNL     1     -10.424  19.187  65.166  1.00  0.00     0.000 HD 
BRANCH  21  23
HETATM   23  C   UNL     1      -9.004  18.949  66.620  1.00  0.00    -0.323 A  
HETATM   24  C   UNL     1      -7.813  19.563  66.216  1.00  0.00    -0.328 A  
HETATM   25  C   UNL     1      -6.896  20.073  67.133  1.00  0.00    -0.254 A  
HETATM   26  C   UNL     1      -7.149  19.959  68.500  1.00  0.00    -0.336 A  
HETATM   27  C   UNL     1      -6.226  20.521  69.438  1.00  0.00    -0.251 C  
HETATM   28  C   UNL     1      -8.300  19.303  68.933  1.00  0.00    -0.339 A  
HETATM   29  C   UNL     1      -9.216  18.798  68.001  1.00  0.00    -0.334 A  
HETATM   30  N   UNL     1      -5.477  20.994  70.191  1.00  0.00    -0.547 NA 
ENDBRANCH  21  23
ENDBRANCH  19  21
ENDBRANCH  13  15
ENDBRANCH   5  13
TORSDOF 5
ENDMDL
MODEL        3
REMARK 921   NORMALIZED FREE ENERGY PREDICTED BY IDOCK:   -7.45 KCAL/MOL
REMARK 922        TOTAL FREE ENERGY PREDICTED BY IDOCK:  -10.40 KCAL/MOL
REMARK 923 INTER-LIGAND FREE ENERGY PREDICTED BY IDOCK:   -9.66 KCAL/MOL
REMARK 924 INTRA-LIGAND FREE ENERGY PREDICTED BY IDOCK:   -0.74 KCAL/MOL
REMARK 927      BINDING AFFINITY PREDICTED BY RF-SCORE:    0.00 PKD
ROOT
HETATM    1  C   UNL     1     -11.201  13.847  68.649  1.00  0.00    -0.298 C  
HETATM    2  C   UNL     1     -10.958  12.435  68.196  1.00  0.00    -0.263 A  
HETATM    3  C   UNL     1     -11.180  11.421  69.153  1.00  0.00    -0.335 A  
HETATM    4  C   UNL     1     -10.979  10.067  68.876  1.00  0.00    -0.244 A  
HETATM    5  C   UNL     1     -10.442  12.090  66.927  1.00  0.00    -0.223 A  
HETATM    6  C   UNL     1     -10.595   9.718  67.582  1.00  0.00    -0.333 A  
HETATM    7  C   UNL     1     -10.007  10.244  65.206  1.00  0.00    -0.387 C  
HETATM    8  C   UNL     1     -10.348  10.708  66.601  1.00  0.00    -0.297 A  
ENDROOT
BRANCH   4   9
HETATM    9  C   UNL     1     -11.123   9.116  69.993  1.00  0.00    -0.208 C  
HETATM   10  C   UNL     1     -11.013   9.394  71.300  1.00  0.00    -0.440 C  
HETATM   11  C   UNL     1     -11.127   8.369  72.283  1.00  0.00    -0.368 C  
HETATM   12  N   UNL     1     -11.212   7.524  73.072  1.00  0.00    -0.357 NA 
ENDBRANCH   4   9
BRANCH   5  13
HETATM   13  N   UNL     1      -9.928  13.061  66.028  1.00  0.00    -0.277 NA 
HETATM   14  H   UNL     1      -8.951  12.925  65.769  1.00  0.00     0.000 HD 
BRANCH  13  15
HETATM   15  C   UNL     1     -10.543  14.186  65.433  1.00  0.00    -0.346 A  
HETATM   16  C   UNL     1     -11.544  13.972  64.510  1.00  0.00    -0.403 A  
HETATM   17  C   UNL     1     -12.123  15.091  63.963  1.00  0.00    -0.094 A  
HETATM   18  N   UNL     1     -11.774  16.345  64.297  1.00  0.00    -0.832 NA 
HETATM   19  C   UNL     1     -10.789  16.474  65.198  1.00  0.00    -0.233 A  
HETATM   20  N   UNL     1     -10.176  15.427  65.772  1.00  0.00    -0.325 NA 
BRANCH  19  21
HETATM   21  N   UNL     1     -10.421  17.783  65.515  1.00  0.00    -0.636 NA 
HETATM   22  H   UNL     1     -10.870  18.498  64.944  1.00  0.00     0.000 HD 
BRANCH  21  23
HETATM   23  C   UNL     1      -9.540  18.282  66.484  1.00  0.00    -0.320 A  
HETATM   24  C   UNL     1      -8.151  18.315  66.319  1.00  0.00    -0.254 A  
HETATM   25  C   UNL     1      -7.304  18.858  67.283  1.00  0.00    -0.234 A  
HETATM   26  C   UNL     1      -7.841  19.370  68.465  1.00  0.00    -0.389 A  
HETATM   27  C   UNL     1      -6.972  19.964  69.434  1.00  0.00    -0.260 C  
HETATM   28  C   UNL     1      -9.216  19.299  68.682  1.00  0.00    -0.436 A  
HETATM   29  C   UNL     1     -10.057  18.755  67.702  1.00  0.00    -0.415 A  
HETATM   30  N   UNL     1      -6.260  20.459  70.209  1.00  0.00    -0.450 NA 
ENDBRANCH  21  23
ENDBRANCH  19  21
ENDBRANCH  13  15
ENDBRANCH   5  13
TORSDOF 5
ENDMDL
MODEL        4
REMARK 921   NORMALIZED FREE ENERGY PREDICTED BY IDOCK:   -7.42 KCAL/MOL
REMARK 922        TOTAL FREE ENERGY PREDICTED BY IDOCK:  -10.36 KCAL/MOL
REMARK 923 INTER-LIGAND FREE ENERGY PREDICTED BY IDOCK:   -9.40 KCAL/MOL
REMARK 924 INTRA-LIGAND FREE ENERGY PREDICTED BY IDOCK:   -0.96 KCAL/MOL
REMARK 927      BINDING AFFINITY PREDICTED BY RF-SCORE:    0.00 PKD
ROOT
HETATM    1  C   UNL     1     -12.098  11.233  68.995  1.00  0.00    -0.325 C  
HETATM    2  C   UNL     1     -11.828  12.705  68.848  1.00  0.00    -0.345 A  
HETATM    3  C   UNL     1     -11.790  13.459  70.041  1.00  0.00    -0.364 A  
HETATM    4  C   UNL     1     -11.565  14.837  70.055  1.00  0.00    -0.332 A  
HETATM    5  C   UNL     1     -11.708  13.366  67.606  1.00  0.00    -0.359 A  
HETATM    6  C   UNL     1     -11.317  15.467  68.836  1.00  0.00    -0.322 A  
HETATM    7  C   UNL     1     -11.012  15.486  66.351  1.00  0.00    -0.238 C  
HETATM    8  C   UNL     1     -11.363  14.747  67.618  1.00  0.00    -0.352 A  
ENDROOT
BRANCH   4   9
HETATM    9  C   UNL     1     -11.674  15.531  71.351  1.00  0.00    -0.470 C  
HETATM   10  C   UNL     1     -12.629  15.355  72.274  1.00  0.00    -0.455 C  
HETATM   11  C   UNL     1     -12.646  16.128  73.471  1.00  0.00    -0.569 C  
HETATM   12  N   UNL     1     -12.656  16.770  74.436  1.00  0.00    -0.626 NA 
ENDBRANCH   4   9
BRANCH   5  13
HETATM   13  N   UNL     1     -12.021  12.729  66.376  1.00  0.00    -0.478 NA 
HETATM   14  H   UNL     1     -12.971  12.893  66.043  1.00  0.00     0.000 HD 
BRANCH  13  15
HETATM   15  C   UNL     1     -11.235  11.908  65.535  1.00  0.00    -0.299 A  
HETATM   16  C   UNL     1     -10.970  12.346  64.255  1.00  0.00    -0.396 A  
HETATM   17  C   UNL     1     -10.194  11.524  63.475  1.00  0.00    -0.420 A  
HETATM   18  N   UNL     1      -9.688  10.356  63.905  1.00  0.00    -0.312 NA 
HETATM   19  C   UNL     1      -9.993   9.994  65.159  1.00  0.00    -0.280 A  
HETATM   20  N   UNL     1     -10.746  10.744  65.978  1.00  0.00    -0.153 NA 
BRANCH  19  21
HETATM   21  N   UNL     1      -9.480   8.766  65.581  1.00  0.00    -0.435 NA 
HETATM   22  H   UNL     1      -8.833   8.330  64.924  1.00  0.00     0.000 HD 
BRANCH  21  23
HETATM   23  C   UNL     1      -9.701   8.030  66.753  1.00  0.00    -0.237 A  
HETATM   24  C   UNL     1      -9.012   8.260  67.949  1.00  0.00    -0.134 A  
HETATM   25  C   UNL     1      -9.286   7.540  69.110  1.00  0.00    -0.144 A  
HETATM   26  C   UNL     1     -10.259   6.541  69.091  1.00  0.00    -0.208 A  
HETATM   27  C   UNL     1     -10.566   5.833  70.295  1.00  0.00    -0.299 C  
HETATM   28  C   UNL     1     -10.922   6.252  67.899  1.00  0.00    -0.421 A  
HETATM   29  C   UNL     1     -10.641   6.986  66.740  1.00  0.00    -0.297 A  
HETATM   30  N   UNL     1     -10.820   5.272  71.282  1.00  0.00    -0.134 NA 
ENDBRANCH  21  23
ENDBRANCH  19  21
ENDBRANCH  13  15
ENDBRANCH   5  13
TORSDOF 5
ENDMDL
MODEL        5
REMARK 921   NORMALIZED FREE ENERGY PREDICTED BY IDOCK:   -7.38 KCAL/MOL
REMARK 922        TOTAL FREE ENERGY PREDICTED BY IDOCK:  -10.32 KCAL/MOL
REMARK 923 INTER-LIGAND FREE ENERGY PREDICTED BY IDOCK:   -9.80 KCAL/MOL
REMARK 924 INTRA-LIGAND FREE ENERGY PREDICTED BY IDOCK:   -0.52 KCAL/MOL
REMARK 927      BINDING AFFINITY PREDICTED BY RF-SCORE:    0.00 PKD
ROOT
HETATM    1  C   UNL     1      -8.324  13.050  67.168  1.00  0.00    -0.153 C  
HETATM    2  C   UNL     1      -9.362  13.763  66.346  1.00  0.00    -0.215 A  
HETATM    3  C   UNL     1      -9.450  15.161  66.521  1.00  0.00    -0.308 A  
HETATM    4  C   UNL     1     -10.377  15.949  65.835  1.00  0.00    -0.383 A  
HETATM    5  C   UNL     1     -10.289  13.110  65.505  1.00  0.00    -0.290 A  
HETATM    6  C   UNL     1     -11.205  15.319  64.907  1.00  0.00    -0.422 A  
HETATM    7  C   UNL     1     -12.034  13.323  63.643  1.00  0.00    -0.547 C  
HETATM    8  C   UNL     1     -11.157  13.917  64.717  1.00  0.00    -0.386 A  
ENDROOT
BRANCH   4   9
HETATM    9  C   UNL     1     -10.455  17.376  66.196  1.00  0.00    -0.284 C  
HETATM   10  C   UNL     1      -9.424  18.205  66.410  1.00  0.00    -0.284 C  
HETATM   11  C   UNL     1      -9.636  19.558  66.802  1.00  0.00    -0.357 C  
HETATM   12  N   UNL     1      -9.821  20.654  67.131  1.00  0.00    -0.442 NA 
ENDBRANCH   4   9
BRANCH   5  13
HETATM   13  N   UNL     1     -10.448  11.698  65.504  1.00  0.00    -0.264 NA 
HETATM   14  H   UNL     1     -10.507  11.279  64.576  1.00  0.00     0.000 HD 
BRANCH  13  15
HETATM   15  C   UNL     1     -10.536  10.778  66.573  1.00  0.00    -0.218 A  
HETATM   16  C   UNL     1      -9.796   9.617  66.499  1.00  0.00    -0.298 A  
HETATM   17  C   UNL     1      -9.902   8.754  67.563  1.00  0.00    -0.179 A  
HETATM   18  N   UNL     1     -10.661   9.001  68.644  1.00  0.00    -0.195 NA 
HETATM   19  C   UNL     1     -11.356  10.148  68.642  1.00  0.00    -0.112 A  
HETATM   20  N   UNL     1     -11.303  11.036  67.637  1.00  0.00    -0.434 NA 
BRANCH  19  21
HETATM   21  N   UNL     1     -12.158  10.377  69.761  1.00  0.00    -0.488 NA 
HETATM   22  H   UNL     1     -12.645   9.550  70.108  1.00  0.00     0.000 HD 
BRANCH  21  23
HETATM   23  C   UNL     1     -12.410  11.547  70.489  1.00  0.00    -0.342 A  
HETATM   24  C   UNL     1     -11.971  12.813  70.087  1.00  0.00    -0.371 A  
HETATM   25  C   UNL     1     -12.275  13.965  70.810  1.00  0.00    -0.441 A  
HETATM   26  C   UNL     1     -13.021  13.867  71.986  1.00  0.00    -0.438 A  
HETATM   27  C   UNL     1     -13.366  15.056  72.703  1.00  0.00    -0.457 C  
HETATM   28  C   UNL     1     -13.423  12.612  72.440  1.00  0.00    -0.450 A  
HETATM   29  C   UNL     1     -13.115  11.462  71.701  1.00  0.00    -0.498 A  
HETATM   30  N   UNL     1     -13.654  16.028  73.271  1.00  0.00    -0.541 NA 
ENDBRANCH  21  23
ENDBRANCH  19  21
ENDBRANCH  13  15
ENDBRANCH   5  13
TORSDOF 5
ENDMDL
MODEL        6
REMARK 921   NORMALIZED FREE ENERGY PREDICTED BY IDOCK:   -7.30 KCAL/MOL
REMARK 922        TOTAL FREE ENERGY PREDICTED BY IDOCK:  -10.21 KCAL/MOL
REMARK 923 INTER-LIGAND FREE ENERGY PREDICTED BY IDOCK:   -9.33 KCAL/MOL
REMARK 924 INTRA-LIGAND FREE ENERGY PREDICTED BY IDOCK:   -0.89 KCAL/MOL
REMARK 927      BINDING AFFINITY PREDICTED BY RF-SCORE:    0.00 PKD
ROOT
HETATM    1  C   UNL     1     -10.262   9.622  66.454  1.00  0.00    -0.288 C  
HETATM    2  C   UNL     1     -10.670  10.126  67.811  1.00  0.00    -0.328 A  
HETATM    3  C   UNL     1     -10.346   9.301  68.910  1.00  0.00    -0.231 A  
HETATM    4  C   UNL     1     -10.676   9.635  70.226  1.00  0.00    -0.335 A  
HETATM    5  C   UNL     1     -11.422  11.301  68.025  1.00  0.00    -0.298 A  
HETATM    6  C   UNL     1     -11.304  10.859  70.447  1.00  0.00    -0.289 A  
HETATM    7  C   UNL     1     -12.270  13.045  69.698  1.00  0.00    -0.219 C  
HETATM    8  C   UNL     1     -11.659  11.705  69.369  1.00  0.00    -0.392 A  
ENDROOT
BRANCH   4   9
HETATM    9  C   UNL     1     -10.397   8.634  71.272  1.00  0.00    -0.308 C  
HETATM   10  C   UNL     1     -11.168   8.345  72.329  1.00  0.00    -0.446 C  
HETATM   11  C   UNL     1     -10.758   7.385  73.298  1.00  0.00    -0.391 C  
HETATM   12  N   UNL     1     -10.408   6.609  74.086  1.00  0.00    -0.364 NA 
ENDBRANCH   4   9
BRANCH   5  13
HETATM   13  N   UNL     1     -12.025  12.019  66.958  1.00  0.00    -0.606 NA 
HETATM   14  H   UNL     1     -12.924  11.646  66.650  1.00  0.00     0.000 HD 
BRANCH  13  15
HETATM   15  C   UNL     1     -11.590  13.163  66.251  1.00  0.00    -0.356 A  
HETATM   16  C   UNL     1     -12.456  13.742  65.348  1.00  0.00    -0.532 A  
HETATM   17  C   UNL     1     -11.998  14.858  64.690  1.00  0.00    -0.401 A  
HETATM   18  N   UNL     1     -10.786  15.398  64.902  1.00  0.00    -0.425 NA 
HETATM   19  C   UNL     1      -9.998  14.776  65.791  1.00  0.00    -0.347 A  
HETATM   20  N   UNL     1     -10.377  13.681  66.469  1.00  0.00    -0.278 NA 
BRANCH  19  21
HETATM   21  N   UNL     1      -8.733  15.335  65.980  1.00  0.00    -0.393 NA 
HETATM   22  H   UNL     1      -7.990  14.895  65.438  1.00  0.00     0.000 HD 
BRANCH  21  23
HETATM   23  C   UNL     1      -8.308  16.398  66.788  1.00  0.00    -0.250 A  
HETATM   24  C   UNL     1      -8.755  16.595  68.100  1.00  0.00    -0.201 A  
HETATM   25  C   UNL     1      -8.281  17.638  68.894  1.00  0.00    -0.151 A  
HETATM   26  C   UNL     1      -7.347  18.534  68.373  1.00  0.00    -0.301 A  
HETATM   27  C   UNL     1      -6.831  19.577  69.205  1.00  0.00    -0.346 C  
HETATM   28  C   UNL     1      -6.926  18.395  67.051  1.00  0.00    -0.209 A  
HETATM   29  C   UNL     1      -7.407  17.341  66.265  1.00  0.00    -0.342 A  
HETATM   30  N   UNL     1      -6.406  20.413  69.892  1.00  0.00    -0.299 NA 
ENDBRANCH  21  23
ENDBRANCH  19  21
ENDBRANCH  13  15
ENDBRANCH   5  13
TORSDOF 5
ENDMDL
MODEL        7
REMARK 921   NORMALIZED FREE ENERGY PREDICTED BY IDOCK:   -7.24 KCAL/MOL
REMARK 922        TOTAL FREE ENERGY PREDICTED BY IDOCK:  -10.14 KCAL/MOL
REMARK 923 INTER-LIGAND FREE ENERGY PREDICTED BY IDOCK:   -9.29 KCAL/MOL
REMARK 924 INTRA-LIGAND FREE ENERGY PREDICTED BY IDOCK:   -0.85 KCAL/MOL
REMARK 927      BINDING AFFINITY PREDICTED BY RF-SCORE:    0.00 PKD
ROOT
HETATM    1  C   UNL     1     -11.090  14.640  64.992  1.00  0.00    -0.401 C  
HETATM    2  C   UNL     1     -10.971  15.391  66.289  1.00  0.00    -0.278 A  
HETATM    3  C   UNL     1     -10.096  16.499  66.296  1.00  0.00    -0.347 A  
HETATM    4  C   UNL     1      -9.877  17.279  67.434  1.00  0.00    -0.272 A  
HETATM    5  C   UNL     1     -11.600  14.997  67.491  1.00  0.00    -0.301 A  
HETATM    6  C   UNL     1     -10.598  16.967  68.584  1.00  0.00    -0.360 A  
HETATM    7  C   UNL     1     -12.271  15.627  69.880  1.00  0.00    -0.317 C  
HETATM    8  C   UNL     1     -11.472  15.854  68.620  1.00  0.00    -0.391 A  
ENDROOT
BRANCH   4   9
HETATM    9  C   UNL     1      -8.846  18.330  67.349  1.00  0.00    -0.254 C  
HETATM   10  C   UNL     1      -9.015  19.637  67.591  1.00  0.00    -0.384 C  
HETATM   11  C   UNL     1      -7.943  20.561  67.425  1.00  0.00    -0.305 C  
HETATM   12  N   UNL     1      -7.065  21.304  67.277  1.00  0.00    -0.536 NA 
ENDBRANCH   4   9
BRANCH   5  13
HETATM   13  N   UNL     1     -12.253  13.744  67.628  1.00  0.00    -0.432 NA 
HETATM   14  H   UNL     1     -13.246  13.755  67.394  1.00  0.00     0.000 HD 
BRANCH  13  15
HETATM   15  C   UNL     1     -11.759  12.484  68.035  1.00  0.00    -0.355 A  
HETATM   16  C   UNL     1     -11.094  11.711  67.106  1.00  0.00    -0.354 A  
HETATM   17  C   UNL     1     -10.620  10.499  67.544  1.00  0.00    -0.259 A  
HETATM   18  N   UNL     1     -10.761  10.060  68.807  1.00  0.00    -0.215 NA 
HETATM   19  C   UNL     1     -11.423  10.865  69.652  1.00  0.00    -0.305 A  
HETATM   20  N   UNL     1     -11.916  12.060  69.294  1.00  0.00    -0.295 NA 
BRANCH  19  21
HETATM   21  N   UNL     1     -11.582  10.383  70.953  1.00  0.00    -0.350 NA 
HETATM   22  H   UNL     1     -11.891  11.083  71.627  1.00  0.00     0.000 HD 
BRANCH  21  23
HETATM   23  C   UNL     1     -11.389   9.104  71.490  1.00  0.00    -0.368 A  
HETATM   24  C   UNL     1     -10.219   8.714  72.150  1.00  0.00    -0.394 A  
HETATM   25  C   UNL     1     -10.074   7.447  72.713  1.00  0.00    -0.272 A  
HETATM   26  C   UNL     1     -11.112   6.520  72.606  1.00  0.00    -0.291 A  
HETATM   27  C   UNL     1     -10.976   5.236  73.221  1.00  0.00    -0.313 C  
HETATM   28  C   UNL     1     -12.267   6.862  71.905  1.00  0.00    -0.370 A  
HETATM   29  C   UNL     1     -12.402   8.140  71.348  1.00  0.00    -0.323 A  
HETATM   30  N   UNL     1     -10.863   4.200  73.736  1.00  0.00    -0.248 NA 
ENDBRANCH  21  23
ENDBRANCH  19  21
ENDBRANCH  13  15
ENDBRANCH   5  13
TORSDOF 5
ENDMDL
MODEL        8
REMARK 921   NORMALIZED FREE ENERGY PREDICTED BY IDOCK:   -7.21 KCAL/MOL
REMARK 922        TOTAL FREE ENERGY PREDICTED BY IDOCK:  -10.10 KCAL/MOL
REMARK 923 INTER-LIGAND FREE ENERGY PREDICTED BY IDOCK:   -9.31 KCAL/MOL
REMARK 924 INTRA-LIGAND FREE ENERGY PREDICTED BY IDOCK:   -0.79 KCAL/MOL
REMARK 927      BINDING AFFINITY PREDICTED BY RF-SCORE:    0.00 PKD
ROOT
HETATM    1  C   UNL     1     -12.539  11.711  71.067  1.00  0.00    -0.431 C  
HETATM    2  C   UNL     1     -11.728  10.522  70.634  1.00  0.00    -0.453 A  
HETATM    3  C   UNL     1     -11.989   9.307  71.304  1.00  0.00    -0.414 A  
HETATM    4  C   UNL     1     -11.301   8.125  71.016  1.00  0.00    -0.293 A  
HETATM    5  C   UNL     1     -10.683  10.581  69.686  1.00  0.00    -0.259 A  
HETATM    6  C   UNL     1     -10.360   8.155  69.988  1.00  0.00    -0.215 A  
HETATM    7  C   UNL     1      -9.083   9.291  68.158  1.00  0.00    -0.130 C  
HETATM    8  C   UNL     1     -10.060   9.359  69.306  1.00  0.00    -0.200 A  
ENDROOT
BRANCH   4   9
HETATM    9  C   UNL     1     -11.575   6.955  71.869  1.00  0.00    -0.321 C  
HETATM   10  C   UNL     1     -10.689   6.032  72.270  1.00  0.00    -0.272 C  
HETATM   11  C   UNL     1     -11.095   4.916  73.057  1.00  0.00    -0.295 C  
HETATM   12  N   UNL     1     -11.439   4.007  73.690  1.00  0.00    -0.174 NA 
ENDBRANCH   4   9
BRANCH   5  13
HETATM   13  N   UNL     1     -10.178  11.812  69.191  1.00  0.00    -0.418 NA 
HETATM   14  H   UNL     1      -9.214  12.013  69.457  1.00  0.00     0.000 HD 
BRANCH  13  15
HETATM   15  C   UNL     1     -10.786  12.806  68.391  1.00  0.00    -0.249 A  
HETATM   16  C   UNL     1     -11.416  12.415  67.228  1.00  0.00    -0.421 A  
HETATM   17  C   UNL     1     -12.004  13.410  66.486  1.00  0.00    -0.400 A  
HETATM   18  N   UNL     1     -12.003  14.704  66.848  1.00  0.00    -0.340 NA 
HETATM   19  C   UNL     1     -11.367  15.008  67.989  1.00  0.00    -0.327 A  
HETATM   20  N   UNL     1     -10.769  14.090  68.764  1.00  0.00    -0.256 NA 
BRANCH  19  21
HETATM   21  N   UNL     1     -11.355  16.360  68.338  1.00  0.00    -0.335 NA 
HETATM   22  H   UNL     1     -12.153  16.659  68.897  1.00  0.00     0.000 HD 
BRANCH  21  23
HETATM   23  C   UNL     1     -10.433  17.376  68.051  1.00  0.00    -0.383 A  
HETATM   24  C   UNL     1     -10.759  18.529  67.328  1.00  0.00    -0.417 A  
HETATM   25  C   UNL     1      -9.831  19.543  67.097  1.00  0.00    -0.465 A  
HETATM   26  C   UNL     1      -8.527  19.409  67.576  1.00  0.00    -0.328 A  
HETATM   27  C   UNL     1      -7.590  20.471  67.372  1.00  0.00    -0.339 C  
HETATM   28  C   UNL     1      -8.160  18.247  68.250  1.00  0.00    -0.311 A  
HETATM   29  C   UNL     1      -9.103  17.237  68.480  1.00  0.00    -0.269 A  
HETATM   30  N   UNL     1      -6.839  21.344  67.215  1.00  0.00    -0.599 NA 
ENDBRANCH  21  23
ENDBRANCH  19  21
ENDBRANCH  13  15
ENDBRANCH   5  13
TORSDOF 5
ENDMDL
MODEL        9
REMARK 921   NORMALIZED FREE ENERGY PREDICTED BY IDOCK:   -7.19 KCAL/MOL
REMARK 922        TOTAL FREE ENERGY PREDICTED BY IDOCK:  -10.08 KCAL/MOL
REMARK 923 INTER-LIGAND FREE ENERGY PREDICTED BY IDOCK:   -9.29 KCAL/MOL
REMARK 924 INTRA-LIGAND FREE ENERGY PREDICTED BY IDOCK:   -0.79 KCAL/MOL
REMARK 927      BINDING AFFINITY PREDICTED BY RF-SCORE:    0.00 PKD
ROOT
HETATM    1  C   UNL     1     -11.004  10.098  68.079  1.00  0.00    -0.326 C  
HETATM    2  C   UNL     1     -11.474  11.437  68.576  1.00  0.00    -0.361 A  
HETATM    3  C   UNL     1     -11.485  12.488  67.634  1.00  0.00    -0.392 A  
HETATM    4  C   UNL     1     -11.883  13.787  67.959  1.00  0.00    -0.408 A  
HETATM    5  C   UNL     1     -11.805  11.708  69.922  1.00  0.00    -0.358 A  
HETATM    6  C   UNL     1     -12.334  14.023  69.257  1.00  0.00    -0.210 A  
HETATM    7  C   UNL     1     -12.894  13.315  71.593  1.00  0.00    -0.397 C  
HETATM    8  C   UNL     1     -12.322  12.997  70.233  1.00  0.00    -0.311 A  
ENDROOT
BRANCH   4   9
HETATM    9  C   UNL     1     -11.731  14.824  66.923  1.00  0.00    -0.316 C  
HETATM   10  C   UNL     1     -11.769  14.641  65.596  1.00  0.00    -0.304 C  
HETATM   11  C   UNL     1     -11.559  15.726  64.696  1.00  0.00    -0.218 C  
HETATM   12  N   UNL     1     -11.376  16.615  63.975  1.00  0.00    -1.080 NA 
ENDBRANCH   4   9
BRANCH   5  13
HETATM   13  N   UNL     1     -11.542  10.785  70.968  1.00  0.00    -0.289 NA 
HETATM   14  H   UNL     1     -10.838  11.092  71.639  1.00  0.00     0.000 HD 
BRANCH  13  15
HETATM   15  C   UNL     1     -12.092   9.511  71.235  1.00  0.00    -0.360 A  
HETATM   16  C   UNL     1     -13.401   9.440  71.664  1.00  0.00    -0.477 A  
HETATM   17  C   UNL     1     -13.900   8.183  71.903  1.00  0.00    -0.364 A  
HETATM   18  N   UNL     1     -13.190   7.056  71.721  1.00  0.00    -0.330 NA 
HETATM   19  C   UNL     1     -11.924   7.205  71.307  1.00  0.00    -0.337 A  
HETATM   20  N   UNL     1     -11.368   8.400  71.056  1.00  0.00    -0.262 NA 
BRANCH  19  21
HETATM   21  N   UNL     1     -11.192   6.026  71.147  1.00  0.00    -0.286 NA 
HETATM   22  H   UNL     1     -11.022   5.514  72.012  1.00  0.00     0.000 HD 
BRANCH  21  23
HETATM   23  C   UNL     1     -10.653   5.426  70.002  1.00  0.00    -0.284 A  
HETATM   24  C   UNL     1      -9.810   4.309  70.042  1.00  0.00    -0.275 A  
HETATM   25  C   UNL     1      -9.324   3.708  68.882  1.00  0.00    -0.235 A  
HETATM   26  C   UNL     1      -9.662   4.237  67.636  1.00  0.00    -0.186 A  
HETATM   27  C   UNL     1      -9.195   3.592  66.447  1.00  0.00    -0.168 C  
HETATM   28  C   UNL     1     -10.453   5.382  67.567  1.00  0.00    -0.235 A  
HETATM   29  C   UNL     1     -10.939   5.974  68.740  1.00  0.00    -0.384 A  
HETATM   30  N   UNL     1      -8.823   3.053  65.486  1.00  0.00    -0.131 NA 
ENDBRANCH  21  23
ENDBRANCH  19  21
ENDBRANCH  13  15
ENDBRANCH   5  13
TORSDOF 5
ENDMDL
MODEL       10
REMARK 921   NORMALIZED FREE ENERGY PREDICTED BY IDOCK:   -7.15 KCAL/MOL
REMARK 922        TOTAL FREE ENERGY PREDICTED BY IDOCK:  -10.02 KCAL/MOL
REMARK 923 INTER-LIGAND FREE ENERGY PREDICTED BY IDOCK:   -9.07 KCAL/MOL
REMARK 924 INTRA-LIGAND FREE ENERGY PREDICTED BY IDOCK:   -0.95 KCAL/MOL
REMARK 927      BINDING AFFINITY PREDICTED BY RF-SCORE:    0.00 PKD
ROOT
HETATM    1  C   UNL     1     -11.005  12.300  68.314  1.00  0.00    -0.268 C  
HETATM    2  C   UNL     1     -10.593  11.206  67.367  1.00  0.00    -0.272 A  
HETATM    3  C   UNL     1     -10.695   9.884  67.852  1.00  0.00    -0.316 A  
HETATM    4  C   UNL     1     -10.333   8.772  67.089  1.00  0.00    -0.364 A  
HETATM    5  C   UNL     1     -10.037  11.435  66.090  1.00  0.00    -0.231 A  
HETATM    6  C   UNL     1      -9.907   8.993  65.780  1.00  0.00    -0.181 A  
HETATM    7  C   UNL     1      -9.380  10.455  63.817  1.00  0.00    -0.329 C  
HETATM    8  C   UNL     1      -9.777  10.305  65.265  1.00  0.00    -0.354 A  
ENDROOT
BRANCH   4   9
HETATM    9  C   UNL     1     -10.365   7.455  67.750  1.00  0.00    -0.273 C  
HETATM   10  C   UNL     1     -10.377   7.222  69.069  1.00  0.00    -0.208 C  
HETATM   11  C   UNL     1     -10.359   5.892  69.582  1.00  0.00    -0.247 C  
HETATM   12  N   UNL     1     -10.334   4.806  69.988  1.00  0.00    -0.194 NA 
ENDBRANCH   4   9
BRANCH   5  13
HETATM   13  N   UNL     1      -9.641  12.728  65.657  1.00  0.00    -0.457 NA 
HETATM   14  H   UNL     1      -8.635  12.896  65.686  1.00  0.00     0.000 HD 
BRANCH  13  15
HETATM   15  C   UNL     1     -10.406  13.822  65.192  1.00  0.00    -0.372 A  
HETATM   16  C   UNL     1     -11.509  13.562  64.407  1.00  0.00    -0.422 A  
HETATM   17  C   UNL     1     -12.232  14.651  63.985  1.00  0.00    -0.194 A  
HETATM   18  N   UNL     1     -11.924  15.918  64.314  1.00  0.00    -0.493 NA 
HETATM   19  C   UNL     1     -10.834  16.092  65.076  1.00  0.00    -0.404 A  
HETATM   20  N   UNL     1     -10.079  15.076  65.523  1.00  0.00    -0.354 NA 
BRANCH  19  21
HETATM   21  N   UNL     1     -10.514  17.415  65.388  1.00  0.00    -0.651 NA 
HETATM   22  H   UNL     1     -10.970  18.110  64.797  1.00  0.00     0.000 HD 
BRANCH  21  23
HETATM   23  C   UNL     1      -9.674  17.951  66.373  1.00  0.00    -0.316 A  
HETATM   24  C   UNL     1      -8.287  18.063  66.224  1.00  0.00    -0.229 A  
HETATM   25  C   UNL     1      -7.483  18.641  67.205  1.00  0.00    -0.230 A  
HETATM   26  C   UNL     1      -8.061  19.108  68.386  1.00  0.00    -0.378 A  
HETATM   27  C   UNL     1      -7.237  19.739  69.372  1.00  0.00    -0.218 C  
HETATM   28  C   UNL     1      -9.432  18.959  68.585  1.00  0.00    -0.427 A  
HETATM   29  C   UNL     1     -10.230  18.380  67.589  1.00  0.00    -0.399 A  
HETATM   30  N   UNL     1      -6.563  20.263  70.161  1.00  0.00    -0.291 NA 
ENDBRANCH  21  23
ENDBRANCH  19  21
ENDBRANCH  13  15
ENDBRANCH   5  13
TORSDOF 5
ENDMDL
MODEL       11
REMARK 921   NORMALIZED FREE ENERGY PREDICTED BY IDOCK:   -7.09 KCAL/MOL
REMARK 922        TOTAL FREE ENERGY PREDICTED BY IDOCK:   -9.95 KCAL/MOL
REMARK 923 INTER-LIGAND FREE ENERGY PREDICTED BY IDOCK:   -9.61 KCAL/MOL
REMARK 924 INTRA-LIGAND FREE ENERGY PREDICTED BY IDOCK:   -0.34 KCAL/MOL
REMARK 927      BINDING AFFINITY PREDICTED BY RF-SCORE:    0.00 PKD
ROOT
HETATM    1  C   UNL     1     -12.273  12.378  64.056  1.00  0.00    -0.579 C  
HETATM    2  C   UNL     1     -11.232  13.063  64.897  1.00  0.00    -0.329 A  
HETATM    3  C   UNL     1     -11.293  14.473  64.948  1.00  0.00    -0.394 A  
HETATM    4  C   UNL     1     -10.382  15.241  65.677  1.00  0.00    -0.389 A  
HETATM    5  C   UNL     1     -10.169  12.392  65.541  1.00  0.00    -0.274 A  
HETATM    6  C   UNL     1      -9.412  14.568  66.418  1.00  0.00    -0.316 A  
HETATM    7  C   UNL     1      -8.279  12.501  67.265  1.00  0.00    -0.184 C  
HETATM    8  C   UNL     1      -9.309  13.156  66.378  1.00  0.00    -0.188 A  
ENDROOT
BRANCH   4   9
HETATM    9  C   UNL     1     -10.474  16.706  65.550  1.00  0.00    -0.285 C  
HETATM   10  C   UNL     1     -10.355  17.604  66.538  1.00  0.00    -0.337 C  
HETATM   11  C   UNL     1     -10.514  18.998  66.289  1.00  0.00    -0.457 C  
HETATM   12  N   UNL     1     -10.655  20.129  66.076  1.00  0.00    -0.355 NA 
ENDBRANCH   4   9
BRANCH   5  13
HETATM   13  N   UNL     1      -9.880  11.023  65.297  1.00  0.00    -0.242 NA 
HETATM   14  H   UNL     1      -9.589  10.814  64.342  1.00  0.00     0.000 HD 
BRANCH  13  15
HETATM   15  C   UNL     1      -9.926   9.902  66.156  1.00  0.00    -0.263 A  
HETATM   16  C   UNL     1      -9.329   8.732  65.738  1.00  0.00    -0.259 A  
HETATM   17  C   UNL     1      -9.387   7.669  66.607  1.00  0.00    -0.190 A  
HETATM   18  N   UNL     1      -9.970   7.732  67.816  1.00  0.00    -0.164 NA 
HETATM   19  C   UNL     1     -10.534   8.901  68.151  1.00  0.00    -0.202 A  
HETATM   20  N   UNL     1     -10.519   9.980  67.353  1.00  0.00    -0.242 NA 
BRANCH  19  21
HETATM   21  N   UNL     1     -11.157   8.942  69.400  1.00  0.00    -0.436 NA 
HETATM   22  H   UNL     1     -11.214   8.040  69.874  1.00  0.00     0.000 HD 
BRANCH  21  23
HETATM   23  C   UNL     1     -11.718  10.009  70.115  1.00  0.00    -0.215 A  
HETATM   24  C   UNL     1     -11.501  11.352  69.789  1.00  0.00    -0.376 A  
HETATM   25  C   UNL     1     -12.108  12.391  70.492  1.00  0.00    -0.363 A  
HETATM   26  C   UNL     1     -12.945  12.099  71.570  1.00  0.00    -0.398 A  
HETATM   27  C   UNL     1     -13.599  13.166  72.263  1.00  0.00    -0.581 C  
HETATM   28  C   UNL     1     -13.134  10.773  71.952  1.00  0.00    -0.557 A  
HETATM   29  C   UNL     1     -12.522   9.737  71.234  1.00  0.00    -0.461 A  
HETATM   30  N   UNL     1     -14.138  14.039  72.811  1.00  0.00    -0.573 NA 
ENDBRANCH  21  23
ENDBRANCH  19  21
ENDBRANCH  13  15
ENDBRANCH   5  13
TORSDOF 5
ENDMDL
MODEL       12
REMARK 921   NORMALIZED FREE ENERGY PREDICTED BY IDOCK:   -7.09 KCAL/MOL
REMARK 922        TOTAL FREE ENERGY PREDICTED BY IDOCK:   -9.94 KCAL/MOL
REMARK 923 INTER-LIGAND FREE ENERGY PREDICTED BY IDOCK:   -9.43 KCAL/MOL
REMARK 924 INTRA-LIGAND FREE ENERGY PREDICTED BY IDOCK:   -0.51 KCAL/MOL
REMARK 927      BINDING AFFINITY PREDICTED BY RF-SCORE:    0.00 PKD
ROOT
HETATM    1  C   UNL     1     -11.372  12.646  63.582  1.00  0.00    -0.544 C  
HETATM    2  C   UNL     1     -10.518  12.154  64.718  1.00  0.00    -0.332 A  
HETATM    3  C   UNL     1     -10.501  10.759  64.932  1.00  0.00    -0.324 A  
HETATM    4  C   UNL     1      -9.765  10.163  65.960  1.00  0.00    -0.285 A  
HETATM    5  C   UNL     1      -9.829  13.002  65.614  1.00  0.00    -0.170 A  
HETATM    6  C   UNL     1      -8.982  10.991  66.762  1.00  0.00    -0.163 A  
HETATM    7  C   UNL     1      -8.056  13.214  67.449  1.00  0.00    -0.181 C  
HETATM    8  C   UNL     1      -8.986  12.396  66.588  1.00  0.00    -0.184 A  
ENDROOT
BRANCH   4   9
HETATM    9  C   UNL     1      -9.928   8.712  66.159  1.00  0.00    -0.204 C  
HETATM   10  C   UNL     1     -10.715   8.112  67.062  1.00  0.00    -0.247 C  
HETATM   11  C   UNL     1     -10.745   6.692  67.185  1.00  0.00    -0.370 C  
HETATM   12  N   UNL     1     -10.754   5.537  67.281  1.00  0.00    -0.217 NA 
ENDBRANCH   4   9
BRANCH   5  13
HETATM   13  N   UNL     1     -10.033  14.407  65.636  1.00  0.00    -0.408 NA 
HETATM   14  H   UNL     1      -9.849  14.876  64.749  1.00  0.00     0.000 HD 
BRANCH  13  15
HETATM   15  C   UNL     1     -10.449  15.264  66.680  1.00  0.00    -0.290 A  
HETATM   16  C   UNL     1     -10.059  16.586  66.635  1.00  0.00    -0.299 A  
HETATM   17  C   UNL     1     -10.493  17.387  67.663  1.00  0.00    -0.368 A  
HETATM   18  N   UNL     1     -11.272  16.949  68.667  1.00  0.00    -0.194 NA 
HETATM   19  C   UNL     1     -11.606  15.650  68.645  1.00  0.00    -0.382 A  
HETATM   20  N   UNL     1     -11.217  14.808  67.675  1.00  0.00    -0.310 NA 
BRANCH  19  21
HETATM   21  N   UNL     1     -12.394  15.206  69.708  1.00  0.00    -0.523 NA 
HETATM   22  H   UNL     1     -12.986  15.925  70.125  1.00  0.00     0.000 HD 
BRANCH  21  23
HETATM   23  C   UNL     1     -12.513  13.942  70.300  1.00  0.00    -0.314 A  
HETATM   24  C   UNL     1     -13.260  13.701  71.458  1.00  0.00    -0.409 A  
HETATM   25  C   UNL     1     -13.394  12.423  71.999  1.00  0.00    -0.511 A  
HETATM   26  C   UNL     1     -12.754  11.344  71.390  1.00  0.00    -0.489 A  
HETATM   27  C   UNL     1     -12.929  10.028  71.924  1.00  0.00    -0.447 C  
HETATM   28  C   UNL     1     -11.958  11.563  70.267  1.00  0.00    -0.455 A  
HETATM   29  C   UNL     1     -11.834  12.851  69.731  1.00  0.00    -0.380 A  
HETATM   30  N   UNL     1     -13.089   8.960  72.355  1.00  0.00    -0.427 NA 
ENDBRANCH  21  23
ENDBRANCH  19  21
ENDBRANCH  13  15
ENDBRANCH   5  13
TORSDOF 5
ENDMDL
MODEL       13
REMARK 921   NORMALIZED FREE ENERGY PREDICTED BY IDOCK:   -7.06 KCAL/MOL
REMARK 922        TOTAL FREE ENERGY PREDICTED BY IDOCK:   -9.90 KCAL/MOL
REMARK 923 INTER-LIGAND FREE ENERGY PREDICTED BY IDOCK:   -9.11 KCAL/MOL
REMARK 924 INTRA-LIGAND FREE ENERGY PREDICTED BY IDOCK:   -0.79 KCAL/MOL
REMARK 927      BINDING AFFINITY PREDICTED BY RF-SCORE:    0.00 PKD
ROOT
HETATM    1  C   UNL     1      -9.831  11.466  68.217  1.00  0.00    -0.202 C  
HETATM    2  C   UNL     1     -10.514  10.630  69.263  1.00  0.00    -0.252 A  
HETATM    3  C   UNL     1     -10.006   9.327  69.456  1.00  0.00    -0.194 A  
HETATM    4  C   UNL     1     -10.552   8.435  70.383  1.00  0.00    -0.236 A  
HETATM    5  C   UNL     1     -11.664  11.038  69.974  1.00  0.00    -0.355 A  
HETATM    6  C   UNL     1     -11.606   8.886  71.176  1.00  0.00    -0.360 A  
HETATM    7  C   UNL     1     -13.241  10.618  71.947  1.00  0.00    -0.528 C  
HETATM    8  C   UNL     1     -12.151  10.181  71.000  1.00  0.00    -0.476 A  
ENDROOT
BRANCH   4   9
HETATM    9  C   UNL     1     -10.015   7.062  70.402  1.00  0.00    -0.187 C  
HETATM   10  C   UNL     1     -10.595   5.969  69.887  1.00  0.00    -0.345 C  
HETATM   11  C   UNL     1      -9.991   4.685  70.016  1.00  0.00    -0.232 C  
HETATM   12  N   UNL     1      -9.494   3.645  70.136  1.00  0.00    -0.178 NA 
ENDBRANCH   4   9
BRANCH   5  13
HETATM   13  N   UNL     1     -12.393  12.207  69.628  1.00  0.00    -0.084 NA 
HETATM   14  H   UNL     1     -13.250  12.032  69.103  1.00  0.00     0.000 HD 
BRANCH  13  15
HETATM   15  C   UNL     1     -12.130  13.570  69.889  1.00  0.00    -0.341 A  
HETATM   16  C   UNL     1     -12.167  14.005  71.197  1.00  0.00    -0.417 A  
HETATM   17  C   UNL     1     -11.896  15.335  71.409  1.00  0.00    -0.372 A  
HETATM   18  N   UNL     1     -11.588  16.195  70.423  1.00  0.00    -0.330 NA 
HETATM   19  C   UNL     1     -11.577  15.700  69.176  1.00  0.00    -0.383 A  
HETATM   20  N   UNL     1     -11.834  14.414  68.894  1.00  0.00    -0.315 NA 
BRANCH  19  21
HETATM   21  N   UNL     1     -11.280  16.612  68.161  1.00  0.00    -0.287 NA 
HETATM   22  H   UNL     1     -11.906  16.568  67.357  1.00  0.00     0.000 HD 
BRANCH  21  23
HETATM   23  C   UNL     1     -10.269  17.576  68.058  1.00  0.00    -0.354 A  
HETATM   24  C   UNL     1      -8.955  17.365  68.493  1.00  0.00    -0.276 A  
HETATM   25  C   UNL     1      -7.961  18.329  68.336  1.00  0.00    -0.320 A  
HETATM   26  C   UNL     1      -8.273  19.555  67.749  1.00  0.00    -0.333 A  
HETATM   27  C   UNL     1      -7.240  20.526  67.552  1.00  0.00    -0.325 C  
HETATM   28  C   UNL     1      -9.585  19.814  67.357  1.00  0.00    -0.475 A  
HETATM   29  C   UNL     1     -10.575  18.836  67.516  1.00  0.00    -0.497 A  
HETATM   30  N   UNL     1      -6.391  21.302  67.383  1.00  0.00    -0.458 NA 
ENDBRANCH  21  23
ENDBRANCH  19  21
ENDBRANCH  13  15
ENDBRANCH   5  13
TORSDOF 5
ENDMDL
MODEL       14
REMARK 921   NORMALIZED FREE ENERGY PREDICTED BY IDOCK:   -7.04 KCAL/MOL
REMARK 922        TOTAL FREE ENERGY PREDICTED BY IDOCK:   -9.88 KCAL/MOL
REMARK 923 INTER-LIGAND FREE ENERGY PREDICTED BY IDOCK:   -9.02 KCAL/MOL
REMARK 924 INTRA-LIGAND FREE ENERGY PREDICTED BY IDOCK:   -0.87 KCAL/MOL
REMARK 927      BINDING AFFINITY PREDICTED BY RF-SCORE:    0.00 PKD
ROOT
HETATM    1  C   UNL     1     -13.216  10.309  71.245  1.00  0.00    -0.447 C  
HETATM    2  C   UNL     1     -11.837  10.153  70.668  1.00  0.00    -0.431 A  
HETATM    3  C   UNL     1     -10.985   9.232  71.316  1.00  0.00    -0.421 A  
HETATM    4  C   UNL     1      -9.673   8.996  70.897  1.00  0.00    -0.329 A  
HETATM    5  C   UNL     1     -11.335  10.928  69.599  1.00  0.00    -0.292 A  
HETATM    6  C   UNL     1      -9.223   9.667  69.762  1.00  0.00    -0.237 A  
HETATM    7  C   UNL     1      -9.507  11.238  67.833  1.00  0.00    -0.179 C  
HETATM    8  C   UNL     1     -10.043  10.609  69.096  1.00  0.00    -0.234 A  
ENDROOT
BRANCH   4   9
HETATM    9  C   UNL     1      -8.844   8.107  71.731  1.00  0.00    -0.206 C  
HETATM   10  C   UNL     1      -8.890   7.988  73.065  1.00  0.00    -0.302 C  
HETATM   11  C   UNL     1      -7.995   7.122  73.758  1.00  0.00    -0.107 C  
HETATM   12  N   UNL     1      -7.255   6.421  74.311  1.00  0.00    -0.089 NA 
ENDBRANCH   4   9
BRANCH   5  13
HETATM   13  N   UNL     1     -12.028  12.060  69.094  1.00  0.00    -0.296 NA 
HETATM   14  H   UNL     1     -12.685  11.854  68.342  1.00  0.00     0.000 HD 
BRANCH  13  15
HETATM   15  C   UNL     1     -11.959  13.423  69.459  1.00  0.00    -0.319 A  
HETATM   16  C   UNL     1     -12.133  13.755  70.786  1.00  0.00    -0.395 A  
HETATM   17  C   UNL     1     -12.048  15.090  71.100  1.00  0.00    -0.318 A  
HETATM   18  N   UNL     1     -11.791  16.050  70.195  1.00  0.00    -0.299 NA 
HETATM   19  C   UNL     1     -11.639  15.651  68.923  1.00  0.00    -0.383 A  
HETATM   20  N   UNL     1     -11.711  14.366  68.543  1.00  0.00    -0.320 NA 
BRANCH  19  21
HETATM   21  N   UNL     1     -11.398  16.663  67.992  1.00  0.00    -0.167 NA 
HETATM   22  H   UNL     1     -12.077  16.708  67.232  1.00  0.00     0.000 HD 
BRANCH  21  23
HETATM   23  C   UNL     1     -10.383  17.626  67.922  1.00  0.00    -0.371 A  
HETATM   24  C   UNL     1      -9.095  17.426  68.431  1.00  0.00    -0.274 A  
HETATM   25  C   UNL     1      -8.094  18.388  68.307  1.00  0.00    -0.315 A  
HETATM   26  C   UNL     1      -8.374  19.601  67.677  1.00  0.00    -0.343 A  
HETATM   27  C   UNL     1      -7.332  20.568  67.515  1.00  0.00    -0.323 C  
HETATM   28  C   UNL     1      -9.663  19.849  67.210  1.00  0.00    -0.517 A  
HETATM   29  C   UNL     1     -10.660  18.873  67.337  1.00  0.00    -0.534 A  
HETATM   30  N   UNL     1      -6.476  21.342  67.374  1.00  0.00    -0.567 NA 
ENDBRANCH  21  23
ENDBRANCH  19  21
ENDBRANCH  13  15
ENDBRANCH   5  13
TORSDOF 5
ENDMDL
MODEL       15
REMARK 921   NORMALIZED FREE ENERGY PREDICTED BY IDOCK:   -7.01 KCAL/MOL
REMARK 922        TOTAL FREE ENERGY PREDICTED BY IDOCK:   -9.84 KCAL/MOL
REMARK 923 INTER-LIGAND FREE ENERGY PREDICTED BY IDOCK:   -9.50 KCAL/MOL
REMARK 924 INTRA-LIGAND FREE ENERGY PREDICTED BY IDOCK:   -0.35 KCAL/MOL
REMARK 927      BINDING AFFINITY PREDICTED BY RF-SCORE:    0.00 PKD
ROOT
HETATM    1  C   UNL     1     -11.699  12.310  63.990  1.00  0.00    -0.506 C  
HETATM    2  C   UNL     1     -10.824  13.062  64.955  1.00  0.00    -0.343 A  
HETATM    3  C   UNL     1     -10.971  14.466  64.971  1.00  0.00    -0.398 A  
HETATM    4  C   UNL     1     -10.214  15.293  65.805  1.00  0.00    -0.372 A  
HETATM    5  C   UNL     1      -9.827  12.460  65.752  1.00  0.00    -0.240 A  
HETATM    6  C   UNL     1      -9.321  14.685  66.686  1.00  0.00    -0.293 A  
HETATM    7  C   UNL     1      -8.205  12.695  67.720  1.00  0.00    -0.171 C  
HETATM    8  C   UNL     1      -9.136  13.281  66.687  1.00  0.00    -0.181 A  
ENDROOT
BRANCH   4   9
HETATM    9  C   UNL     1     -10.368  16.749  65.640  1.00  0.00    -0.284 C  
HETATM   10  C   UNL     1      -9.978  17.698  66.502  1.00  0.00    -0.332 C  
HETATM   11  C   UNL     1     -10.232  19.077  66.244  1.00  0.00    -0.446 C  
HETATM   12  N   UNL     1     -10.452  20.194  66.028  1.00  0.00    -0.391 NA 
ENDBRANCH   4   9
BRANCH   5  13
HETATM   13  N   UNL     1      -9.431  11.107  65.576  1.00  0.00    -0.215 NA 
HETATM   14  H   UNL     1      -8.862  10.936  64.748  1.00  0.00     0.000 HD 
BRANCH  13  15
HETATM   15  C   UNL     1      -9.693   9.959  66.357  1.00  0.00    -0.212 A  
HETATM   16  C   UNL     1      -9.295   8.732  65.870  1.00  0.00    -0.284 A  
HETATM   17  C   UNL     1      -9.559   7.643  66.665  1.00  0.00    -0.206 A  
HETATM   18  N   UNL     1     -10.154   7.729  67.867  1.00  0.00    -0.176 NA 
HETATM   19  C   UNL     1     -10.517   8.955  68.271  1.00  0.00    -0.195 A  
HETATM   20  N   UNL     1     -10.294  10.063  67.548  1.00  0.00    -0.215 NA 
BRANCH  19  21
HETATM   21  N   UNL     1     -11.156   9.023  69.511  1.00  0.00    -0.428 NA 
HETATM   22  H   UNL     1     -11.188   8.140  70.019  1.00  0.00     0.000 HD 
BRANCH  21  23
HETATM   23  C   UNL     1     -11.761  10.098  70.175  1.00  0.00    -0.256 A  
HETATM   24  C   UNL     1     -12.599   9.943  71.285  1.00  0.00    -0.480 A  
HETATM   25  C   UNL     1     -13.152  11.035  71.952  1.00  0.00    -0.525 A  
HETATM   26  C   UNL     1     -12.888  12.328  71.499  1.00  0.00    -0.384 A  
HETATM   27  C   UNL     1     -13.423  13.447  72.212  1.00  0.00    -0.586 C  
HETATM   28  C   UNL     1     -12.102  12.509  70.363  1.00  0.00    -0.380 A  
HETATM   29  C   UNL     1     -11.549  11.404  69.704  1.00  0.00    -0.399 A  
HETATM   30  N   UNL     1     -13.850  14.351  72.806  1.00  0.00    -0.599 NA 
ENDBRANCH  21  23
ENDBRANCH  19  21
ENDBRANCH  13  15
ENDBRANCH   5  13
TORSDOF 5
ENDMDL
MODEL       16
REMARK 921   NORMALIZED FREE ENERGY PREDICTED BY IDOCK:   -6.96 KCAL/MOL
REMARK 922        TOTAL FREE ENERGY PREDICTED BY IDOCK:   -9.78 KCAL/MOL
REMARK 923 INTER-LIGAND FREE ENERGY PREDICTED BY IDOCK:   -8.81 KCAL/MOL
REMARK 924 INTRA-LIGAND FREE ENERGY PREDICTED BY IDOCK:   -0.97 KCAL/MOL
REMARK 927      BINDING AFFINITY PREDICTED BY RF-SCORE:    0.00 PKD
ROOT
HETATM    1  C   UNL     1      -8.168  12.771  67.946  1.00  0.00    -0.168 C  
HETATM    2  C   UNL     1      -9.084  13.708  67.210  1.00  0.00    -0.228 A  
HETATM    3  C   UNL     1      -8.548  14.968  66.863  1.00  0.00    -0.280 A  
HETATM    4  C   UNL     1      -9.289  15.943  66.192  1.00  0.00    -0.385 A  
HETATM    5  C   UNL     1     -10.444  13.436  66.941  1.00  0.00    -0.273 A  
HETATM    6  C   UNL     1     -10.591  15.623  65.812  1.00  0.00    -0.374 A  
HETATM    7  C   UNL     1     -12.556  14.079  65.644  1.00  0.00    -0.542 C  
HETATM    8  C   UNL     1     -11.168  14.376  66.156  1.00  0.00    -0.336 A  
ENDROOT
BRANCH   4   9
HETATM    9  C   UNL     1      -8.660  17.262  65.999  1.00  0.00    -0.127 C  
HETATM   10  C   UNL     1      -7.374  17.573  66.213  1.00  0.00    -0.355 C  
HETATM   11  C   UNL     1      -6.900  18.905  66.033  1.00  0.00    -0.252 C  
HETATM   12  N   UNL     1      -6.528  19.994  65.893  1.00  0.00    -0.205 NA 
ENDBRANCH   4   9
BRANCH   5  13
HETATM   13  N   UNL     1     -11.120  12.324  67.509  1.00  0.00    -0.260 NA 
HETATM   14  H   UNL     1     -11.204  11.517  66.890  1.00  0.00     0.000 HD 
BRANCH  13  15
HETATM   15  C   UNL     1     -11.696  12.148  68.787  1.00  0.00    -0.321 A  
HETATM   16  C   UNL     1     -11.846  13.254  69.595  1.00  0.00    -0.391 A  
HETATM   17  C   UNL     1     -12.419  13.042  70.826  1.00  0.00    -0.302 A  
HETATM   18  N   UNL     1     -12.841  11.838  71.249  1.00  0.00    -0.363 NA 
HETATM   19  C   UNL     1     -12.657  10.808  70.410  1.00  0.00    -0.314 A  
HETATM   20  N   UNL     1     -12.102  10.940  69.195  1.00  0.00    -0.415 NA 
BRANCH  19  21
HETATM   21  N   UNL     1     -13.078   9.561  70.874  1.00  0.00    -0.562 NA 
HETATM   22  H   UNL     1     -14.070   9.371  70.736  1.00  0.00     0.000 HD 
BRANCH  21  23
HETATM   23  C   UNL     1     -12.370   8.525  71.498  1.00  0.00    -0.314 A  
HETATM   24  C   UNL     1     -12.857   7.217  71.609  1.00  0.00    -0.415 A  
HETATM   25  C   UNL     1     -12.111   6.198  72.197  1.00  0.00    -0.263 A  
HETATM   26  C   UNL     1     -10.845   6.477  72.715  1.00  0.00    -0.280 A  
HETATM   27  C   UNL     1     -10.065   5.419  73.280  1.00  0.00    -0.178 C  
HETATM   28  C   UNL     1     -10.358   7.782  72.669  1.00  0.00    -0.352 A  
HETATM   29  C   UNL     1     -11.117   8.798  72.071  1.00  0.00    -0.441 A  
HETATM   30  N   UNL     1      -9.433   4.551  73.723  1.00  0.00    -0.119 NA 
ENDBRANCH  21  23
ENDBRANCH  19  21
ENDBRANCH  13  15
ENDBRANCH   5  13
TORSDOF 5
ENDMDL
MODEL       17
REMARK 921   NORMALIZED FREE ENERGY PREDICTED BY IDOCK:   -6.96 KCAL/MOL
REMARK 922        TOTAL FREE ENERGY PREDICTED BY IDOCK:   -9.77 KCAL/MOL
REMARK 923 INTER-LIGAND FREE ENERGY PREDICTED BY IDOCK:   -8.92 KCAL/MOL
REMARK 924 INTRA-LIGAND FREE ENERGY PREDICTED BY IDOCK:   -0.86 KCAL/MOL
REMARK 927      BINDING AFFINITY PREDICTED BY RF-SCORE:    0.00 PKD
ROOT
HETATM    1  C   UNL     1      -8.423   9.177  70.824  1.00  0.00    -0.256 C  
HETATM    2  C   UNL     1      -9.772   8.677  71.259  1.00  0.00    -0.305 A  
HETATM    3  C   UNL     1      -9.856   7.308  71.596  1.00  0.00    -0.176 A  
HETATM    4  C   UNL     1     -11.047   6.704  72.002  1.00  0.00    -0.289 A  
HETATM    5  C   UNL     1     -10.945   9.463  71.257  1.00  0.00    -0.370 A  
HETATM    6  C   UNL     1     -12.177   7.511  72.124  1.00  0.00    -0.283 A  
HETATM    7  C   UNL     1     -13.380   9.704  72.011  1.00  0.00    -0.547 C  
HETATM    8  C   UNL     1     -12.135   8.884  71.781  1.00  0.00    -0.432 A  
ENDROOT
BRANCH   4   9
HETATM    9  C   UNL     1     -11.035   5.244  72.204  1.00  0.00    -0.226 C  
HETATM   10  C   UNL     1     -11.138   4.597  73.373  1.00  0.00    -0.418 C  
HETATM   11  C   UNL     1     -11.062   3.175  73.437  1.00  0.00    -0.179 C  
HETATM   12  N   UNL     1     -10.989   2.018  73.477  1.00  0.00    -0.162 NA 
ENDBRANCH   4   9
BRANCH   5  13
HETATM   13  N   UNL     1     -10.992  10.751  70.662  1.00  0.00    -0.310 NA 
HETATM   14  H   UNL     1     -10.871  11.525  71.315  1.00  0.00     0.000 HD 
BRANCH  13  15
HETATM   15  C   UNL     1     -11.178  11.141  69.316  1.00  0.00    -0.267 A  
HETATM   16  C   UNL     1     -10.932  10.213  68.326  1.00  0.00    -0.299 A  
HETATM   17  C   UNL     1     -11.135  10.628  67.033  1.00  0.00    -0.145 A  
HETATM   18  N   UNL     1     -11.567  11.859  66.708  1.00  0.00    -0.528 NA 
HETATM   19  C   UNL     1     -11.780  12.708  67.725  1.00  0.00    -0.356 A  
HETATM   20  N   UNL     1     -11.601  12.373  69.012  1.00  0.00    -0.290 NA 
BRANCH  19  21
HETATM   21  N   UNL     1     -12.205  13.989  67.369  1.00  0.00    -0.537 NA 
HETATM   22  H   UNL     1     -13.197  14.058  67.144  1.00  0.00     0.000 HD 
BRANCH  21  23
HETATM   23  C   UNL     1     -11.502  15.197  67.269  1.00  0.00    -0.279 A  
HETATM   24  C   UNL     1     -11.347  16.089  68.336  1.00  0.00    -0.355 A  
HETATM   25  C   UNL     1     -10.604  17.262  68.216  1.00  0.00    -0.383 A  
HETATM   26  C   UNL     1     -10.007  17.582  66.996  1.00  0.00    -0.311 A  
HETATM   27  C   UNL     1      -9.211  18.766  66.890  1.00  0.00    -0.307 C  
HETATM   28  C   UNL     1     -10.192  16.740  65.901  1.00  0.00    -0.345 A  
HETATM   29  C   UNL     1     -10.937  15.561  66.035  1.00  0.00    -0.251 A  
HETATM   30  N   UNL     1      -8.554  19.722  66.817  1.00  0.00    -0.312 NA 
ENDBRANCH  21  23
ENDBRANCH  19  21
ENDBRANCH  13  15
ENDBRANCH   5  13
TORSDOF 5
ENDMDL
MODEL       18
REMARK 921   NORMALIZED FREE ENERGY PREDICTED BY IDOCK:   -6.96 KCAL/MOL
REMARK 922        TOTAL FREE ENERGY PREDICTED BY IDOCK:   -9.77 KCAL/MOL
REMARK 923 INTER-LIGAND FREE ENERGY PREDICTED BY IDOCK:   -8.90 KCAL/MOL
REMARK 924 INTRA-LIGAND FREE ENERGY PREDICTED BY IDOCK:   -0.87 KCAL/MOL
REMARK 927      BINDING AFFINITY PREDICTED BY RF-SCORE:    0.00 PKD
ROOT
HETATM    1  C   UNL     1     -12.455  11.103  70.900  1.00  0.00    -0.509 C  
HETATM    2  C   UNL     1     -11.363  10.390  70.152  1.00  0.00    -0.397 A  
HETATM    3  C   UNL     1     -10.362   9.776  70.937  1.00  0.00    -0.245 A  
HETATM    4  C   UNL     1      -9.280   9.093  70.378  1.00  0.00    -0.271 A  
HETATM    5  C   UNL     1     -11.240  10.386  68.746  1.00  0.00    -0.241 A  
HETATM    6  C   UNL     1      -9.231   8.978  68.990  1.00  0.00    -0.140 A  
HETATM    7  C   UNL     1     -10.124   9.361  66.682  1.00  0.00    -0.332 C  
HETATM    8  C   UNL     1     -10.207   9.594  68.170  1.00  0.00    -0.225 A  
ENDROOT
BRANCH   4   9
HETATM    9  C   UNL     1      -8.236   8.604  71.297  1.00  0.00    -0.194 C  
HETATM   10  C   UNL     1      -8.361   8.407  72.617  1.00  0.00    -0.206 C  
HETATM   11  C   UNL     1      -7.255   7.975  73.404  1.00  0.00    -0.129 C  
HETATM   12  N   UNL     1      -6.345   7.633  74.036  1.00  0.00    -0.076 NA 
ENDBRANCH   4   9
BRANCH   5  13
HETATM   13  N   UNL     1     -12.037  11.216  67.913  1.00  0.00    -0.631 NA 
HETATM   14  H   UNL     1     -12.962  10.842  67.702  1.00  0.00     0.000 HD 
BRANCH  13  15
HETATM   15  C   UNL     1     -11.763  12.473  67.329  1.00  0.00    -0.362 A  
HETATM   16  C   UNL     1     -11.749  12.566  65.953  1.00  0.00    -0.480 A  
HETATM   17  C   UNL     1     -11.490  13.808  65.426  1.00  0.00    -0.311 A  
HETATM   18  N   UNL     1     -11.274  14.902  66.176  1.00  0.00    -0.336 NA 
HETATM   19  C   UNL     1     -11.298  14.732  67.507  1.00  0.00    -0.344 A  
HETATM   20  N   UNL     1     -11.542  13.549  68.092  1.00  0.00    -0.311 NA 
BRANCH  19  21
HETATM   21  N   UNL     1     -11.047  15.873  68.271  1.00  0.00    -0.330 NA 
HETATM   22  H   UNL     1     -11.525  15.892  69.172  1.00  0.00     0.000 HD 
BRANCH  21  23
HETATM   23  C   UNL     1     -10.251  16.996  68.013  1.00  0.00    -0.319 A  
HETATM   24  C   UNL     1     -10.743  18.174  67.439  1.00  0.00    -0.355 A  
HETATM   25  C   UNL     1      -9.935  19.291  67.235  1.00  0.00    -0.456 A  
HETATM   26  C   UNL     1      -8.586  19.243  67.590  1.00  0.00    -0.332 A  
HETATM   27  C   UNL     1      -7.770  20.405  67.418  1.00  0.00    -0.328 C  
HETATM   28  C   UNL     1      -8.056  18.064  68.112  1.00  0.00    -0.276 A  
HETATM   29  C   UNL     1      -8.880  16.950  68.317  1.00  0.00    -0.228 A  
HETATM   30  N   UNL     1      -7.118  21.359  67.288  1.00  0.00    -0.537 NA 
ENDBRANCH  21  23
ENDBRANCH  19  21
ENDBRANCH  13  15
ENDBRANCH   5  13
TORSDOF 5
ENDMDL
MODEL       19
REMARK 921   NORMALIZED FREE ENERGY PREDICTED BY IDOCK:   -6.90 KCAL/MOL
REMARK 922        TOTAL FREE ENERGY PREDICTED BY IDOCK:   -9.69 KCAL/MOL
REMARK 923 INTER-LIGAND FREE ENERGY PREDICTED BY IDOCK:   -9.31 KCAL/MOL
REMARK 924 INTRA-LIGAND FREE ENERGY PREDICTED BY IDOCK:   -0.39 KCAL/MOL
REMARK 927      BINDING AFFINITY PREDICTED BY RF-SCORE:    0.00 PKD
ROOT
HETATM    1  C   UNL     1      -8.287  12.868  67.623  1.00  0.00    -0.176 C  
HETATM    2  C   UNL     1      -9.040  12.203  66.505  1.00  0.00    -0.199 A  
HETATM    3  C   UNL     1      -8.801  10.824  66.319  1.00  0.00    -0.182 A  
HETATM    4  C   UNL     1      -9.419  10.081  65.311  1.00  0.00    -0.323 A  
HETATM    5  C   UNL     1      -9.878  12.890  65.599  1.00  0.00    -0.175 A  
HETATM    6  C   UNL     1     -10.345  10.733  64.499  1.00  0.00    -0.401 A  
HETATM    7  C   UNL     1     -11.669  12.732  63.776  1.00  0.00    -0.562 C  
HETATM    8  C   UNL     1     -10.600  12.118  64.645  1.00  0.00    -0.340 A  
ENDROOT
BRANCH   4   9
HETATM    9  C   UNL     1      -8.992   8.681  65.139  1.00  0.00    -0.111 C  
HETATM   10  C   UNL     1      -8.929   7.741  66.093  1.00  0.00    -0.201 C  
HETATM   11  C   UNL     1      -8.450   6.431  65.804  1.00  0.00    -0.148 C  
HETATM   12  N   UNL     1      -8.050   5.371  65.559  1.00  0.00    -0.112 NA 
ENDBRANCH   4   9
BRANCH   5  13
HETATM   13  N   UNL     1      -9.937  14.307  65.547  1.00  0.00    -0.467 NA 
HETATM   14  H   UNL     1      -9.653  14.712  64.655  1.00  0.00     0.000 HD 
BRANCH  13  15
HETATM   15  C   UNL     1     -10.325  15.252  66.524  1.00  0.00    -0.286 A  
HETATM   16  C   UNL     1      -9.922  16.561  66.364  1.00  0.00    -0.318 A  
HETATM   17  C   UNL     1     -10.329  17.449  67.330  1.00  0.00    -0.343 A  
HETATM   18  N   UNL     1     -11.094  17.104  68.380  1.00  0.00    -0.217 NA 
HETATM   19  C   UNL     1     -11.442  15.812  68.470  1.00  0.00    -0.379 A  
HETATM   20  N   UNL     1     -11.080  14.889  67.567  1.00  0.00    -0.307 NA 
BRANCH  19  21
HETATM   21  N   UNL     1     -12.216  15.466  69.579  1.00  0.00    -0.543 NA 
HETATM   22  H   UNL     1     -12.718  16.246  70.005  1.00  0.00     0.000 HD 
BRANCH  21  23
HETATM   23  C   UNL     1     -12.422  14.231  70.209  1.00  0.00    -0.361 A  
HETATM   24  C   UNL     1     -13.176  14.079  71.378  1.00  0.00    -0.404 A  
HETATM   25  C   UNL     1     -13.399  12.831  71.956  1.00  0.00    -0.565 A  
HETATM   26  C   UNL     1     -12.843  11.690  71.375  1.00  0.00    -0.461 A  
HETATM   27  C   UNL     1     -13.110  10.406  71.948  1.00  0.00    -0.458 C  
HETATM   28  C   UNL     1     -12.042  11.819  70.242  1.00  0.00    -0.426 A  
HETATM   29  C   UNL     1     -11.829  13.078  69.668  1.00  0.00    -0.385 A  
HETATM   30  N   UNL     1     -13.343   9.366  72.411  1.00  0.00    -0.455 NA 
ENDBRANCH  21  23
ENDBRANCH  19  21
ENDBRANCH  13  15
ENDBRANCH   5  13
TORSDOF 5
ENDMDL
MODEL       20
REMARK 921   NORMALIZED FREE ENERGY PREDICTED BY IDOCK:   -6.83 KCAL/MOL
REMARK 922        TOTAL FREE ENERGY PREDICTED BY IDOCK:   -9.61 KCAL/MOL
REMARK 923 INTER-LIGAND FREE ENERGY PREDICTED BY IDOCK:   -8.94 KCAL/MOL
REMARK 924 INTRA-LIGAND FREE ENERGY PREDICTED BY IDOCK:   -0.67 KCAL/MOL
REMARK 927      BINDING AFFINITY PREDICTED BY RF-SCORE:    0.00 PKD
ROOT
HETATM    1  C   UNL     1     -12.908  13.760  65.447  1.00  0.00    -0.455 C  
HETATM    2  C   UNL     1     -11.548  13.323  65.917  1.00  0.00    -0.380 A  
HETATM    3  C   UNL     1     -10.986  12.205  65.264  1.00  0.00    -0.349 A  
HETATM    4  C   UNL     1      -9.738  11.681  65.606  1.00  0.00    -0.262 A  
HETATM    5  C   UNL     1     -10.868  13.901  67.012  1.00  0.00    -0.285 A  
HETATM    6  C   UNL     1      -9.010  12.333  66.601  1.00  0.00    -0.189 A  
HETATM    7  C   UNL     1      -8.668  14.140  68.300  1.00  0.00    -0.181 C  
HETATM    8  C   UNL     1      -9.548  13.447  67.289  1.00  0.00    -0.234 A  
ENDROOT
BRANCH   4   9
HETATM    9  C   UNL     1      -9.316  10.437  64.937  1.00  0.00    -0.294 C  
HETATM   10  C   UNL     1      -8.971  10.299  63.650  1.00  0.00    -0.259 C  
HETATM   11  C   UNL     1      -8.627   9.024  63.113  1.00  0.00    -0.151 C  
HETATM   12  N   UNL     1      -8.359   7.980  62.685  1.00  0.00    -0.126 NA 
ENDBRANCH   4   9
BRANCH   5  13
HETATM   13  N   UNL     1     -11.493  14.827  67.889  1.00  0.00    -0.330 NA 
HETATM   14  H   UNL     1     -11.716  15.727  67.466  1.00  0.00     0.000 HD 
BRANCH  13  15
HETATM   15  C   UNL     1     -11.857  14.709  69.250  1.00  0.00    -0.321 A  
HETATM   16  C   UNL     1     -11.754  15.825  70.053  1.00  0.00    -0.362 A  
HETATM   17  C   UNL     1     -12.127  15.671  71.366  1.00  0.00    -0.418 A  
HETATM   18  N   UNL     1     -12.592  14.517  71.874  1.00  0.00    -0.334 NA 
HETATM   19  C   UNL     1     -12.659  13.474  71.033  1.00  0.00    -0.359 A  
HETATM   20  N   UNL     1     -12.309  13.550  69.740  1.00  0.00    -0.245 NA 
BRANCH  19  21
HETATM   21  N   UNL     1     -13.120  12.276  71.583  1.00  0.00    -0.380 NA 
HETATM   22  H   UNL     1     -13.925  12.377  72.202  1.00  0.00     0.000 HD 
BRANCH  21  23
HETATM   23  C   UNL     1     -12.666  10.960  71.431  1.00  0.00    -0.434 A  
HETATM   24  C   UNL     1     -13.261   9.862  72.063  1.00  0.00    -0.555 A  
HETATM   25  C   UNL     1     -12.813   8.558  71.858  1.00  0.00    -0.399 A  
HETATM   26  C   UNL     1     -11.727   8.325  71.015  1.00  0.00    -0.293 A  
HETATM   27  C   UNL     1     -11.297   6.982  70.774  1.00  0.00    -0.298 C  
HETATM   28  C   UNL     1     -11.079   9.404  70.416  1.00  0.00    -0.311 A  
HETATM   29  C   UNL     1     -11.541  10.710  70.627  1.00  0.00    -0.432 A  
HETATM   30  N   UNL     1     -10.964   5.887  70.572  1.00  0.00    -0.303 NA 
ENDBRANCH  21  23
ENDBRANCH  19  21
ENDBRANCH  13  15
ENDBRANCH   5  13
TORSDOF 5
ENDMDL
MODEL       21
REMARK 921   NORMALIZED FREE ENERGY PREDICTED BY IDOCK:   -6.75 KCAL/MOL
REMARK 922        TOTAL FREE ENERGY PREDICTED BY IDOCK:   -9.51 KCAL/MOL
REMARK 923 INTER-LIGAND FREE ENERGY PREDICTED BY IDOCK:   -8.49 KCAL/MOL
REMARK 924 INTRA-LIGAND FREE ENERGY PREDICTED BY IDOCK:   -1.02 KCAL/MOL
REMARK 927      BINDING AFFINITY PREDICTED BY RF-SCORE:    0.00 PKD
ROOT
HETATM    1  C   UNL     1      -7.821  13.614  67.532  1.00  0.00    -0.185 C  
HETATM    2  C   UNL     1      -9.316  13.767  67.487  1.00  0.00    -0.222 A  
HETATM    3  C   UNL     1      -9.909  14.464  68.562  1.00  0.00    -0.233 A  
HETATM    4  C   UNL     1     -11.287  14.668  68.658  1.00  0.00    -0.305 A  
HETATM    5  C   UNL     1     -10.140  13.184  66.500  1.00  0.00    -0.280 A  
HETATM    6  C   UNL     1     -12.088  14.204  67.616  1.00  0.00    -0.337 A  
HETATM    7  C   UNL     1     -12.454  13.083  65.407  1.00  0.00    -0.531 C  
HETATM    8  C   UNL     1     -11.531  13.487  66.530  1.00  0.00    -0.365 A  
ENDROOT
BRANCH   4   9
HETATM    9  C   UNL     1     -11.796  15.299  69.890  1.00  0.00    -0.363 C  
HETATM   10  C   UNL     1     -11.120  15.485  71.031  1.00  0.00    -0.387 C  
HETATM   11  C   UNL     1     -11.746  16.068  72.171  1.00  0.00    -0.488 C  
HETATM   12  N   UNL     1     -12.270  16.533  73.095  1.00  0.00    -0.448 NA 
ENDBRANCH   4   9
BRANCH   5  13
HETATM   13  N   UNL     1      -9.646  12.238  65.562  1.00  0.00    -0.412 NA 
HETATM   14  H   UNL     1      -9.377  12.635  64.662  1.00  0.00     0.000 HD 
BRANCH  13  15
HETATM   15  C   UNL     1      -9.465  10.841  65.667  1.00  0.00    -0.209 A  
HETATM   16  C   UNL     1      -8.486  10.248  64.898  1.00  0.00    -0.182 A  
HETATM   17  C   UNL     1      -8.335   8.890  65.038  1.00  0.00    -0.165 A  
HETATM   18  N   UNL     1      -9.069   8.146  65.883  1.00  0.00    -0.162 NA 
HETATM   19  C   UNL     1     -10.004   8.792  66.594  1.00  0.00    -0.285 A  
HETATM   20  N   UNL     1     -10.210  10.115  66.508  1.00  0.00    -0.229 NA 
BRANCH  19  21
HETATM   21  N   UNL     1     -10.774   8.000  67.448  1.00  0.00    -0.489 NA 
HETATM   22  H   UNL     1     -11.574   7.551  67.002  1.00  0.00     0.000 HD 
BRANCH  21  23
HETATM   23  C   UNL     1     -10.637   7.716  68.814  1.00  0.00    -0.145 A  
HETATM   24  C   UNL     1      -9.921   8.529  69.700  1.00  0.00    -0.192 A  
HETATM   25  C   UNL     1      -9.840   8.243  71.062  1.00  0.00    -0.225 A  
HETATM   26  C   UNL     1     -10.468   7.105  71.569  1.00  0.00    -0.221 A  
HETATM   27  C   UNL     1     -10.416   6.838  72.974  1.00  0.00    -0.254 C  
HETATM   28  C   UNL     1     -11.140   6.248  70.700  1.00  0.00    -0.389 A  
HETATM   29  C   UNL     1     -11.219   6.548  69.334  1.00  0.00    -0.418 A  
HETATM   30  N   UNL     1     -10.382   6.637  74.118  1.00  0.00    -0.364 NA 
ENDBRANCH  21  23
ENDBRANCH  19  21
ENDBRANCH  13  15
ENDBRANCH   5  13
TORSDOF 5
ENDMDL
MODEL       22
REMARK 921   NORMALIZED FREE ENERGY PREDICTED BY IDOCK:   -6.72 KCAL/MOL
REMARK 922        TOTAL FREE ENERGY PREDICTED BY IDOCK:   -9.46 KCAL/MOL
REMARK 923 INTER-LIGAND FREE ENERGY PREDICTED BY IDOCK:   -8.50 KCAL/MOL
REMARK 924 INTRA-LIGAND FREE ENERGY PREDICTED BY IDOCK:   -0.96 KCAL/MOL
REMARK 927      BINDING AFFINITY PREDICTED BY RF-SCORE:    0.00 PKD
ROOT
HETATM    1  C   UNL     1      -8.143   8.505  69.624  1.00  0.00    -0.113 C  
HETATM    2  C   UNL     1      -8.880   7.218  69.870  1.00  0.00    -0.142 A  
HETATM    3  C   UNL     1      -8.716   6.205  68.900  1.00  0.00    -0.123 A  
HETATM    4  C   UNL     1      -9.353   4.965  68.992  1.00  0.00    -0.183 A  
HETATM    5  C   UNL     1      -9.777   7.014  70.941  1.00  0.00    -0.174 A  
HETATM    6  C   UNL     1     -10.135   4.718  70.118  1.00  0.00    -0.310 A  
HETATM    7  C   UNL     1     -11.136   5.343  72.327  1.00  0.00    -0.259 C  
HETATM    8  C   UNL     1     -10.336   5.715  71.103  1.00  0.00    -0.295 A  
ENDROOT
BRANCH   4   9
HETATM    9  C   UNL     1      -9.202   4.039  67.855  1.00  0.00    -0.200 C  
HETATM   10  C   UNL     1      -9.607   4.247  66.594  1.00  0.00    -0.218 C  
HETATM   11  C   UNL     1      -9.444   3.245  65.594  1.00  0.00    -0.096 C  
HETATM   12  N   UNL     1      -9.315   2.418  64.791  1.00  0.00    -0.138 NA 
ENDBRANCH   4   9
BRANCH   5  13
HETATM   13  N   UNL     1     -10.208   8.075  71.781  1.00  0.00    -0.192 NA 
HETATM   14  H   UNL     1      -9.719   8.135  72.674  1.00  0.00     0.000 HD 
BRANCH  13  15
HETATM   15  C   UNL     1     -11.202   9.061  71.587  1.00  0.00    -0.361 A  
HETATM   16  C   UNL     1     -12.453   8.843  72.122  1.00  0.00    -0.459 A  
HETATM   17  C   UNL     1     -13.387   9.831  71.920  1.00  0.00    -0.436 A  
HETATM   18  N   UNL     1     -13.127  10.972  71.257  1.00  0.00    -0.344 NA 
HETATM   19  C   UNL     1     -11.889  11.110  70.761  1.00  0.00    -0.219 A  
HETATM   20  N   UNL     1     -10.928  10.187  70.917  1.00  0.00    -0.272 NA 
BRANCH  19  21
HETATM   21  N   UNL     1     -11.644  12.289  70.055  1.00  0.00    -0.524 NA 
HETATM   22  H   UNL     1     -11.370  13.081  70.636  1.00  0.00     0.000 HD 
BRANCH  21  23
HETATM   23  C   UNL     1     -11.709  12.570  68.684  1.00  0.00    -0.325 A  
HETATM   24  C   UNL     1     -11.479  11.613  67.689  1.00  0.00    -0.373 A  
HETATM   25  C   UNL     1     -11.595  11.913  66.333  1.00  0.00    -0.315 A  
HETATM   26  C   UNL     1     -11.929  13.209  65.938  1.00  0.00    -0.479 A  
HETATM   27  C   UNL     1     -12.087  13.503  64.547  1.00  0.00    -0.416 C  
HETATM   28  C   UNL     1     -12.108  14.197  66.905  1.00  0.00    -0.466 A  
HETATM   29  C   UNL     1     -11.993  13.881  68.265  1.00  0.00    -0.392 A  
HETATM   30  N   UNL     1     -12.228  13.729  63.415  1.00  0.00    -0.676 NA 
ENDBRANCH  21  23
ENDBRANCH  19  21
ENDBRANCH  13  15
ENDBRANCH   5  13
TORSDOF 5
ENDMDL
MODEL       23
REMARK 921   NORMALIZED FREE ENERGY PREDICTED BY IDOCK:   -6.67 KCAL/MOL
REMARK 922        TOTAL FREE ENERGY PREDICTED BY IDOCK:   -9.40 KCAL/MOL
REMARK 923 INTER-LIGAND FREE ENERGY PREDICTED BY IDOCK:   -8.66 KCAL/MOL
REMARK 924 INTRA-LIGAND FREE ENERGY PREDICTED BY IDOCK:   -0.74 KCAL/MOL
REMARK 927      BINDING AFFINITY PREDICTED BY RF-SCORE:    0.00 PKD
ROOT
HETATM    1  C   UNL     1      -8.265   9.147  70.723  1.00  0.00    -0.226 C  
HETATM    2  C   UNL     1      -9.627   8.853  71.288  1.00  0.00    -0.348 A  
HETATM    3  C   UNL     1      -9.759   7.649  72.013  1.00  0.00    -0.209 A  
HETATM    4  C   UNL     1     -10.968   7.240  72.581  1.00  0.00    -0.341 A  
HETATM    5  C   UNL     1     -10.768   9.652  71.057  1.00  0.00    -0.323 A  
HETATM    6  C   UNL     1     -12.063   8.094  72.462  1.00  0.00    -0.377 A  
HETATM    7  C   UNL     1     -13.182  10.204  71.710  1.00  0.00    -0.542 C  
HETATM    8  C   UNL     1     -11.973   9.302  71.730  1.00  0.00    -0.455 A  
ENDROOT
BRANCH   4   9
HETATM    9  C   UNL     1     -11.009   5.905  73.204  1.00  0.00    -0.286 C  
HETATM   10  C   UNL     1     -10.598   4.753  72.655  1.00  0.00    -0.271 C  
HETATM   11  C   UNL     1     -10.739   3.516  73.349  1.00  0.00    -0.208 C  
HETATM   12  N   UNL     1     -10.867   2.515  73.919  1.00  0.00    -0.177 NA 
ENDBRANCH   4   9
BRANCH   5  13
HETATM   13  N   UNL     1     -10.774  10.709  70.109  1.00  0.00    -0.463 NA 
HETATM   14  H   UNL     1     -11.071  11.611  70.480  1.00  0.00     0.000 HD 
BRANCH  13  15
HETATM   15  C   UNL     1     -10.435  10.721  68.737  1.00  0.00    -0.199 A  
HETATM   16  C   UNL     1     -10.717   9.601  67.983  1.00  0.00    -0.284 A  
HETATM   17  C   UNL     1     -10.381   9.658  66.652  1.00  0.00    -0.208 A  
HETATM   18  N   UNL     1      -9.824  10.735  66.073  1.00  0.00    -0.225 NA 
HETATM   19  C   UNL     1      -9.575  11.784  66.871  1.00  0.00    -0.193 A  
HETATM   20  N   UNL     1      -9.873  11.799  68.180  1.00  0.00    -0.184 NA 
BRANCH  19  21
HETATM   21  N   UNL     1      -8.973  12.885  66.260  1.00  0.00    -0.439 NA 
HETATM   22  H   UNL     1      -8.140  12.663  65.715  1.00  0.00     0.000 HD 
BRANCH  21  23
HETATM   23  C   UNL     1      -9.317  14.244  66.266  1.00  0.00    -0.208 A  
HETATM   24  C   UNL     1      -8.655  15.202  67.040  1.00  0.00    -0.265 A  
HETATM   25  C   UNL     1      -8.992  16.554  66.991  1.00  0.00    -0.224 A  
HETATM   26  C   UNL     1     -10.034  16.977  66.165  1.00  0.00    -0.314 A  
HETATM   27  C   UNL     1     -10.350  18.370  66.087  1.00  0.00    -0.407 C  
HETATM   28  C   UNL     1     -10.748  16.036  65.426  1.00  0.00    -0.399 A  
HETATM   29  C   UNL     1     -10.396  14.681  65.480  1.00  0.00    -0.383 A  
HETATM   30  N   UNL     1     -10.590  19.506  66.018  1.00  0.00    -0.501 NA 
ENDBRANCH  21  23
ENDBRANCH  19  21
ENDBRANCH  13  15
ENDBRANCH   5  13
TORSDOF 5
ENDMDL
MODEL       24
REMARK 921   NORMALIZED FREE ENERGY PREDICTED BY IDOCK:   -6.66 KCAL/MOL
REMARK 922        TOTAL FREE ENERGY PREDICTED BY IDOCK:   -9.38 KCAL/MOL
REMARK 923 INTER-LIGAND FREE ENERGY PREDICTED BY IDOCK:   -8.45 KCAL/MOL
REMARK 924 INTRA-LIGAND FREE ENERGY PREDICTED BY IDOCK:   -0.93 KCAL/MOL
REMARK 927      BINDING AFFINITY PREDICTED BY RF-SCORE:    0.00 PKD
ROOT
HETATM    1  C   UNL     1     -11.686  14.733  64.280  1.00  0.00    -0.272 C  
HETATM    2  C   UNL     1     -11.321  15.314  65.617  1.00  0.00    -0.197 A  
HETATM    3  C   UNL     1     -10.668  16.566  65.602  1.00  0.00    -0.257 A  
HETATM    4  C   UNL     1     -10.258  17.216  66.768  1.00  0.00    -0.311 A  
HETATM    5  C   UNL     1     -11.508  14.645  66.847  1.00  0.00    -0.363 A  
HETATM    6  C   UNL     1     -10.561  16.614  67.988  1.00  0.00    -0.338 A  
HETATM    7  C   UNL     1     -11.557  14.803  69.402  1.00  0.00    -0.342 C  
HETATM    8  C   UNL     1     -11.199  15.352  68.043  1.00  0.00    -0.326 A  
ENDROOT
BRANCH   4   9
HETATM    9  C   UNL     1      -9.476  18.456  66.615  1.00  0.00    -0.313 C  
HETATM   10  C   UNL     1      -8.698  19.030  67.543  1.00  0.00    -0.315 C  
HETATM   11  C   UNL     1      -8.029  20.261  67.283  1.00  0.00    -0.340 C  
HETATM   12  N   UNL     1      -7.498  21.268  67.063  1.00  0.00    -0.316 NA 
ENDBRANCH   4   9
BRANCH   5  13
HETATM   13  N   UNL     1     -11.888  13.278  66.915  1.00  0.00    -0.385 NA 
HETATM   14  H   UNL     1     -12.894  13.119  66.964  1.00  0.00     0.000 HD 
BRANCH  13  15
HETATM   15  C   UNL     1     -11.105  12.101  66.927  1.00  0.00    -0.297 A  
HETATM   16  C   UNL     1      -9.893  12.115  66.270  1.00  0.00    -0.250 A  
HETATM   17  C   UNL     1      -9.159  10.955  66.315  1.00  0.00    -0.176 A  
HETATM   18  N   UNL     1      -9.557   9.850  66.968  1.00  0.00    -0.169 NA 
HETATM   19  C   UNL     1     -10.749   9.911  67.579  1.00  0.00    -0.272 A  
HETATM   20  N   UNL     1     -11.522  11.008  67.576  1.00  0.00    -0.515 NA 
BRANCH  19  21
HETATM   21  N   UNL     1     -11.159   8.747  68.232  1.00  0.00    -0.409 NA 
HETATM   22  H   UNL     1     -11.751   8.134  67.671  1.00  0.00     0.000 HD 
BRANCH  21  23
HETATM   23  C   UNL     1     -10.898   8.277  69.526  1.00  0.00    -0.116 A  
HETATM   24  C   UNL     1     -10.421   9.091  70.559  1.00  0.00    -0.271 A  
HETATM   25  C   UNL     1     -10.212   8.603  71.848  1.00  0.00    -0.404 A  
HETATM   26  C   UNL     1     -10.461   7.259  72.127  1.00  0.00    -0.233 A  
HETATM   27  C   UNL     1     -10.285   6.772  73.461  1.00  0.00    -0.293 C  
HETATM   28  C   UNL     1     -10.883   6.412  71.104  1.00  0.00    -0.308 A  
HETATM   29  C   UNL     1     -11.094   6.916  69.814  1.00  0.00    -0.316 A  
HETATM   30  N   UNL     1     -10.153   6.388  74.551  1.00  0.00    -0.350 NA 
ENDBRANCH  21  23
ENDBRANCH  19  21
ENDBRANCH  13  15
ENDBRANCH   5  13
TORSDOF 5
ENDMDL
MODEL       25
REMARK 921   NORMALIZED FREE ENERGY PREDICTED BY IDOCK:   -6.60 KCAL/MOL
REMARK 922        TOTAL FREE ENERGY PREDICTED BY IDOCK:   -9.30 KCAL/MOL
REMARK 923 INTER-LIGAND FREE ENERGY PREDICTED BY IDOCK:   -8.46 KCAL/MOL
REMARK 924 INTRA-LIGAND FREE ENERGY PREDICTED BY IDOCK:   -0.85 KCAL/MOL
REMARK 927      BINDING AFFINITY PREDICTED BY RF-SCORE:    0.00 PKD
ROOT
HETATM    1  C   UNL     1     -12.025  14.856  72.451  1.00  0.00    -0.379 C  
HETATM    2  C   UNL     1     -11.749  14.956  70.976  1.00  0.00    -0.376 A  
HETATM    3  C   UNL     1     -11.170  16.163  70.526  1.00  0.00    -0.381 A  
HETATM    4  C   UNL     1     -10.873  16.400  69.182  1.00  0.00    -0.329 A  
HETATM    5  C   UNL     1     -12.117  13.970  70.035  1.00  0.00    -0.348 A  
HETATM    6  C   UNL     1     -11.117  15.374  68.271  1.00  0.00    -0.309 A  
HETATM    7  C   UNL     1     -11.875  13.070  67.650  1.00  0.00    -0.401 C  
HETATM    8  C   UNL     1     -11.711  14.157  68.683  1.00  0.00    -0.385 A  
ENDROOT
BRANCH   4   9
HETATM    9  C   UNL     1     -10.388  17.745  68.821  1.00  0.00    -0.332 C  
HETATM   10  C   UNL     1     -10.261  18.244  67.584  1.00  0.00    -0.397 C  
HETATM   11  C   UNL     1      -9.731  19.549  67.367  1.00  0.00    -0.341 C  
HETATM   12  N   UNL     1      -9.289  20.608  67.203  1.00  0.00    -0.368 NA 
ENDBRANCH   4   9
BRANCH   5  13
HETATM   13  N   UNL     1     -12.953  12.874  70.373  1.00  0.00     0.214 NA 
HETATM   14  H   UNL     1     -13.950  13.042  70.238  1.00  0.00     0.000 HD 
BRANCH  13  15
HETATM   15  C   UNL     1     -12.636  11.588  70.866  1.00  0.00    -0.341 A  
HETATM   16  C   UNL     1     -13.334  11.114  71.957  1.00  0.00    -0.384 A  
HETATM   17  C   UNL     1     -13.003   9.857  72.398  1.00  0.00    -0.177 A  
HETATM   18  N   UNL     1     -12.067   9.089  71.814  1.00  0.00    -0.343 NA 
HETATM   19  C   UNL     1     -11.426   9.619  70.762  1.00  0.00    -0.328 A  
HETATM   20  N   UNL     1     -11.695  10.841  70.277  1.00  0.00    -0.324 NA 
BRANCH  19  21
HETATM   21  N   UNL     1     -10.440   8.819  70.182  1.00  0.00    -0.207 NA 
HETATM   22  H   UNL     1      -9.517   8.910  70.608  1.00  0.00     0.000 HD 
BRANCH  21  23
HETATM   23  C   UNL     1     -10.500   7.911  69.116  1.00  0.00    -0.209 A  
HETATM   24  C   UNL     1     -10.409   8.294  67.774  1.00  0.00    -0.296 A  
HETATM   25  C   UNL     1     -10.428   7.363  66.737  1.00  0.00    -0.316 A  
HETATM   26  C   UNL     1     -10.561   6.005  67.029  1.00  0.00    -0.385 A  
HETATM   27  C   UNL     1     -10.538   5.050  65.964  1.00  0.00    -0.232 C  
HETATM   28  C   UNL     1     -10.711   5.600  68.354  1.00  0.00    -0.229 A  
HETATM   29  C   UNL     1     -10.686   6.546  69.387  1.00  0.00    -0.328 A  
HETATM   30  N   UNL     1     -10.504   4.279  65.094  1.00  0.00    -0.228 NA 
ENDBRANCH  21  23
ENDBRANCH  19  21
ENDBRANCH  13  15
ENDBRANCH   5  13
TORSDOF 5
ENDMDL
MODEL       26
REMARK 921   NORMALIZED FREE ENERGY PREDICTED BY IDOCK:   -6.58 KCAL/MOL
REMARK 922        TOTAL FREE ENERGY PREDICTED BY IDOCK:   -9.28 KCAL/MOL
REMARK 923 INTER-LIGAND FREE ENERGY PREDICTED BY IDOCK:   -8.43 KCAL/MOL
REMARK 924 INTRA-LIGAND FREE ENERGY PREDICTED BY IDOCK:   -0.86 KCAL/MOL
REMARK 927      BINDING AFFINITY PREDICTED BY RF-SCORE:    0.00 PKD
ROOT
HETATM    1  C   UNL     1      -7.986  15.343  67.530  1.00  0.00    -0.192 C  
HETATM    2  C   UNL     1      -9.427  15.032  67.829  1.00  0.00    -0.195 A  
HETATM    3  C   UNL     1      -9.848  15.229  69.162  1.00  0.00    -0.239 A  
HETATM    4  C   UNL     1     -11.152  14.967  69.587  1.00  0.00    -0.298 A  
HETATM    5  C   UNL     1     -10.327  14.479  66.892  1.00  0.00    -0.264 A  
HETATM    6  C   UNL     1     -12.074  14.544  68.630  1.00  0.00    -0.253 A  
HETATM    7  C   UNL     1     -12.758  13.935  66.300  1.00  0.00    -0.260 C  
HETATM    8  C   UNL     1     -11.685  14.320  67.288  1.00  0.00    -0.422 A  
ENDROOT
BRANCH   4   9
HETATM    9  C   UNL     1     -11.436  15.091  71.028  1.00  0.00    -0.344 C  
HETATM   10  C   UNL     1     -12.141  16.062  71.623  1.00  0.00    -0.537 C  
HETATM   11  C   UNL     1     -12.302  16.093  73.039  1.00  0.00    -0.525 C  
HETATM   12  N   UNL     1     -12.418  16.112  74.193  1.00  0.00    -0.659 NA 
ENDBRANCH   4   9
BRANCH   5  13
HETATM   13  N   UNL     1      -9.900  13.990  65.629  1.00  0.00    -0.485 NA 
HETATM   14  H   UNL     1      -9.565  14.708  64.987  1.00  0.00     0.000 HD 
BRANCH  13  15
HETATM   15  C   UNL     1      -9.862  12.675  65.113  1.00  0.00    -0.092 A  
HETATM   16  C   UNL     1     -10.231  12.477  63.799  1.00  0.00    -0.360 A  
HETATM   17  C   UNL     1     -10.169  11.186  63.333  1.00  0.00    -0.380 A  
HETATM   18  N   UNL     1      -9.760  10.147  64.081  1.00  0.00    -0.291 NA 
HETATM   19  C   UNL     1      -9.422  10.416  65.351  1.00  0.00    -0.232 A  
HETATM   20  N   UNL     1      -9.460  11.651  65.875  1.00  0.00    -0.227 NA 
BRANCH  19  21
HETATM   21  N   UNL     1      -9.023   9.322  66.121  1.00  0.00    -0.155 NA 
HETATM   22  H   UNL     1      -8.136   8.907  65.838  1.00  0.00     0.000 HD 
BRANCH  21  23
HETATM   23  C   UNL     1      -9.634   8.696  67.215  1.00  0.00    -0.167 A  
HETATM   24  C   UNL     1     -10.351   7.498  67.116  1.00  0.00    -0.384 A  
HETATM   25  C   UNL     1     -10.910   6.877  68.231  1.00  0.00    -0.244 A  
HETATM   26  C   UNL     1     -10.777   7.464  69.490  1.00  0.00    -0.233 A  
HETATM   27  C   UNL     1     -11.316   6.801  70.637  1.00  0.00    -0.334 C  
HETATM   28  C   UNL     1     -10.116   8.685  69.610  1.00  0.00    -0.201 A  
HETATM   29  C   UNL     1      -9.554   9.298  68.482  1.00  0.00    -0.155 A  
HETATM   30  N   UNL     1     -11.744   6.249  71.566  1.00  0.00    -0.299 NA 
ENDBRANCH  21  23
ENDBRANCH  19  21
ENDBRANCH  13  15
ENDBRANCH   5  13
TORSDOF 5
ENDMDL
MODEL       27
REMARK 921   NORMALIZED FREE ENERGY PREDICTED BY IDOCK:   -6.58 KCAL/MOL
REMARK 922        TOTAL FREE ENERGY PREDICTED BY IDOCK:   -9.28 KCAL/MOL
REMARK 923 INTER-LIGAND FREE ENERGY PREDICTED BY IDOCK:   -8.65 KCAL/MOL
REMARK 924 INTRA-LIGAND FREE ENERGY PREDICTED BY IDOCK:   -0.63 KCAL/MOL
REMARK 927      BINDING AFFINITY PREDICTED BY RF-SCORE:    0.00 PKD
ROOT
HETATM    1  C   UNL     1      -9.863   9.622  65.160  1.00  0.00    -0.209 C  
HETATM    2  C   UNL     1      -9.741  10.244  66.524  1.00  0.00    -0.243 A  
HETATM    3  C   UNL     1     -10.113   9.434  67.619  1.00  0.00    -0.262 A  
HETATM    4  C   UNL     1     -10.065   9.886  68.940  1.00  0.00    -0.194 A  
HETATM    5  C   UNL     1      -9.375  11.589  66.749  1.00  0.00    -0.181 A  
HETATM    6  C   UNL     1      -9.579  11.171  69.170  1.00  0.00    -0.024 A  
HETATM    7  C   UNL     1      -8.626  13.367  68.433  1.00  0.00    -0.134 C  
HETATM    8  C   UNL     1      -9.212  12.018  68.096  1.00  0.00    -0.195 A  
ENDROOT
BRANCH   4   9
HETATM    9  C   UNL     1     -10.598   8.991  69.983  1.00  0.00    -0.246 C  
HETATM   10  C   UNL     1     -10.633   9.232  71.301  1.00  0.00    -0.417 C  
HETATM   11  C   UNL     1     -11.133   8.258  72.214  1.00  0.00    -0.359 C  
HETATM   12  N   UNL     1     -11.533   7.454  72.947  1.00  0.00    -0.269 NA 
ENDBRANCH   4   9
BRANCH   5  13
HETATM   13  N   UNL     1      -9.270  12.532  65.692  1.00  0.00    -0.430 NA 
HETATM   14  H   UNL     1      -8.387  12.501  65.182  1.00  0.00     0.000 HD 
BRANCH  13  15
HETATM   15  C   UNL     1     -10.183  13.506  65.229  1.00  0.00    -0.306 A  
HETATM   16  C   UNL     1     -11.318  13.079  64.572  1.00  0.00    -0.377 A  
HETATM   17  C   UNL     1     -12.185  14.057  64.148  1.00  0.00    -0.396 A  
HETATM   18  N   UNL     1     -11.983  15.369  64.359  1.00  0.00    -0.380 NA 
HETATM   19  C   UNL     1     -10.855  15.707  65.000  1.00  0.00    -0.450 A  
HETATM   20  N   UNL     1      -9.962  14.808  65.441  1.00  0.00    -0.361 NA 
BRANCH  19  21
HETATM   21  N   UNL     1     -10.649  17.075  65.189  1.00  0.00    -0.687 NA 
HETATM   22  H   UNL     1     -11.181  17.674  64.558  1.00  0.00     0.000 HD 
BRANCH  21  23
HETATM   23  C   UNL     1      -9.837  17.767  66.097  1.00  0.00    -0.244 A  
HETATM   24  C   UNL     1     -10.276  18.870  66.839  1.00  0.00    -0.443 A  
HETATM   25  C   UNL     1      -9.456  19.510  67.767  1.00  0.00    -0.423 A  
HETATM   26  C   UNL     1      -8.149  19.062  67.960  1.00  0.00    -0.328 A  
HETATM   27  C   UNL     1      -7.325  19.695  68.944  1.00  0.00    -0.338 C  
HETATM   28  C   UNL     1      -7.667  18.001  67.195  1.00  0.00    -0.233 A  
HETATM   29  C   UNL     1      -8.502  17.364  66.268  1.00  0.00    -0.260 A  
HETATM   30  N   UNL     1      -6.668  20.206  69.755  1.00  0.00    -0.258 NA 
ENDBRANCH  21  23
ENDBRANCH  19  21
ENDBRANCH  13  15
ENDBRANCH   5  13
TORSDOF 5
ENDMDL
MODEL       28
REMARK 921   NORMALIZED FREE ENERGY PREDICTED BY IDOCK:   -6.58 KCAL/MOL
REMARK 922        TOTAL FREE ENERGY PREDICTED BY IDOCK:   -9.28 KCAL/MOL
REMARK 923 INTER-LIGAND FREE ENERGY PREDICTED BY IDOCK:   -8.49 KCAL/MOL
REMARK 924 INTRA-LIGAND FREE ENERGY PREDICTED BY IDOCK:   -0.79 KCAL/MOL
REMARK 927      BINDING AFFINITY PREDICTED BY RF-SCORE:    0.00 PKD
ROOT
HETATM    1  C   UNL     1      -9.965   8.779  68.484  1.00  0.00    -0.200 C  
HETATM    2  C   UNL     1      -9.927   7.301  68.756  1.00  0.00    -0.167 A  
HETATM    3  C   UNL     1      -9.771   6.459  67.633  1.00  0.00    -0.130 A  
HETATM    4  C   UNL     1      -9.734   5.067  67.734  1.00  0.00    -0.192 A  
HETATM    5  C   UNL     1     -10.128   6.726  70.030  1.00  0.00    -0.184 A  
HETATM    6  C   UNL     1      -9.803   4.506  69.008  1.00  0.00    -0.202 A  
HETATM    7  C   UNL     1      -9.967   4.638  71.504  1.00  0.00    -0.265 C  
HETATM    8  C   UNL     1      -9.975   5.317  70.156  1.00  0.00    -0.313 A  
ENDROOT
BRANCH   4   9
HETATM    9  C   UNL     1      -9.694   4.295  66.479  1.00  0.00    -0.236 C  
HETATM   10  C   UNL     1     -10.492   4.457  65.414  1.00  0.00    -0.219 C  
HETATM   11  C   UNL     1     -10.381   3.608  64.275  1.00  0.00    -0.227 C  
HETATM   12  N   UNL     1     -10.288   2.904  63.358  1.00  0.00    -0.172 NA 
ENDBRANCH   4   9
BRANCH   5  13
HETATM   13  N   UNL     1     -10.574   7.488  71.142  1.00  0.00    -0.221 NA 
HETATM   14  H   UNL     1      -9.866   7.647  71.859  1.00  0.00     0.000 HD 
BRANCH  13  15
HETATM   15  C   UNL     1     -11.834   8.063  71.423  1.00  0.00    -0.295 A  
HETATM   16  C   UNL     1     -12.940   7.240  71.438  1.00  0.00    -0.420 A  
HETATM   17  C   UNL     1     -14.144   7.836  71.725  1.00  0.00    -0.417 A  
HETATM   18  N   UNL     1     -14.276   9.145  72.001  1.00  0.00    -0.304 NA 
HETATM   19  C   UNL     1     -13.156   9.883  71.962  1.00  0.00    -0.448 A  
HETATM   20  N   UNL     1     -11.947   9.369  71.686  1.00  0.00    -0.371 NA 
BRANCH  19  21
HETATM   21  N   UNL     1     -13.314  11.244  72.226  1.00  0.00    -0.538 NA 
HETATM   22  H   UNL     1     -13.792  11.452  73.103  1.00  0.00     0.000 HD 
BRANCH  21  23
HETATM   23  C   UNL     1     -12.930  12.375  71.492  1.00  0.00    -0.285 A  
HETATM   24  C   UNL     1     -13.243  13.684  71.874  1.00  0.00    -0.497 A  
HETATM   25  C   UNL     1     -12.809  14.790  71.146  1.00  0.00    -0.406 A  
HETATM   26  C   UNL     1     -12.054  14.603  69.988  1.00  0.00    -0.383 A  
HETATM   27  C   UNL     1     -11.574  15.742  69.267  1.00  0.00    -0.373 C  
HETATM   28  C   UNL     1     -11.774  13.309  69.553  1.00  0.00    -0.384 A  
HETATM   29  C   UNL     1     -12.213  12.205  70.296  1.00  0.00    -0.344 A  
HETATM   30  N   UNL     1     -11.176  16.673  68.696  1.00  0.00    -0.297 NA 
ENDBRANCH  21  23
ENDBRANCH  19  21
ENDBRANCH  13  15
ENDBRANCH   5  13
TORSDOF 5
ENDMDL
MODEL       29
REMARK 921   NORMALIZED FREE ENERGY PREDICTED BY IDOCK:   -6.57 KCAL/MOL
REMARK 922        TOTAL FREE ENERGY PREDICTED BY IDOCK:   -9.27 KCAL/MOL
REMARK 923 INTER-LIGAND FREE ENERGY PREDICTED BY IDOCK:   -8.06 KCAL/MOL
REMARK 924 INTRA-LIGAND FREE ENERGY PREDICTED BY IDOCK:   -1.21 KCAL/MOL
REMARK 927      BINDING AFFINITY PREDICTED BY RF-SCORE:    0.00 PKD
ROOT
HETATM    1  C   UNL     1     -12.982  15.571  71.296  1.00  0.00    -0.565 C  
HETATM    2  C   UNL     1     -12.584  14.384  70.463  1.00  0.00    -0.417 A  
HETATM    3  C   UNL     1     -12.609  13.128  71.107  1.00  0.00    -0.403 A  
HETATM    4  C   UNL     1     -12.251  11.943  70.461  1.00  0.00    -0.426 A  
HETATM    5  C   UNL     1     -12.110  14.473  69.136  1.00  0.00    -0.264 A  
HETATM    6  C   UNL     1     -11.908  12.016  69.112  1.00  0.00    -0.369 A  
HETATM    7  C   UNL     1     -11.547  13.245  66.961  1.00  0.00    -0.404 C  
HETATM    8  C   UNL     1     -11.856  13.260  68.437  1.00  0.00    -0.395 A  
ENDROOT
BRANCH   4   9
HETATM    9  C   UNL     1     -12.197  10.715  71.275  1.00  0.00    -0.447 C  
HETATM   10  C   UNL     1     -11.293   9.730  71.178  1.00  0.00    -0.459 C  
HETATM   11  C   UNL     1     -11.382   8.567  71.997  1.00  0.00    -0.355 C  
HETATM   12  N   UNL     1     -11.470   7.621  72.661  1.00  0.00    -0.354 NA 
ENDBRANCH   4   9
BRANCH   5  13
HETATM   13  N   UNL     1     -11.786  15.715  68.529  1.00  0.00    -0.483 NA 
HETATM   14  H   UNL     1     -12.553  16.148  68.013  1.00  0.00     0.000 HD 
BRANCH  13  15
HETATM   15  C   UNL     1     -10.581  16.453  68.520  1.00  0.00    -0.304 A  
HETATM   16  C   UNL     1     -10.630  17.783  68.159  1.00  0.00    -0.350 A  
HETATM   17  C   UNL     1      -9.439  18.467  68.174  1.00  0.00    -0.310 A  
HETATM   18  N   UNL     1      -8.269  17.910  68.533  1.00  0.00    -0.295 NA 
HETATM   19  C   UNL     1      -8.300  16.612  68.866  1.00  0.00    -0.230 A  
HETATM   20  N   UNL     1      -9.425  15.880  68.872  1.00  0.00    -0.219 NA 
BRANCH  19  21
HETATM   21  N   UNL     1      -7.072  16.043  69.212  1.00  0.00    -0.210 NA 
HETATM   22  H   UNL     1      -6.371  16.712  69.531  1.00  0.00     0.000 HD 
BRANCH  21  23
HETATM   23  C   UNL     1      -6.638  14.711  69.196  1.00  0.00    -0.112 A  
HETATM   24  C   UNL     1      -6.267  14.008  70.348  1.00  0.00    -0.129 A  
HETATM   25  C   UNL     1      -5.881  12.669  70.305  1.00  0.00    -0.156 A  
HETATM   26  C   UNL     1      -5.839  12.001  69.081  1.00  0.00    -0.068 A  
HETATM   27  C   UNL     1      -5.483  10.616  69.046  1.00  0.00    -0.041 C  
HETATM   28  C   UNL     1      -6.149  12.692  67.911  1.00  0.00    -0.108 A  
HETATM   29  C   UNL     1      -6.540  14.036  67.968  1.00  0.00    -0.150 A  
HETATM   30  N   UNL     1      -5.207   9.486  69.029  1.00  0.00    -0.037 NA 
ENDBRANCH  21  23
ENDBRANCH  19  21
ENDBRANCH  13  15
ENDBRANCH   5  13
TORSDOF 5
ENDMDL
MODEL       30
REMARK 921   NORMALIZED FREE ENERGY PREDICTED BY IDOCK:   -6.56 KCAL/MOL
REMARK 922        TOTAL FREE ENERGY PREDICTED BY IDOCK:   -9.25 KCAL/MOL
REMARK 923 INTER-LIGAND FREE ENERGY PREDICTED BY IDOCK:   -8.51 KCAL/MOL
REMARK 924 INTRA-LIGAND FREE ENERGY PREDICTED BY IDOCK:   -0.74 KCAL/MOL
REMARK 927      BINDING AFFINITY PREDICTED BY RF-SCORE:    0.00 PKD
ROOT
HETATM    1  C   UNL     1      -8.484  12.662  68.002  1.00  0.00    -0.177 C  
HETATM    2  C   UNL     1      -9.379  12.351  66.835  1.00  0.00    -0.213 A  
HETATM    3  C   UNL     1      -8.911  11.376  65.927  1.00  0.00    -0.184 A  
HETATM    4  C   UNL     1      -9.630  10.998  64.791  1.00  0.00    -0.292 A  
HETATM    5  C   UNL     1     -10.584  13.034  66.559  1.00  0.00    -0.282 A  
HETATM    6  C   UNL     1     -10.881  11.580  64.590  1.00  0.00    -0.372 A  
HETATM    7  C   UNL     1     -12.768  13.099  65.224  1.00  0.00    -0.457 C  
HETATM    8  C   UNL     1     -11.376  12.572  65.470  1.00  0.00    -0.368 A  
ENDROOT
BRANCH   4   9
HETATM    9  C   UNL     1      -8.980  10.064  63.855  1.00  0.00    -0.271 C  
HETATM   10  C   UNL     1      -8.458   8.866  64.153  1.00  0.00    -0.156 C  
HETATM   11  C   UNL     1      -7.810   8.077  63.159  1.00  0.00    -0.148 C  
HETATM   12  N   UNL     1      -7.277   7.449  62.343  1.00  0.00    -0.079 NA 
ENDBRANCH   4   9
BRANCH   5  13
HETATM   13  N   UNL     1     -10.967  14.208  67.259  1.00  0.00    -0.292 NA 
HETATM   14  H   UNL     1     -10.874  15.071  66.723  1.00  0.00     0.000 HD 
BRANCH  13  15
HETATM   15  C   UNL     1     -11.455  14.383  68.574  1.00  0.00    -0.297 A  
HETATM   16  C   UNL     1     -11.413  15.646  69.125  1.00  0.00    -0.365 A  
HETATM   17  C   UNL     1     -11.907  15.774  70.401  1.00  0.00    -0.368 A  
HETATM   18  N   UNL     1     -12.429  14.752  71.100  1.00  0.00    -0.305 NA 
HETATM   19  C   UNL     1     -12.430  13.552  70.500  1.00  0.00    -0.302 A  
HETATM   20  N   UNL     1     -11.963  13.351  69.258  1.00  0.00    -0.325 NA 
BRANCH  19  21
HETATM   21  N   UNL     1     -12.953  12.497  71.250  1.00  0.00    -0.280 NA 
HETATM   22  H   UNL     1     -13.743  12.750  71.842  1.00  0.00     0.000 HD 
BRANCH  21  23
HETATM   23  C   UNL     1     -12.577  11.149  71.327  1.00  0.00    -0.398 A  
HETATM   24  C   UNL     1     -11.438  10.630  70.701  1.00  0.00    -0.374 A  
HETATM   25  C   UNL     1     -11.067   9.293  70.834  1.00  0.00    -0.374 A  
HETATM   26  C   UNL     1     -11.855   8.428  71.594  1.00  0.00    -0.357 A  
HETATM   27  C   UNL     1     -11.447   7.067  71.761  1.00  0.00    -0.267 C  
HETATM   28  C   UNL     1     -13.025   8.905  72.182  1.00  0.00    -0.473 A  
HETATM   29  C   UNL     1     -13.385  10.252  72.045  1.00  0.00    -0.466 A  
HETATM   30  N   UNL     1     -11.101   5.967  71.904  1.00  0.00    -0.266 NA 
ENDBRANCH  21  23
ENDBRANCH  19  21
ENDBRANCH  13  15
ENDBRANCH   5  13
TORSDOF 5
ENDMDL
MODEL       31
REMARK 921   NORMALIZED FREE ENERGY PREDICTED BY IDOCK:   -6.55 KCAL/MOL
REMARK 922        TOTAL FREE ENERGY PREDICTED BY IDOCK:   -9.25 KCAL/MOL
REMARK 923 INTER-LIGAND FREE ENERGY PREDICTED BY IDOCK:   -8.46 KCAL/MOL
REMARK 924 INTRA-LIGAND FREE ENERGY PREDICTED BY IDOCK:   -0.79 KCAL/MOL
REMARK 927      BINDING AFFINITY PREDICTED BY RF-SCORE:    0.00 PKD
ROOT
HETATM    1  C   UNL     1     -12.220  12.853  65.253  1.00  0.00    -0.524 C  
HETATM    2  C   UNL     1     -11.212  11.890  65.816  1.00  0.00    -0.365 A  
HETATM    3  C   UNL     1     -10.497  11.110  64.881  1.00  0.00    -0.372 A  
HETATM    4  C   UNL     1      -9.542  10.165  65.262  1.00  0.00    -0.338 A  
HETATM    5  C   UNL     1     -11.018  11.667  67.197  1.00  0.00    -0.280 A  
HETATM    6  C   UNL     1      -9.258  10.039  66.621  1.00  0.00    -0.178 A  
HETATM    7  C   UNL     1      -9.549  10.651  69.032  1.00  0.00    -0.207 C  
HETATM    8  C   UNL     1      -9.966  10.792  67.588  1.00  0.00    -0.199 A  
ENDROOT
BRANCH   4   9
HETATM    9  C   UNL     1      -8.956   9.326  64.201  1.00  0.00    -0.125 C  
HETATM   10  C   UNL     1      -8.165   8.257  64.372  1.00  0.00    -0.130 C  
HETATM   11  C   UNL     1      -7.622   7.558  63.255  1.00  0.00    -0.118 C  
HETATM   12  N   UNL     1      -7.179   7.002  62.339  1.00  0.00    -0.068 NA 
ENDBRANCH   4   9
BRANCH   5  13
HETATM   13  N   UNL     1     -11.894  12.198  68.180  1.00  0.00    -0.436 NA 
HETATM   14  H   UNL     1     -12.632  11.560  68.480  1.00  0.00     0.000 HD 
BRANCH  13  15
HETATM   15  C   UNL     1     -11.915  13.461  68.813  1.00  0.00    -0.324 A  
HETATM   16  C   UNL     1     -12.093  13.505  70.180  1.00  0.00    -0.425 A  
HETATM   17  C   UNL     1     -12.096  14.751  70.758  1.00  0.00    -0.309 A  
HETATM   18  N   UNL     1     -11.921  15.890  70.065  1.00  0.00    -0.323 NA 
HETATM   19  C   UNL     1     -11.759  15.768  68.740  1.00  0.00    -0.378 A  
HETATM   20  N   UNL     1     -11.747  14.584  68.107  1.00  0.00    -0.331 NA 
BRANCH  19  21
HETATM   21  N   UNL     1     -11.604  16.961  68.032  1.00  0.00     0.235 NA 
HETATM   22  H   UNL     1     -12.411  17.227  67.468  1.00  0.00     0.000 HD 
BRANCH  21  23
HETATM   23  C   UNL     1     -10.529  17.857  67.965  1.00  0.00    -0.382 A  
HETATM   24  C   UNL     1      -9.200  17.486  68.202  1.00  0.00    -0.277 A  
HETATM   25  C   UNL     1      -8.147  18.391  68.084  1.00  0.00    -0.305 A  
HETATM   26  C   UNL     1      -8.411  19.717  67.740  1.00  0.00    -0.344 A  
HETATM   27  C   UNL     1      -7.323  20.633  67.579  1.00  0.00    -0.319 C  
HETATM   28  C   UNL     1      -9.729  20.128  67.553  1.00  0.00    -0.557 A  
HETATM   29  C   UNL     1     -10.778  19.208  67.670  1.00  0.00    -0.514 A  
HETATM   30  N   UNL     1      -6.433  21.366  67.436  1.00  0.00    -0.567 NA 
ENDBRANCH  21  23
ENDBRANCH  19  21
ENDBRANCH  13  15
ENDBRANCH   5  13
TORSDOF 5
ENDMDL
MODEL       32
REMARK 921   NORMALIZED FREE ENERGY PREDICTED BY IDOCK:   -6.55 KCAL/MOL
REMARK 922        TOTAL FREE ENERGY PREDICTED BY IDOCK:   -9.25 KCAL/MOL
REMARK 923 INTER-LIGAND FREE ENERGY PREDICTED BY IDOCK:   -8.70 KCAL/MOL
REMARK 924 INTRA-LIGAND FREE ENERGY PREDICTED BY IDOCK:   -0.55 KCAL/MOL
REMARK 927      BINDING AFFINITY PREDICTED BY RF-SCORE:    0.00 PKD
ROOT
HETATM    1  C   UNL     1     -10.971  16.419  70.251  1.00  0.00    -0.262 C  
HETATM    2  C   UNL     1     -10.534  16.023  68.868  1.00  0.00    -0.245 A  
HETATM    3  C   UNL     1      -9.589  16.866  68.244  1.00  0.00    -0.258 A  
HETATM    4  C   UNL     1      -9.105  16.630  66.955  1.00  0.00    -0.232 A  
HETATM    5  C   UNL     1     -11.076  14.936  68.149  1.00  0.00    -0.283 A  
HETATM    6  C   UNL     1      -9.544  15.483  66.296  1.00  0.00    -0.338 A  
HETATM    7  C   UNL     1     -10.871  13.365  66.137  1.00  0.00    -0.287 C  
HETATM    8  C   UNL     1     -10.503  14.623  66.884  1.00  0.00    -0.270 A  
ENDROOT
BRANCH   4   9
HETATM    9  C   UNL     1      -8.218  17.649  66.365  1.00  0.00    -0.298 C  
HETATM   10  C   UNL     1      -8.230  18.965  66.620  1.00  0.00    -0.295 C  
HETATM   11  C   UNL     1      -7.348  19.854  65.942  1.00  0.00    -0.320 C  
HETATM   12  N   UNL     1      -6.631  20.569  65.377  1.00  0.00    -0.257 NA 
ENDBRANCH   4   9
BRANCH   5  13
HETATM   13  N   UNL     1     -12.223  14.228  68.596  1.00  0.00    -0.568 NA 
HETATM   14  H   UNL     1     -13.085  14.464  68.105  1.00  0.00     0.000 HD 
BRANCH  13  15
HETATM   15  C   UNL     1     -12.370  13.251  69.606  1.00  0.00    -0.097 A  
HETATM   16  C   UNL     1     -12.825  13.653  70.844  1.00  0.00    -0.321 A  
HETATM   17  C   UNL     1     -12.964  12.672  71.795  1.00  0.00    -0.313 A  
HETATM   18  N   UNL     1     -12.698  11.374  71.565  1.00  0.00    -0.382 NA 
HETATM   19  C   UNL     1     -12.254  11.060  70.339  1.00  0.00    -0.373 A  
HETATM   20  N   UNL     1     -12.092  11.966  69.362  1.00  0.00    -0.256 NA 
BRANCH  19  21
HETATM   21  N   UNL     1     -11.959   9.713  70.124  1.00  0.00    -0.464 NA 
HETATM   22  H   UNL     1     -11.937   9.436  69.143  1.00  0.00     0.000 HD 
BRANCH  21  23
HETATM   23  C   UNL     1     -11.688   8.675  71.026  1.00  0.00    -0.278 A  
HETATM   24  C   UNL     1     -12.431   7.491  71.083  1.00  0.00    -0.306 A  
HETATM   25  C   UNL     1     -12.110   6.458  71.963  1.00  0.00    -0.353 A  
HETATM   26  C   UNL     1     -11.029   6.603  72.833  1.00  0.00    -0.286 A  
HETATM   27  C   UNL     1     -10.677   5.524  73.705  1.00  0.00    -0.282 C  
HETATM   28  C   UNL     1     -10.306   7.794  72.838  1.00  0.00    -0.396 A  
HETATM   29  C   UNL     1     -10.637   8.823  71.946  1.00  0.00    -0.425 A  
HETATM   30  N   UNL     1     -10.389   4.637  74.399  1.00  0.00    -0.252 NA 
ENDBRANCH  21  23
ENDBRANCH  19  21
ENDBRANCH  13  15
ENDBRANCH   5  13
TORSDOF 5
ENDMDL
MODEL       33
REMARK 921   NORMALIZED FREE ENERGY PREDICTED BY IDOCK:   -6.49 KCAL/MOL
REMARK 922        TOTAL FREE ENERGY PREDICTED BY IDOCK:   -9.17 KCAL/MOL
REMARK 923 INTER-LIGAND FREE ENERGY PREDICTED BY IDOCK:   -8.30 KCAL/MOL
REMARK 924 INTRA-LIGAND FREE ENERGY PREDICTED BY IDOCK:   -0.88 KCAL/MOL
REMARK 927      BINDING AFFINITY PREDICTED BY RF-SCORE:    0.00 PKD
ROOT
HETATM    1  C   UNL     1     -11.882  10.226  70.524  1.00  0.00    -0.419 C  
HETATM    2  C   UNL     1     -11.868  11.635  69.999  1.00  0.00    -0.435 A  
HETATM    3  C   UNL     1     -12.048  12.662  70.951  1.00  0.00    -0.143 A  
HETATM    4  C   UNL     1     -12.072  14.015  70.605  1.00  0.00    -0.424 A  
HETATM    5  C   UNL     1     -11.782  11.967  68.629  1.00  0.00    -0.326 A  
HETATM    6  C   UNL     1     -11.857  14.347  69.268  1.00  0.00    -0.365 A  
HETATM    7  C   UNL     1     -11.388  13.788  66.873  1.00  0.00    -0.345 C  
HETATM    8  C   UNL     1     -11.689  13.344  68.283  1.00  0.00    -0.391 A  
ENDROOT
BRANCH   4   9
HETATM    9  C   UNL     1     -12.393  14.983  71.669  1.00  0.00    -0.408 C  
HETATM   10  C   UNL     1     -11.693  15.200  72.791  1.00  0.00    -0.442 C  
HETATM   11  C   UNL     1     -12.139  16.136  73.768  1.00  0.00    -0.424 C  
HETATM   12  N   UNL     1     -12.518  16.893  74.560  1.00  0.00    -0.614 NA 
ENDBRANCH   4   9
BRANCH   5  13
HETATM   13  N   UNL     1     -11.890  10.990  67.604  1.00  0.00    -0.623 NA 
HETATM   14  H   UNL     1     -12.835  10.854  67.246  1.00  0.00     0.000 HD 
BRANCH  13  15
HETATM   15  C   UNL     1     -10.908  10.175  66.998  1.00  0.00    -0.151 A  
HETATM   16  C   UNL     1     -10.298  10.631  65.849  1.00  0.00    -0.291 A  
HETATM   17  C   UNL     1      -9.341   9.814  65.297  1.00  0.00    -0.255 A  
HETATM   18  N   UNL     1      -8.978   8.634  65.829  1.00  0.00    -0.195 NA 
HETATM   19  C   UNL     1      -9.619   8.255  66.944  1.00  0.00    -0.207 A  
HETATM   20  N   UNL     1     -10.565   9.000  67.537  1.00  0.00    -0.266 NA 
BRANCH  19  21
HETATM   21  N   UNL     1      -9.247   7.016  67.469  1.00  0.00    -0.124 NA 
HETATM   22  H   UNL     1      -8.833   6.377  66.791  1.00  0.00     0.000 HD 
BRANCH  21  23
HETATM   23  C   UNL     1      -9.346   6.500  68.768  1.00  0.00    -0.130 A  
HETATM   24  C   UNL     1     -10.295   5.545  69.147  1.00  0.00    -0.318 A  
HETATM   25  C   UNL     1     -10.340   5.019  70.437  1.00  0.00    -0.297 A  
HETATM   26  C   UNL     1      -9.430   5.462  71.397  1.00  0.00    -0.188 A  
HETATM   27  C   UNL     1      -9.452   4.889  72.708  1.00  0.00    -0.135 C  
HETATM   28  C   UNL     1      -8.509   6.454  71.063  1.00  0.00    -0.127 A  
HETATM   29  C   UNL     1      -8.471   6.972  69.762  1.00  0.00    -0.137 A  
HETATM   30  N   UNL     1      -9.468   4.407  73.766  1.00  0.00    -0.115 NA 
ENDBRANCH  21  23
ENDBRANCH  19  21
ENDBRANCH  13  15
ENDBRANCH   5  13
TORSDOF 5
ENDMDL
MODEL       34
REMARK 921   NORMALIZED FREE ENERGY PREDICTED BY IDOCK:   -6.48 KCAL/MOL
REMARK 922        TOTAL FREE ENERGY PREDICTED BY IDOCK:   -9.16 KCAL/MOL
REMARK 923 INTER-LIGAND FREE ENERGY PREDICTED BY IDOCK:   -8.29 KCAL/MOL
REMARK 924 INTRA-LIGAND FREE ENERGY PREDICTED BY IDOCK:   -0.87 KCAL/MOL
REMARK 927      BINDING AFFINITY PREDICTED BY RF-SCORE:    0.00 PKD
ROOT
HETATM    1  C   UNL     1      -7.679  14.858  67.413  1.00  0.00    -0.231 C  
HETATM    2  C   UNL     1      -7.991  16.328  67.354  1.00  0.00    -0.179 A  
HETATM    3  C   UNL     1      -7.318  17.074  66.362  1.00  0.00    -0.328 A  
HETATM    4  C   UNL     1      -7.498  18.449  66.202  1.00  0.00    -0.280 A  
HETATM    5  C   UNL     1      -8.827  16.996  68.276  1.00  0.00    -0.242 A  
HETATM    6  C   UNL     1      -8.423  19.084  67.029  1.00  0.00    -0.300 A  
HETATM    7  C   UNL     1     -10.143  19.116  68.849  1.00  0.00    -0.422 C  
HETATM    8  C   UNL     1      -9.105  18.372  68.045  1.00  0.00    -0.308 A  
ENDROOT
BRANCH   4   9
HETATM    9  C   UNL     1      -6.646  19.136  65.215  1.00  0.00    -0.279 C  
HETATM   10  C   UNL     1      -6.737  20.417  64.833  1.00  0.00    -0.291 C  
HETATM   11  C   UNL     1      -5.877  20.949  63.828  1.00  0.00    -0.294 C  
HETATM   12  N   UNL     1      -5.178  21.367  63.003  1.00  0.00    -0.206 NA 
ENDBRANCH   4   9
BRANCH   5  13
HETATM   13  N   UNL     1      -9.301  16.371  69.459  1.00  0.00    -0.077 NA 
HETATM   14  H   UNL     1      -8.730  16.539  70.287  1.00  0.00     0.000 HD 
BRANCH  13  15
HETATM   15  C   UNL     1     -10.433  15.554  69.683  1.00  0.00    -0.286 A  
HETATM   16  C   UNL     1     -11.365  15.968  70.611  1.00  0.00    -0.424 A  
HETATM   17  C   UNL     1     -12.455  15.151  70.790  1.00  0.00    -0.372 A  
HETATM   18  N   UNL     1     -12.649  14.012  70.103  1.00  0.00    -0.308 NA 
HETATM   19  C   UNL     1     -11.697  13.673  69.222  1.00  0.00    -0.325 A  
HETATM   20  N   UNL     1     -10.605  14.419  68.996  1.00  0.00    -0.244 NA 
BRANCH  19  21
HETATM   21  N   UNL     1     -11.902  12.474  68.535  1.00  0.00    -0.315 NA 
HETATM   22  H   UNL     1     -12.528  11.820  69.004  1.00  0.00     0.000 HD 
BRANCH  21  23
HETATM   23  C   UNL     1     -11.393  12.016  67.313  1.00  0.00    -0.330 A  
HETATM   24  C   UNL     1     -10.655  10.834  67.181  1.00  0.00    -0.306 A  
HETATM   25  C   UNL     1     -10.201  10.382  65.943  1.00  0.00    -0.302 A  
HETATM   26  C   UNL     1     -10.463  11.129  64.795  1.00  0.00    -0.388 A  
HETATM   27  C   UNL     1     -10.031  10.639  63.521  1.00  0.00    -0.285 C  
HETATM   28  C   UNL     1     -11.148  12.338  64.904  1.00  0.00    -0.356 A  
HETATM   29  C   UNL     1     -11.603  12.780  66.153  1.00  0.00    -0.431 A  
HETATM   30  N   UNL     1      -9.688  10.227  62.490  1.00  0.00    -0.183 NA 
ENDBRANCH  21  23
ENDBRANCH  19  21
ENDBRANCH  13  15
ENDBRANCH   5  13
TORSDOF 5
ENDMDL
MODEL       35
REMARK 921   NORMALIZED FREE ENERGY PREDICTED BY IDOCK:   -6.48 KCAL/MOL
REMARK 922        TOTAL FREE ENERGY PREDICTED BY IDOCK:   -9.15 KCAL/MOL
REMARK 923 INTER-LIGAND FREE ENERGY PREDICTED BY IDOCK:   -8.41 KCAL/MOL
REMARK 924 INTRA-LIGAND FREE ENERGY PREDICTED BY IDOCK:   -0.74 KCAL/MOL
REMARK 927      BINDING AFFINITY PREDICTED BY RF-SCORE:    0.00 PKD
ROOT
HETATM    1  C   UNL     1     -11.648  15.253  72.030  1.00  0.00    -0.529 C  
HETATM    2  C   UNL     1     -11.577  15.165  70.531  1.00  0.00    -0.340 A  
HETATM    3  C   UNL     1     -11.108  16.313  69.856  1.00  0.00    -0.347 A  
HETATM    4  C   UNL     1     -11.003  16.378  68.465  1.00  0.00    -0.350 A  
HETATM    5  C   UNL     1     -12.033  14.058  69.782  1.00  0.00    -0.334 A  
HETATM    6  C   UNL     1     -11.331  15.238  67.734  1.00  0.00    -0.331 A  
HETATM    7  C   UNL     1     -12.083  12.858  67.521  1.00  0.00    -0.251 C  
HETATM    8  C   UNL     1     -11.821  14.074  68.375  1.00  0.00    -0.397 A  
ENDROOT
BRANCH   4   9
HETATM    9  C   UNL     1     -10.620  17.673  67.872  1.00  0.00    -0.390 C  
HETATM   10  C   UNL     1     -10.090  18.721  68.516  1.00  0.00    -0.444 C  
HETATM   11  C   UNL     1      -9.808  19.939  67.832  1.00  0.00    -0.404 C  
HETATM   12  N   UNL     1      -9.592  20.928  67.266  1.00  0.00    -0.375 NA 
ENDBRANCH   4   9
BRANCH   5  13
HETATM   13  N   UNL     1     -12.776  13.000  70.370  1.00  0.00    -0.056 NA 
HETATM   14  H   UNL     1     -13.757  13.218  70.547  1.00  0.00     0.000 HD 
BRANCH  13  15
HETATM   15  C   UNL     1     -12.385  11.697  70.750  1.00  0.00    -0.358 A  
HETATM   16  C   UNL     1     -13.093  11.067  71.751  1.00  0.00    -0.554 A  
HETATM   17  C   UNL     1     -12.687   9.797  72.083  1.00  0.00    -0.326 A  
HETATM   18  N   UNL     1     -11.671   9.161  71.476  1.00  0.00    -0.336 NA 
HETATM   19  C   UNL     1     -11.026   9.839  70.515  1.00  0.00    -0.321 A  
HETATM   20  N   UNL     1     -11.365  11.082  70.140  1.00  0.00    -0.281 NA 
BRANCH  19  21
HETATM   21  N   UNL     1      -9.958   9.174  69.912  1.00  0.00    -0.187 NA 
HETATM   22  H   UNL     1      -9.402   8.602  70.548  1.00  0.00     0.000 HD 
BRANCH  21  23
HETATM   23  C   UNL     1      -9.517   9.156  68.582  1.00  0.00    -0.143 A  
HETATM   24  C   UNL     1      -8.197   9.426  68.205  1.00  0.00    -0.118 A  
HETATM   25  C   UNL     1      -7.779   9.357  66.877  1.00  0.00    -0.091 A  
HETATM   26  C   UNL     1      -8.698   9.032  65.878  1.00  0.00    -0.193 A  
HETATM   27  C   UNL     1      -8.256   8.922  64.522  1.00  0.00    -0.166 C  
HETATM   28  C   UNL     1     -10.032   8.814  66.219  1.00  0.00    -0.315 A  
HETATM   29  C   UNL     1     -10.438   8.881  67.558  1.00  0.00    -0.337 A  
HETATM   30  N   UNL     1      -7.886   8.821  63.425  1.00  0.00    -0.140 NA 
ENDBRANCH  21  23
ENDBRANCH  19  21
ENDBRANCH  13  15
ENDBRANCH   5  13
TORSDOF 5
ENDMDL
MODEL       36
REMARK 921   NORMALIZED FREE ENERGY PREDICTED BY IDOCK:   -6.48 KCAL/MOL
REMARK 922        TOTAL FREE ENERGY PREDICTED BY IDOCK:   -9.15 KCAL/MOL
REMARK 923 INTER-LIGAND FREE ENERGY PREDICTED BY IDOCK:   -8.35 KCAL/MOL
REMARK 924 INTRA-LIGAND FREE ENERGY PREDICTED BY IDOCK:   -0.80 KCAL/MOL
REMARK 927      BINDING AFFINITY PREDICTED BY RF-SCORE:    0.00 PKD
ROOT
HETATM    1  C   UNL     1     -11.404  12.017  66.162  1.00  0.00    -0.407 C  
HETATM    2  C   UNL     1     -11.176  10.968  67.215  1.00  0.00    -0.330 A  
HETATM    3  C   UNL     1     -10.592   9.758  66.781  1.00  0.00    -0.208 A  
HETATM    4  C   UNL     1     -10.337   8.692  67.647  1.00  0.00    -0.317 A  
HETATM    5  C   UNL     1     -11.593  11.095  68.558  1.00  0.00    -0.314 A  
HETATM    6  C   UNL     1     -10.630   8.868  68.998  1.00  0.00    -0.203 A  
HETATM    7  C   UNL     1     -11.449  10.201  70.954  1.00  0.00    -0.444 C  
HETATM    8  C   UNL     1     -11.231  10.061  69.467  1.00  0.00    -0.254 A  
ENDROOT
BRANCH   4   9
HETATM    9  C   UNL     1      -9.842   7.438  67.052  1.00  0.00    -0.273 C  
HETATM   10  C   UNL     1     -10.521   6.289  66.927  1.00  0.00    -0.337 C  
HETATM   11  C   UNL     1      -9.907   5.128  66.374  1.00  0.00    -0.193 C  
HETATM   12  N   UNL     1      -9.393   4.187  65.932  1.00  0.00    -0.151 NA 
ENDBRANCH   4   9
BRANCH   5  13
HETATM   13  N   UNL     1     -12.436  12.151  68.994  1.00  0.00     0.128 NA 
HETATM   14  H   UNL     1     -13.433  11.939  68.961  1.00  0.00     0.000 HD 
BRANCH  13  15
HETATM   15  C   UNL     1     -12.125  13.447  69.465  1.00  0.00    -0.278 A  
HETATM   16  C   UNL     1     -12.264  13.703  70.813  1.00  0.00    -0.424 A  
HETATM   17  C   UNL     1     -11.941  14.971  71.231  1.00  0.00    -0.335 A  
HETATM   18  N   UNL     1     -11.493  15.933  70.406  1.00  0.00    -0.352 NA 
HETATM   19  C   UNL     1     -11.389  15.610  69.108  1.00  0.00    -0.338 A  
HETATM   20  N   UNL     1     -11.688  14.394  68.627  1.00  0.00    -0.316 NA 
BRANCH  19  21
HETATM   21  N   UNL     1     -10.946  16.628  68.261  1.00  0.00    -0.359 NA 
HETATM   22  H   UNL     1     -11.499  16.741  67.411  1.00  0.00     0.000 HD 
BRANCH  21  23
HETATM   23  C   UNL     1      -9.873  17.520  68.378  1.00  0.00    -0.325 A  
HETATM   24  C   UNL     1     -10.025  18.911  68.383  1.00  0.00    -0.447 A  
HETATM   25  C   UNL     1      -8.941  19.773  68.545  1.00  0.00    -0.291 A  
HETATM   26  C   UNL     1      -7.656  19.248  68.687  1.00  0.00    -0.385 A  
HETATM   27  C   UNL     1      -6.552  20.134  68.895  1.00  0.00    -0.293 C  
HETATM   28  C   UNL     1      -7.468  17.868  68.630  1.00  0.00    -0.280 A  
HETATM   29  C   UNL     1      -8.566  17.013  68.471  1.00  0.00    -0.257 A  
HETATM   30  N   UNL     1      -5.663  20.861  69.079  1.00  0.00    -0.367 NA 
ENDBRANCH  21  23
ENDBRANCH  19  21
ENDBRANCH  13  15
ENDBRANCH   5  13
TORSDOF 5
ENDMDL
MODEL       37
REMARK 921   NORMALIZED FREE ENERGY PREDICTED BY IDOCK:   -6.46 KCAL/MOL
REMARK 922        TOTAL FREE ENERGY PREDICTED BY IDOCK:   -9.13 KCAL/MOL
REMARK 923 INTER-LIGAND FREE ENERGY PREDICTED BY IDOCK:   -8.23 KCAL/MOL
REMARK 924 INTRA-LIGAND FREE ENERGY PREDICTED BY IDOCK:   -0.90 KCAL/MOL
REMARK 927      BINDING AFFINITY PREDICTED BY RF-SCORE:    0.00 PKD
ROOT
HETATM    1  C   UNL     1      -9.387   9.299  70.636  1.00  0.00    -0.329 C  
HETATM    2  C   UNL     1     -10.506   8.477  71.213  1.00  0.00    -0.289 A  
HETATM    3  C   UNL     1     -10.133   7.301  71.899  1.00  0.00    -0.196 A  
HETATM    4  C   UNL     1     -11.066   6.435  72.472  1.00  0.00    -0.298 A  
HETATM    5  C   UNL     1     -11.876   8.765  71.025  1.00  0.00    -0.271 A  
HETATM    6  C   UNL     1     -12.412   6.789  72.398  1.00  0.00     0.040 A  
HETATM    7  C   UNL     1     -14.293   8.303  71.733  1.00  0.00    -0.574 C  
HETATM    8  C   UNL     1     -12.826   7.952  71.704  1.00  0.00    -0.357 A  
ENDROOT
BRANCH   4   9
HETATM    9  C   UNL     1     -10.561   5.177  73.050  1.00  0.00    -0.278 C  
HETATM   10  C   UNL     1     -11.250   4.041  73.221  1.00  0.00    -0.277 C  
HETATM   11  C   UNL     1     -10.654   2.904  73.841  1.00  0.00    -0.179 C  
HETATM   12  N   UNL     1     -10.162   1.989  74.356  1.00  0.00    -0.115 NA 
ENDBRANCH   4   9
BRANCH   5  13
HETATM   13  N   UNL     1     -12.323   9.757  70.113  1.00  0.00    -0.476 NA 
HETATM   14  H   UNL     1     -12.699   9.391  69.238  1.00  0.00     0.000 HD 
BRANCH  13  15
HETATM   15  C   UNL     1     -12.335  11.167  70.214  1.00  0.00    -0.315 A  
HETATM   16  C   UNL     1     -12.800  11.735  71.381  1.00  0.00    -0.440 A  
HETATM   17  C   UNL     1     -12.785  13.107  71.443  1.00  0.00    -0.297 A  
HETATM   18  N   UNL     1     -12.333  13.889  70.447  1.00  0.00    -0.352 NA 
HETATM   19  C   UNL     1     -11.902  13.265  69.341  1.00  0.00    -0.329 A  
HETATM   20  N   UNL     1     -11.889  11.930  69.209  1.00  0.00    -0.315 NA 
BRANCH  19  21
HETATM   21  N   UNL     1     -11.459  14.092  68.308  1.00  0.00    -0.286 NA 
HETATM   22  H   UNL     1     -11.778  13.816  67.379  1.00  0.00     0.000 HD 
BRANCH  21  23
HETATM   23  C   UNL     1     -10.653  15.238  68.328  1.00  0.00    -0.244 A  
HETATM   24  C   UNL     1     -11.148  16.532  68.130  1.00  0.00    -0.303 A  
HETATM   25  C   UNL     1     -10.326  17.656  68.199  1.00  0.00    -0.386 A  
HETATM   26  C   UNL     1      -8.963  17.501  68.452  1.00  0.00    -0.276 A  
HETATM   27  C   UNL     1      -8.131  18.660  68.563  1.00  0.00    -0.341 C  
HETATM   28  C   UNL     1      -8.433  16.221  68.597  1.00  0.00    -0.221 A  
HETATM   29  C   UNL     1      -9.269  15.099  68.530  1.00  0.00    -0.192 A  
HETATM   30  N   UNL     1      -7.466  19.608  68.667  1.00  0.00    -0.339 NA 
ENDBRANCH  21  23
ENDBRANCH  19  21
ENDBRANCH  13  15
ENDBRANCH   5  13
TORSDOF 5
ENDMDL
MODEL       38
REMARK 921   NORMALIZED FREE ENERGY PREDICTED BY IDOCK:   -6.46 KCAL/MOL
REMARK 922        TOTAL FREE ENERGY PREDICTED BY IDOCK:   -9.13 KCAL/MOL
REMARK 923 INTER-LIGAND FREE ENERGY PREDICTED BY IDOCK:   -8.25 KCAL/MOL
REMARK 924 INTRA-LIGAND FREE ENERGY PREDICTED BY IDOCK:   -0.88 KCAL/MOL
REMARK 927      BINDING AFFINITY PREDICTED BY RF-SCORE:    0.00 PKD
ROOT
HETATM    1  C   UNL     1      -9.456  13.024  68.241  1.00  0.00    -0.208 C  
HETATM    2  C   UNL     1     -10.028  13.777  67.072  1.00  0.00    -0.251 A  
HETATM    3  C   UNL     1      -9.814  15.173  67.058  1.00  0.00    -0.233 A  
HETATM    4  C   UNL     1     -10.301  15.999  66.043  1.00  0.00    -0.366 A  
HETATM    5  C   UNL     1     -10.827  13.188  66.067  1.00  0.00    -0.272 A  
HETATM    6  C   UNL     1     -10.978  15.398  64.983  1.00  0.00    -0.450 A  
HETATM    7  C   UNL     1     -11.901  13.420  63.754  1.00  0.00    -0.483 C  
HETATM    8  C   UNL     1     -11.226  14.004  64.971  1.00  0.00    -0.352 A  
ENDROOT
BRANCH   4   9
HETATM    9  C   UNL     1     -10.121  17.453  66.205  1.00  0.00    -0.328 C  
HETATM   10  C   UNL     1     -10.225  18.150  67.346  1.00  0.00    -0.383 C  
HETATM   11  C   UNL     1     -10.074  19.567  67.359  1.00  0.00    -0.406 C  
HETATM   12  N   UNL     1      -9.959  20.720  67.356  1.00  0.00    -0.356 NA 
ENDBRANCH   4   9
BRANCH   5  13
HETATM   13  N   UNL     1     -11.319  11.861  66.172  1.00  0.00    -0.339 NA 
HETATM   14  H   UNL     1     -12.330  11.791  66.293  1.00  0.00     0.000 HD 
BRANCH  13  15
HETATM   15  C   UNL     1     -10.644  10.619  66.137  1.00  0.00    -0.142 A  
HETATM   16  C   UNL     1      -9.608  10.463  65.241  1.00  0.00    -0.316 A  
HETATM   17  C   UNL     1      -8.972   9.246  65.247  1.00  0.00    -0.213 A  
HETATM   18  N   UNL     1      -9.299   8.242  66.078  1.00  0.00    -0.183 NA 
HETATM   19  C   UNL     1     -10.321   8.466  66.918  1.00  0.00    -0.307 A  
HETATM   20  N   UNL     1     -10.990   9.628  66.967  1.00  0.00    -0.068 NA 
BRANCH  19  21
HETATM   21  N   UNL     1     -10.664   7.405  67.758  1.00  0.00    -0.419 NA 
HETATM   22  H   UNL     1     -11.129   6.628  67.288  1.00  0.00     0.000 HD 
BRANCH  21  23
HETATM   23  C   UNL     1     -10.479   7.224  69.135  1.00  0.00    -0.215 A  
HETATM   24  C   UNL     1      -9.500   7.896  69.875  1.00  0.00    -0.160 A  
HETATM   25  C   UNL     1      -9.370   7.727  71.252  1.00  0.00    -0.171 A  
HETATM   26  C   UNL     1     -10.221   6.849  71.925  1.00  0.00    -0.206 A  
HETATM   27  C   UNL     1     -10.111   6.711  73.345  1.00  0.00    -0.228 C  
HETATM   28  C   UNL     1     -11.168   6.125  71.204  1.00  0.00    -0.355 A  
HETATM   29  C   UNL     1     -11.292   6.306  69.821  1.00  0.00    -0.506 A  
HETATM   30  N   UNL     1     -10.024   6.616  74.501  1.00  0.00    -0.332 NA 
ENDBRANCH  21  23
ENDBRANCH  19  21
ENDBRANCH  13  15
ENDBRANCH   5  13
TORSDOF 5
ENDMDL
MODEL       39
REMARK 921   NORMALIZED FREE ENERGY PREDICTED BY IDOCK:   -6.46 KCAL/MOL
REMARK 922        TOTAL FREE ENERGY PREDICTED BY IDOCK:   -9.12 KCAL/MOL
REMARK 923 INTER-LIGAND FREE ENERGY PREDICTED BY IDOCK:   -8.43 KCAL/MOL
REMARK 924 INTRA-LIGAND FREE ENERGY PREDICTED BY IDOCK:   -0.69 KCAL/MOL
REMARK 927      BINDING AFFINITY PREDICTED BY RF-SCORE:    0.00 PKD
ROOT
HETATM    1  C   UNL     1      -7.796  14.647  67.216  1.00  0.00    -0.213 C  
HETATM    2  C   UNL     1      -8.020  16.133  67.248  1.00  0.00    -0.203 A  
HETATM    3  C   UNL     1      -7.366  16.889  66.251  1.00  0.00    -0.248 A  
HETATM    4  C   UNL     1      -7.472  18.279  66.169  1.00  0.00    -0.291 A  
HETATM    5  C   UNL     1      -8.755  16.800  68.253  1.00  0.00    -0.227 A  
HETATM    6  C   UNL     1      -8.303  18.923  67.084  1.00  0.00    -0.288 A  
HETATM    7  C   UNL     1      -9.901  18.960  69.012  1.00  0.00    -0.379 C  
HETATM    8  C   UNL     1      -8.962  18.200  68.108  1.00  0.00    -0.298 A  
ENDROOT
BRANCH   4   9
HETATM    9  C   UNL     1      -6.642  18.966  65.163  1.00  0.00    -0.200 C  
HETATM   10  C   UNL     1      -6.730  20.251  64.795  1.00  0.00    -0.257 C  
HETATM   11  C   UNL     1      -5.895  20.782  63.770  1.00  0.00    -0.291 C  
HETATM   12  N   UNL     1      -5.217  21.200  62.927  1.00  0.00    -0.189 NA 
ENDBRANCH   4   9
BRANCH   5  13
HETATM   13  N   UNL     1      -9.192  16.142  69.434  1.00  0.00    -0.222 NA 
HETATM   14  H   UNL     1      -8.517  16.148  70.197  1.00  0.00     0.000 HD 
BRANCH  13  15
HETATM   15  C   UNL     1     -10.407  15.483  69.727  1.00  0.00    -0.309 A  
HETATM   16  C   UNL     1     -11.400  16.194  70.368  1.00  0.00    -0.377 A  
HETATM   17  C   UNL     1     -12.568  15.519  70.625  1.00  0.00    -0.443 A  
HETATM   18  N   UNL     1     -12.779  14.240  70.271  1.00  0.00    -0.314 NA 
HETATM   19  C   UNL     1     -11.766  13.612  69.657  1.00  0.00    -0.320 A  
HETATM   20  N   UNL     1     -10.596  14.206  69.375  1.00  0.00    -0.108 NA 
BRANCH  19  21
HETATM   21  N   UNL     1     -11.992  12.277  69.318  1.00  0.00    -0.283 NA 
HETATM   22  H   UNL     1     -12.365  12.136  68.380  1.00  0.00     0.000 HD 
BRANCH  21  23
HETATM   23  C   UNL     1     -11.795  11.097  70.048  1.00  0.00    -0.361 A  
HETATM   24  C   UNL     1     -10.690  10.256  69.868  1.00  0.00    -0.344 A  
HETATM   25  C   UNL     1     -10.499   9.112  70.640  1.00  0.00    -0.305 A  
HETATM   26  C   UNL     1     -11.440   8.768  71.611  1.00  0.00    -0.386 A  
HETATM   27  C   UNL     1     -11.219   7.615  72.430  1.00  0.00    -0.320 C  
HETATM   28  C   UNL     1     -12.579   9.555  71.773  1.00  0.00    -0.490 A  
HETATM   29  C   UNL     1     -12.757  10.706  70.994  1.00  0.00    -0.512 A  
HETATM   30  N   UNL     1     -11.025   6.685  73.100  1.00  0.00    -0.256 NA 
ENDBRANCH  21  23
ENDBRANCH  19  21
ENDBRANCH  13  15
ENDBRANCH   5  13
TORSDOF 5
ENDMDL
MODEL       40
REMARK 921   NORMALIZED FREE ENERGY PREDICTED BY IDOCK:   -6.45 KCAL/MOL
REMARK 922        TOTAL FREE ENERGY PREDICTED BY IDOCK:   -9.12 KCAL/MOL
REMARK 923 INTER-LIGAND FREE ENERGY PREDICTED BY IDOCK:   -8.40 KCAL/MOL
REMARK 924 INTRA-LIGAND FREE ENERGY PREDICTED BY IDOCK:   -0.72 KCAL/MOL
REMARK 927      BINDING AFFINITY PREDICTED BY RF-SCORE:    0.00 PKD
ROOT
HETATM    1  C   UNL     1     -13.660   9.339  72.295  1.00  0.00    -0.544 C  
HETATM    2  C   UNL     1     -12.260   9.357  71.746  1.00  0.00    -0.465 A  
HETATM    3  C   UNL     1     -11.341   8.465  72.340  1.00  0.00    -0.448 A  
HETATM    4  C   UNL     1     -10.005   8.384  71.941  1.00  0.00    -0.331 A  
HETATM    5  C   UNL     1     -11.810  10.262  70.761  1.00  0.00    -0.365 A  
HETATM    6  C   UNL     1      -9.594   9.187  70.879  1.00  0.00    -0.347 A  
HETATM    7  C   UNL     1      -9.981  10.885  69.079  1.00  0.00    -0.206 C  
HETATM    8  C   UNL     1     -10.483  10.106  70.270  1.00  0.00    -0.284 A  
ENDROOT
BRANCH   4   9
HETATM    9  C   UNL     1      -9.115   7.505  72.721  1.00  0.00    -0.200 C  
HETATM   10  C   UNL     1      -7.822   7.718  72.998  1.00  0.00    -0.156 C  
HETATM   11  C   UNL     1      -7.057   6.761  73.725  1.00  0.00    -0.078 C  
HETATM   12  N   UNL     1      -6.442   5.970  74.309  1.00  0.00    -0.074 NA 
ENDBRANCH   4   9
BRANCH   5  13
HETATM   13  N   UNL     1     -12.593  11.367  70.332  1.00  0.00    -0.224 NA 
HETATM   14  H   UNL     1     -13.164  11.187  69.506  1.00  0.00     0.000 HD 
BRANCH  13  15
HETATM   15  C   UNL     1     -12.713  12.673  70.857  1.00  0.00    -0.188 A  
HETATM   16  C   UNL     1     -13.297  12.829  72.097  1.00  0.00    -0.593 A  
HETATM   17  C   UNL     1     -13.385  14.113  72.576  1.00  0.00    -0.518 A  
HETATM   18  N   UNL     1     -12.922  15.186  71.911  1.00  0.00    -0.333 NA 
HETATM   19  C   UNL     1     -12.372  14.956  70.710  1.00  0.00    -0.329 A  
HETATM   20  N   UNL     1     -12.254  13.730  70.178  1.00  0.00    -0.350 NA 
BRANCH  19  21
HETATM   21  N   UNL     1     -11.919  16.083  70.022  1.00  0.00    -0.344 NA 
HETATM   22  H   UNL     1     -12.509  16.909  70.128  1.00  0.00     0.000 HD 
BRANCH  21  23
HETATM   23  C   UNL     1     -10.793  16.275  69.210  1.00  0.00    -0.318 A  
HETATM   24  C   UNL     1     -10.715  17.264  68.223  1.00  0.00    -0.349 A  
HETATM   25  C   UNL     1      -9.565  17.458  67.461  1.00  0.00    -0.257 A  
HETATM   26  C   UNL     1      -8.455  16.637  67.662  1.00  0.00    -0.200 A  
HETATM   27  C   UNL     1      -7.262  16.867  66.907  1.00  0.00    -0.216 C  
HETATM   28  C   UNL     1      -8.524  15.608  68.599  1.00  0.00    -0.179 A  
HETATM   29  C   UNL     1      -9.685  15.425  69.362  1.00  0.00    -0.273 A  
HETATM   30  N   UNL     1      -6.292  17.070  66.299  1.00  0.00    -0.229 NA 
ENDBRANCH  21  23
ENDBRANCH  19  21
ENDBRANCH  13  15
ENDBRANCH   5  13
TORSDOF 5
ENDMDL
MODEL       41
REMARK 921   NORMALIZED FREE ENERGY PREDICTED BY IDOCK:   -6.41 KCAL/MOL
REMARK 922        TOTAL FREE ENERGY PREDICTED BY IDOCK:   -9.07 KCAL/MOL
REMARK 923 INTER-LIGAND FREE ENERGY PREDICTED BY IDOCK:   -8.26 KCAL/MOL
REMARK 924 INTRA-LIGAND FREE ENERGY PREDICTED BY IDOCK:   -0.81 KCAL/MOL
REMARK 927      BINDING AFFINITY PREDICTED BY RF-SCORE:    0.00 PKD
ROOT
HETATM    1  C   UNL     1     -12.789  13.449  71.252  1.00  0.00    -0.407 C  
HETATM    2  C   UNL     1     -12.124  13.397  69.904  1.00  0.00    -0.389 A  
HETATM    3  C   UNL     1     -11.719  14.633  69.355  1.00  0.00    -0.355 A  
HETATM    4  C   UNL     1     -11.103  14.736  68.106  1.00  0.00    -0.288 A  
HETATM    5  C   UNL     1     -11.976  12.217  69.142  1.00  0.00    -0.249 A  
HETATM    6  C   UNL     1     -10.840  13.557  67.411  1.00  0.00    -0.279 A  
HETATM    7  C   UNL     1     -10.859  11.067  67.145  1.00  0.00    -0.336 C  
HETATM    8  C   UNL     1     -11.246  12.301  67.923  1.00  0.00    -0.328 A  
ENDROOT
BRANCH   4   9
HETATM    9  C   UNL     1     -10.841  16.091  67.587  1.00  0.00    -0.311 C  
HETATM   10  C   UNL     1     -10.623  17.197  68.312  1.00  0.00    -0.375 C  
HETATM   11  C   UNL     1     -10.429  18.462  67.685  1.00  0.00    -0.419 C  
HETATM   12  N   UNL     1     -10.283  19.487  67.164  1.00  0.00    -0.394 NA 
ENDBRANCH   4   9
BRANCH   5  13
HETATM   13  N   UNL     1     -12.613  11.000  69.499  1.00  0.00    -0.443 NA 
HETATM   14  H   UNL     1     -13.448  10.782  68.954  1.00  0.00     0.000 HD 
BRANCH  13  15
HETATM   15  C   UNL     1     -12.284  10.039  70.482  1.00  0.00    -0.222 A  
HETATM   16  C   UNL     1     -13.092   9.938  71.594  1.00  0.00    -0.538 A  
HETATM   17  C   UNL     1     -12.744   8.985  72.520  1.00  0.00    -0.303 A  
HETATM   18  N   UNL     1     -11.691   8.162  72.377  1.00  0.00    -0.378 NA 
HETATM   19  C   UNL     1     -10.949   8.323  71.271  1.00  0.00    -0.243 A  
HETATM   20  N   UNL     1     -11.227   9.234  70.326  1.00  0.00    -0.245 NA 
BRANCH  19  21
HETATM   21  N   UNL     1      -9.845   7.478  71.150  1.00  0.00    -0.174 NA 
HETATM   22  H   UNL     1      -8.997   7.822  71.602  1.00  0.00     0.000 HD 
BRANCH  21  23
HETATM   23  C   UNL     1      -9.700   6.238  70.515  1.00  0.00    -0.173 A  
HETATM   24  C   UNL     1      -9.752   5.014  71.192  1.00  0.00    -0.241 A  
HETATM   25  C   UNL     1      -9.648   3.795  70.525  1.00  0.00    -0.262 A  
HETATM   26  C   UNL     1      -9.468   3.777  69.142  1.00  0.00    -0.242 A  
HETATM   27  C   UNL     1      -9.404   2.523  68.456  1.00  0.00    -0.193 C  
HETATM   28  C   UNL     1      -9.357   4.981  68.448  1.00  0.00    -0.163 A  
HETATM   29  C   UNL     1      -9.467   6.200  69.130  1.00  0.00    -0.144 A  
HETATM   30  N   UNL     1      -9.369   1.500  67.905  1.00  0.00    -0.162 NA 
ENDBRANCH  21  23
ENDBRANCH  19  21
ENDBRANCH  13  15
ENDBRANCH   5  13
TORSDOF 5
ENDMDL
MODEL       42
REMARK 921   NORMALIZED FREE ENERGY PREDICTED BY IDOCK:   -6.40 KCAL/MOL
REMARK 922        TOTAL FREE ENERGY PREDICTED BY IDOCK:   -9.05 KCAL/MOL
REMARK 923 INTER-LIGAND FREE ENERGY PREDICTED BY IDOCK:   -8.21 KCAL/MOL
REMARK 924 INTRA-LIGAND FREE ENERGY PREDICTED BY IDOCK:   -0.84 KCAL/MOL
REMARK 927      BINDING AFFINITY PREDICTED BY RF-SCORE:    0.00 PKD
ROOT
HETATM    1  C   UNL     1      -8.567   8.231  72.467  1.00  0.00    -0.273 C  
HETATM    2  C   UNL     1      -8.698   8.419  70.982  1.00  0.00    -0.185 A  
HETATM    3  C   UNL     1      -7.762   9.284  70.374  1.00  0.00    -0.150 A  
HETATM    4  C   UNL     1      -7.773   9.564  69.005  1.00  0.00    -0.076 A  
HETATM    5  C   UNL     1      -9.738   7.866  70.203  1.00  0.00    -0.179 A  
HETATM    6  C   UNL     1      -8.720   8.913  68.217  1.00  0.00    -0.134 A  
HETATM    7  C   UNL     1     -10.629   7.331  67.863  1.00  0.00    -0.266 C  
HETATM    8  C   UNL     1      -9.685   8.052  68.793  1.00  0.00    -0.157 A  
ENDROOT
BRANCH   4   9
HETATM    9  C   UNL     1      -6.824  10.578  68.511  1.00  0.00    -0.064 C  
HETATM   10  C   UNL     1      -7.075  11.881  68.319  1.00  0.00    -0.081 C  
HETATM   11  C   UNL     1      -6.079  12.751  67.788  1.00  0.00    -0.134 C  
HETATM   12  N   UNL     1      -5.264  13.447  67.346  1.00  0.00    -0.337 NA 
ENDBRANCH   4   9
BRANCH   5  13
HETATM   13  N   UNL     1     -10.866   7.231  70.787  1.00  0.00    -0.236 NA 
HETATM   14  H   UNL     1     -10.798   6.215  70.846  1.00  0.00     0.000 HD 
BRANCH  13  15
HETATM   15  C   UNL     1     -12.066   7.772  71.301  1.00  0.00    -0.306 A  
HETATM   16  C   UNL     1     -13.137   6.924  71.492  1.00  0.00    -0.341 A  
HETATM   17  C   UNL     1     -14.281   7.487  72.003  1.00  0.00    -0.260 A  
HETATM   18  N   UNL     1     -14.386   8.787  72.329  1.00  0.00    -0.502 NA 
HETATM   19  C   UNL     1     -13.305   9.550  72.110  1.00  0.00    -0.461 A  
HETATM   20  N   UNL     1     -12.155   9.070  71.612  1.00  0.00    -0.328 NA 
BRANCH  19  21
HETATM   21  N   UNL     1     -13.439  10.902  72.431  1.00  0.00    -0.460 NA 
HETATM   22  H   UNL     1     -13.871  11.081  73.337  1.00  0.00     0.000 HD 
BRANCH  21  23
HETATM   23  C   UNL     1     -13.082  12.056  71.721  1.00  0.00    -0.355 A  
HETATM   24  C   UNL     1     -13.501  13.342  72.080  1.00  0.00    -0.655 A  
HETATM   25  C   UNL     1     -13.092  14.475  71.379  1.00  0.00    -0.423 A  
HETATM   26  C   UNL     1     -12.257  14.338  70.270  1.00  0.00    -0.407 A  
HETATM   27  C   UNL     1     -11.806  15.507  69.579  1.00  0.00    -0.372 C  
HETATM   28  C   UNL     1     -11.869  13.066  69.856  1.00  0.00    -0.377 A  
HETATM   29  C   UNL     1     -12.283  11.935  70.572  1.00  0.00    -0.426 A  
HETATM   30  N   UNL     1     -11.433  16.463  69.032  1.00  0.00    -0.262 NA 
ENDBRANCH  21  23
ENDBRANCH  19  21
ENDBRANCH  13  15
ENDBRANCH   5  13
TORSDOF 5
ENDMDL
MODEL       43
REMARK 921   NORMALIZED FREE ENERGY PREDICTED BY IDOCK:   -6.40 KCAL/MOL
REMARK 922        TOTAL FREE ENERGY PREDICTED BY IDOCK:   -9.05 KCAL/MOL
REMARK 923 INTER-LIGAND FREE ENERGY PREDICTED BY IDOCK:   -8.33 KCAL/MOL
REMARK 924 INTRA-LIGAND FREE ENERGY PREDICTED BY IDOCK:   -0.72 KCAL/MOL
REMARK 927      BINDING AFFINITY PREDICTED BY RF-SCORE:    0.00 PKD
ROOT
HETATM    1  C   UNL     1     -11.982  14.897  72.446  1.00  0.00    -0.379 C  
HETATM    2  C   UNL     1     -11.722  14.902  70.965  1.00  0.00    -0.376 A  
HETATM    3  C   UNL     1     -11.161  16.081  70.429  1.00  0.00    -0.401 A  
HETATM    4  C   UNL     1     -10.880  16.232  69.069  1.00  0.00    -0.315 A  
HETATM    5  C   UNL     1     -12.088  13.851  70.095  1.00  0.00    -0.349 A  
HETATM    6  C   UNL     1     -11.122  15.144  68.232  1.00  0.00    -0.295 A  
HETATM    7  C   UNL     1     -11.861  12.796  67.773  1.00  0.00    -0.387 C  
HETATM    8  C   UNL     1     -11.699  13.951  68.730  1.00  0.00    -0.392 A  
ENDROOT
BRANCH   4   9
HETATM    9  C   UNL     1     -10.414  17.554  68.614  1.00  0.00    -0.338 C  
HETATM   10  C   UNL     1     -10.772  18.184  67.487  1.00  0.00    -0.365 C  
HETATM   11  C   UNL     1     -10.208  19.445  67.137  1.00  0.00    -0.412 C  
HETATM   12  N   UNL     1      -9.734  20.466  66.859  1.00  0.00    -0.439 NA 
ENDBRANCH   4   9
BRANCH   5  13
HETATM   13  N   UNL     1     -12.909  12.771  70.516  1.00  0.00     0.035 NA 
HETATM   14  H   UNL     1     -13.911  12.958  70.474  1.00  0.00     0.000 HD 
BRANCH  13  15
HETATM   15  C   UNL     1     -12.570  11.480  70.981  1.00  0.00    -0.357 A  
HETATM   16  C   UNL     1     -13.397  10.881  71.908  1.00  0.00    -0.429 A  
HETATM   17  C   UNL     1     -13.038   9.623  72.326  1.00  0.00    -0.382 A  
HETATM   18  N   UNL     1     -11.957   8.969  71.867  1.00  0.00    -0.360 NA 
HETATM   19  C   UNL     1     -11.199   9.618  70.971  1.00  0.00    -0.375 A  
HETATM   20  N   UNL     1     -11.486  10.848  70.519  1.00  0.00    -0.291 NA 
BRANCH  19  21
HETATM   21  N   UNL     1     -10.067   8.935  70.523  1.00  0.00    -0.194 NA 
HETATM   22  H   UNL     1      -9.262   9.531  70.331  1.00  0.00     0.000 HD 
BRANCH  21  23
HETATM   23  C   UNL     1      -9.847   7.570  70.291  1.00  0.00    -0.183 A  
HETATM   24  C   UNL     1      -8.896   6.815  70.986  1.00  0.00    -0.141 A  
HETATM   25  C   UNL     1      -8.732   5.449  70.763  1.00  0.00    -0.139 A  
HETATM   26  C   UNL     1      -9.517   4.804  69.807  1.00  0.00    -0.233 A  
HETATM   27  C   UNL     1      -9.374   3.394  69.611  1.00  0.00    -0.171 C  
HETATM   28  C   UNL     1     -10.433   5.543  69.060  1.00  0.00    -0.296 A  
HETATM   29  C   UNL     1     -10.592   6.915  69.297  1.00  0.00    -0.250 A  
HETATM   30  N   UNL     1      -9.261   2.246  69.469  1.00  0.00    -0.116 NA 
ENDBRANCH  21  23
ENDBRANCH  19  21
ENDBRANCH  13  15
ENDBRANCH   5  13
TORSDOF 5
ENDMDL
MODEL       44
REMARK 921   NORMALIZED FREE ENERGY PREDICTED BY IDOCK:   -6.39 KCAL/MOL
REMARK 922        TOTAL FREE ENERGY PREDICTED BY IDOCK:   -9.04 KCAL/MOL
REMARK 923 INTER-LIGAND FREE ENERGY PREDICTED BY IDOCK:   -8.15 KCAL/MOL
REMARK 924 INTRA-LIGAND FREE ENERGY PREDICTED BY IDOCK:   -0.89 KCAL/MOL
REMARK 927      BINDING AFFINITY PREDICTED BY RF-SCORE:    0.00 PKD
ROOT
HETATM    1  C   UNL     1     -10.104  10.541  64.649  1.00  0.00    -0.408 C  
HETATM    2  C   UNL     1     -10.440  10.454  66.112  1.00  0.00    -0.224 A  
HETATM    3  C   UNL     1      -9.961   9.319  66.800  1.00  0.00    -0.312 A  
HETATM    4  C   UNL     1     -10.210   9.100  68.157  1.00  0.00    -0.249 A  
HETATM    5  C   UNL     1     -11.267  11.378  66.789  1.00  0.00    -0.252 A  
HETATM    6  C   UNL     1     -10.916  10.078  68.855  1.00  0.00    -0.244 A  
HETATM    7  C   UNL     1     -12.116  12.269  69.034  1.00  0.00    -0.197 C  
HETATM    8  C   UNL     1     -11.426  11.222  68.195  1.00  0.00    -0.376 A  
ENDROOT
BRANCH   4   9
HETATM    9  C   UNL     1      -9.764   7.817  68.732  1.00  0.00    -0.157 C  
HETATM   10  C   UNL     1      -9.497   7.568  70.021  1.00  0.00    -0.161 C  
HETATM   11  C   UNL     1      -9.025   6.290  70.441  1.00  0.00    -0.154 C  
HETATM   12  N   UNL     1      -8.632   5.250  70.769  1.00  0.00    -0.127 NA 
ENDBRANCH   4   9
BRANCH   5  13
HETATM   13  N   UNL     1     -12.012  12.373  66.102  1.00  0.00    -0.608 NA 
HETATM   14  H   UNL     1     -12.993  12.139  65.950  1.00  0.00     0.000 HD 
BRANCH  13  15
HETATM   15  C   UNL     1     -11.622  13.632  65.594  1.00  0.00    -0.328 A  
HETATM   16  C   UNL     1     -12.536  14.350  64.853  1.00  0.00    -0.368 A  
HETATM   17  C   UNL     1     -12.121  15.574  64.387  1.00  0.00    -0.139 A  
HETATM   18  N   UNL     1     -10.904  16.088  64.634  1.00  0.00    -0.606 NA 
HETATM   19  C   UNL     1     -10.068  15.329  65.358  1.00  0.00    -0.362 A  
HETATM   20  N   UNL     1     -10.403  14.124  65.843  1.00  0.00    -0.304 NA 
BRANCH  19  21
HETATM   21  N   UNL     1      -8.799  15.867  65.584  1.00  0.00    -0.244 NA 
HETATM   22  H   UNL     1      -8.065  15.484  64.988  1.00  0.00     0.000 HD 
BRANCH  21  23
HETATM   23  C   UNL     1      -8.361  16.841  66.491  1.00  0.00    -0.285 A  
HETATM   24  C   UNL     1      -9.057  17.176  67.657  1.00  0.00    -0.227 A  
HETATM   25  C   UNL     1      -8.573  18.119  68.562  1.00  0.00    -0.307 A  
HETATM   26  C   UNL     1      -7.369  18.773  68.301  1.00  0.00    -0.295 A  
HETATM   27  C   UNL     1      -6.855  19.710  69.252  1.00  0.00    -0.355 C  
HETATM   28  C   UNL     1      -6.682  18.501  67.119  1.00  0.00    -0.207 A  
HETATM   29  C   UNL     1      -7.177  17.547  66.220  1.00  0.00    -0.351 A  
HETATM   30  N   UNL     1      -6.437  20.459  70.038  1.00  0.00    -0.306 NA 
ENDBRANCH  21  23
ENDBRANCH  19  21
ENDBRANCH  13  15
ENDBRANCH   5  13
TORSDOF 5
ENDMDL
MODEL       45
REMARK 921   NORMALIZED FREE ENERGY PREDICTED BY IDOCK:   -6.37 KCAL/MOL
REMARK 922        TOTAL FREE ENERGY PREDICTED BY IDOCK:   -9.02 KCAL/MOL
REMARK 923 INTER-LIGAND FREE ENERGY PREDICTED BY IDOCK:   -7.99 KCAL/MOL
REMARK 924 INTRA-LIGAND FREE ENERGY PREDICTED BY IDOCK:   -1.03 KCAL/MOL
REMARK 927      BINDING AFFINITY PREDICTED BY RF-SCORE:    0.00 PKD
ROOT
HETATM    1  C   UNL     1      -9.920   9.862  66.387  1.00  0.00    -0.309 C  
HETATM    2  C   UNL     1     -10.399  10.203  67.771  1.00  0.00    -0.253 A  
HETATM    3  C   UNL     1      -9.966   9.353  68.812  1.00  0.00    -0.191 A  
HETATM    4  C   UNL     1     -10.344   9.541  70.144  1.00  0.00    -0.300 A  
HETATM    5  C   UNL     1     -11.309  11.244  68.058  1.00  0.00    -0.304 A  
HETATM    6  C   UNL     1     -11.138  10.646  70.444  1.00  0.00    -0.253 A  
HETATM    7  C   UNL     1     -12.397  12.725  69.841  1.00  0.00    -0.138 C  
HETATM    8  C   UNL     1     -11.604  11.511  69.425  1.00  0.00    -0.388 A  
ENDROOT
BRANCH   4   9
HETATM    9  C   UNL     1      -9.931   8.515  71.118  1.00  0.00    -0.265 C  
HETATM   10  C   UNL     1     -10.220   8.492  72.427  1.00  0.00    -0.369 C  
HETATM   11  C   UNL     1      -9.715   7.463  73.274  1.00  0.00    -0.251 C  
HETATM   12  N   UNL     1      -9.291   6.626  73.955  1.00  0.00    -0.165 NA 
ENDBRANCH   4   9
BRANCH   5  13
HETATM   13  N   UNL     1     -12.003  11.946  67.038  1.00  0.00    -0.601 NA 
HETATM   14  H   UNL     1     -12.935  11.585  66.833  1.00  0.00     0.000 HD 
BRANCH  13  15
HETATM   15  C   UNL     1     -11.620  13.062  66.259  1.00  0.00    -0.360 A  
HETATM   16  C   UNL     1     -12.543  13.601  65.389  1.00  0.00    -0.533 A  
HETATM   17  C   UNL     1     -12.134  14.690  64.659  1.00  0.00    -0.454 A  
HETATM   18  N   UNL     1     -10.914  15.242  64.772  1.00  0.00    -0.410 NA 
HETATM   19  C   UNL     1     -10.069  14.660  65.635  1.00  0.00    -0.363 A  
HETATM   20  N   UNL     1     -10.398  13.593  66.379  1.00  0.00    -0.281 NA 
BRANCH  19  21
HETATM   21  N   UNL     1      -8.797  15.231  65.721  1.00  0.00    -0.262 NA 
HETATM   22  H   UNL     1      -8.344  15.392  64.822  1.00  0.00     0.000 HD 
BRANCH  21  23
HETATM   23  C   UNL     1      -8.037  15.619  66.832  1.00  0.00    -0.255 A  
HETATM   24  C   UNL     1      -8.181  16.857  67.469  1.00  0.00    -0.191 A  
HETATM   25  C   UNL     1      -7.440  17.197  68.600  1.00  0.00    -0.245 A  
HETATM   26  C   UNL     1      -6.507  16.295  69.112  1.00  0.00    -0.175 A  
HETATM   27  C   UNL     1      -5.778  16.631  70.296  1.00  0.00    -0.166 C  
HETATM   28  C   UNL     1      -6.302  15.078  68.464  1.00  0.00    -0.092 A  
HETATM   29  C   UNL     1      -7.056  14.746  67.332  1.00  0.00    -0.173 A  
HETATM   30  N   UNL     1      -5.202  16.907  71.268  1.00  0.00    -0.242 NA 
ENDBRANCH  21  23
ENDBRANCH  19  21
ENDBRANCH  13  15
ENDBRANCH   5  13
TORSDOF 5
ENDMDL
MODEL       46
REMARK 921   NORMALIZED FREE ENERGY PREDICTED BY IDOCK:   -6.37 KCAL/MOL
REMARK 922        TOTAL FREE ENERGY PREDICTED BY IDOCK:   -9.01 KCAL/MOL
REMARK 923 INTER-LIGAND FREE ENERGY PREDICTED BY IDOCK:   -8.86 KCAL/MOL
REMARK 924 INTRA-LIGAND FREE ENERGY PREDICTED BY IDOCK:   -0.14 KCAL/MOL
REMARK 927      BINDING AFFINITY PREDICTED BY RF-SCORE:    0.00 PKD
ROOT
HETATM    1  C   UNL     1     -14.397   7.214  71.660  1.00  0.00    -0.528 C  
HETATM    2  C   UNL     1     -13.346   8.284  71.551  1.00  0.00    -0.309 A  
HETATM    3  C   UNL     1     -13.755   9.600  71.860  1.00  0.00    -0.376 A  
HETATM    4  C   UNL     1     -12.890  10.694  71.787  1.00  0.00    -0.549 A  
HETATM    5  C   UNL     1     -12.036   8.059  71.076  1.00  0.00    -0.245 A  
HETATM    6  C   UNL     1     -11.561  10.450  71.444  1.00  0.00    -0.115 A  
HETATM    7  C   UNL     1      -9.650   8.956  70.822  1.00  0.00    -0.283 C  
HETATM    8  C   UNL     1     -11.119   9.147  71.111  1.00  0.00    -0.393 A  
ENDROOT
BRANCH   4   9
HETATM    9  C   UNL     1     -13.466  12.032  72.012  1.00  0.00    -0.364 C  
HETATM   10  C   UNL     1     -12.918  13.207  71.672  1.00  0.00    -0.429 C  
HETATM   11  C   UNL     1     -13.560  14.438  71.991  1.00  0.00    -0.424 C  
HETATM   12  N   UNL     1     -14.087  15.434  72.265  1.00  0.00    -0.551 NA 
ENDBRANCH   4   9
BRANCH   5  13
HETATM   13  N   UNL     1     -11.647   6.830  70.479  1.00  0.00    -0.355 NA 
HETATM   14  H   UNL     1     -11.986   5.998  70.962  1.00  0.00     0.000 HD 
BRANCH  13  15
HETATM   15  C   UNL     1     -10.869   6.568  69.328  1.00  0.00    -0.307 A  
HETATM   16  C   UNL     1     -10.169   5.381  69.269  1.00  0.00    -0.315 A  
HETATM   17  C   UNL     1      -9.435   5.160  68.129  1.00  0.00    -0.127 A  
HETATM   18  N   UNL     1      -9.390   6.020  67.097  1.00  0.00    -0.115 NA 
HETATM   19  C   UNL     1     -10.093   7.154  67.230  1.00  0.00    -0.215 A  
HETATM   20  N   UNL     1     -10.830   7.439  68.314  1.00  0.00    -0.087 NA 
BRANCH  19  21
HETATM   21  N   UNL     1     -10.016   8.048  66.160  1.00  0.00    -0.466 NA 
HETATM   22  H   UNL     1      -9.901   7.606  65.248  1.00  0.00     0.000 HD 
BRANCH  21  23
HETATM   23  C   UNL     1     -10.069   9.447  66.124  1.00  0.00    -0.254 A  
HETATM   24  C   UNL     1     -10.249  10.241  67.263  1.00  0.00    -0.267 A  
HETATM   25  C   UNL     1     -10.253  11.633  67.200  1.00  0.00    -0.240 A  
HETATM   26  C   UNL     1     -10.095  12.271  65.970  1.00  0.00    -0.269 A  
HETATM   27  C   UNL     1     -10.058  13.700  65.916  1.00  0.00    -0.310 C  
HETATM   28  C   UNL     1      -9.970  11.505  64.812  1.00  0.00    -0.304 A  
HETATM   29  C   UNL     1      -9.962  10.107  64.888  1.00  0.00    -0.358 A  
HETATM   30  N   UNL     1     -10.014  14.861  65.884  1.00  0.00    -0.311 NA 
ENDBRANCH  21  23
ENDBRANCH  19  21
ENDBRANCH  13  15
ENDBRANCH   5  13
TORSDOF 5
ENDMDL
MODEL       47
REMARK 921   NORMALIZED FREE ENERGY PREDICTED BY IDOCK:   -6.35 KCAL/MOL
REMARK 922        TOTAL FREE ENERGY PREDICTED BY IDOCK:   -8.99 KCAL/MOL
REMARK 923 INTER-LIGAND FREE ENERGY PREDICTED BY IDOCK:   -7.88 KCAL/MOL
REMARK 924 INTRA-LIGAND FREE ENERGY PREDICTED BY IDOCK:   -1.11 KCAL/MOL
REMARK 927      BINDING AFFINITY PREDICTED BY RF-SCORE:    0.00 PKD
ROOT
HETATM    1  C   UNL     1     -10.680   8.343  66.976  1.00  0.00    -0.204 C  
HETATM    2  C   UNL     1      -9.738   9.024  67.929  1.00  0.00    -0.185 A  
HETATM    3  C   UNL     1      -9.604   8.439  69.206  1.00  0.00    -0.164 A  
HETATM    4  C   UNL     1      -8.775   8.973  70.196  1.00  0.00    -0.184 A  
HETATM    5  C   UNL     1      -9.073  10.239  67.649  1.00  0.00    -0.137 A  
HETATM    6  C   UNL     1      -8.020  10.099  69.874  1.00  0.00    -0.149 A  
HETATM    7  C   UNL     1      -7.234  11.893  68.313  1.00  0.00    -0.089 C  
HETATM    8  C   UNL     1      -8.140  10.723  68.609  1.00  0.00    -0.136 A  
ENDROOT
BRANCH   4   9
HETATM    9  C   UNL     1      -8.817   8.344  71.529  1.00  0.00    -0.239 C  
HETATM   10  C   UNL     1      -9.868   7.735  72.094  1.00  0.00    -0.242 C  
HETATM   11  C   UNL     1      -9.791   7.207  73.415  1.00  0.00    -0.259 C  
HETATM   12  N   UNL     1      -9.719   6.791  74.495  1.00  0.00    -0.273 NA 
ENDBRANCH   4   9
BRANCH   5  13
HETATM   13  N   UNL     1      -9.383  11.027  66.509  1.00  0.00    -0.176 NA 
HETATM   14  H   UNL     1      -8.751  10.896  65.719  1.00  0.00     0.000 HD 
BRANCH  13  15
HETATM   15  C   UNL     1     -10.419  11.961  66.286  1.00  0.00    -0.239 A  
HETATM   16  C   UNL     1     -11.224  11.794  65.179  1.00  0.00    -0.311 A  
HETATM   17  C   UNL     1     -12.225  12.717  65.004  1.00  0.00    -0.473 A  
HETATM   18  N   UNL     1     -12.454  13.733  65.854  1.00  0.00    -0.472 NA 
HETATM   19  C   UNL     1     -11.626  13.834  66.905  1.00  0.00    -0.370 A  
HETATM   20  N   UNL     1     -10.626  12.971  67.138  1.00  0.00    -0.245 NA 
BRANCH  19  21
HETATM   21  N   UNL     1     -11.862  14.909  67.764  1.00  0.00    -0.471 NA 
HETATM   22  H   UNL     1     -11.911  15.817  67.301  1.00  0.00     0.000 HD 
BRANCH  21  23
HETATM   23  C   UNL     1     -12.041  14.955  69.153  1.00  0.00    -0.231 A  
HETATM   24  C   UNL     1     -12.607  13.910  69.891  1.00  0.00    -0.172 A  
HETATM   25  C   UNL     1     -12.733  13.968  71.278  1.00  0.00    -0.439 A  
HETATM   26  C   UNL     1     -12.304  15.104  71.964  1.00  0.00    -0.429 A  
HETATM   27  C   UNL     1     -12.396  15.142  73.392  1.00  0.00    -0.484 C  
HETATM   28  C   UNL     1     -11.788  16.184  71.249  1.00  0.00    -0.458 A  
HETATM   29  C   UNL     1     -11.663  16.111  69.856  1.00  0.00    -0.191 A  
HETATM   30  N   UNL     1     -12.461  15.159  74.552  1.00  0.00    -0.458 NA 
ENDBRANCH  21  23
ENDBRANCH  19  21
ENDBRANCH  13  15
ENDBRANCH   5  13
TORSDOF 5
ENDMDL
MODEL       48
REMARK 921   NORMALIZED FREE ENERGY PREDICTED BY IDOCK:   -6.35 KCAL/MOL
REMARK 922        TOTAL FREE ENERGY PREDICTED BY IDOCK:   -8.99 KCAL/MOL
REMARK 923 INTER-LIGAND FREE ENERGY PREDICTED BY IDOCK:   -8.08 KCAL/MOL
REMARK 924 INTRA-LIGAND FREE ENERGY PREDICTED BY IDOCK:   -0.91 KCAL/MOL
REMARK 927      BINDING AFFINITY PREDICTED BY RF-SCORE:    0.00 PKD
ROOT
HETATM    1  C   UNL     1      -7.576  12.594  68.410  1.00  0.00    -0.132 C  
HETATM    2  C   UNL     1      -8.684  13.153  67.561  1.00  0.00    -0.201 A  
HETATM    3  C   UNL     1      -8.583  14.518  67.215  1.00  0.00    -0.231 A  
HETATM    4  C   UNL     1      -9.546  15.173  66.444  1.00  0.00    -0.309 A  
HETATM    5  C   UNL     1      -9.835  12.426  67.185  1.00  0.00    -0.205 A  
HETATM    6  C   UNL     1     -10.616  14.420  65.964  1.00  0.00    -0.304 A  
HETATM    7  C   UNL     1     -11.906  12.292  65.684  1.00  0.00    -0.423 C  
HETATM    8  C   UNL     1     -10.760  13.053  66.304  1.00  0.00    -0.290 A  
ENDROOT
BRANCH   4   9
HETATM    9  C   UNL     1      -9.392  16.627  66.256  1.00  0.00    -0.323 C  
HETATM   10  C   UNL     1     -10.336  17.561  66.433  1.00  0.00    -0.334 C  
HETATM   11  C   UNL     1     -10.070  18.936  66.168  1.00  0.00    -0.393 C  
HETATM   12  N   UNL     1      -9.844  20.050  65.941  1.00  0.00    -0.402 NA 
ENDBRANCH   4   9
BRANCH   5  13
HETATM   13  N   UNL     1     -10.140  11.152  67.734  1.00  0.00    -0.176 NA 
HETATM   14  H   UNL     1      -9.888  10.363  67.140  1.00  0.00     0.000 HD 
BRANCH  13  15
HETATM   15  C   UNL     1     -10.732  10.796  68.967  1.00  0.00    -0.228 A  
HETATM   16  C   UNL     1     -11.998  11.266  69.245  1.00  0.00    -0.411 A  
HETATM   17  C   UNL     1     -12.542  10.887  70.448  1.00  0.00    -0.294 A  
HETATM   18  N   UNL     1     -11.913  10.087  71.327  1.00  0.00    -0.376 NA 
HETATM   19  C   UNL     1     -10.683   9.674  70.989  1.00  0.00    -0.323 A  
HETATM   20  N   UNL     1     -10.088  10.005  69.833  1.00  0.00    -0.247 NA 
BRANCH  19  21
HETATM   21  N   UNL     1     -10.034   8.865  71.924  1.00  0.00    -0.338 NA 
HETATM   22  H   UNL     1      -9.236   9.305  72.383  1.00  0.00     0.000 HD 
BRANCH  21  23
HETATM   23  C   UNL     1     -10.291   7.552  72.340  1.00  0.00    -0.228 A  
HETATM   24  C   UNL     1     -10.678   6.530  71.467  1.00  0.00    -0.275 A  
HETATM   25  C   UNL     1     -10.884   5.222  71.904  1.00  0.00    -0.218 A  
HETATM   26  C   UNL     1     -10.723   4.912  73.255  1.00  0.00    -0.316 A  
HETATM   27  C   UNL     1     -10.895   3.561  73.693  1.00  0.00    -0.235 C  
HETATM   28  C   UNL     1     -10.393   5.922  74.157  1.00  0.00    -0.295 A  
HETATM   29  C   UNL     1     -10.184   7.231  73.704  1.00  0.00    -0.393 A  
HETATM   30  N   UNL     1     -11.022   2.457  74.037  1.00  0.00    -0.179 NA 
ENDBRANCH  21  23
ENDBRANCH  19  21
ENDBRANCH  13  15
ENDBRANCH   5  13
TORSDOF 5
ENDMDL
MODEL       49
REMARK 921   NORMALIZED FREE ENERGY PREDICTED BY IDOCK:   -6.35 KCAL/MOL
REMARK 922        TOTAL FREE ENERGY PREDICTED BY IDOCK:   -8.99 KCAL/MOL
REMARK 923 INTER-LIGAND FREE ENERGY PREDICTED BY IDOCK:   -8.49 KCAL/MOL
REMARK 924 INTRA-LIGAND FREE ENERGY PREDICTED BY IDOCK:   -0.50 KCAL/MOL
REMARK 927      BINDING AFFINITY PREDICTED BY RF-SCORE:    0.00 PKD
ROOT
HETATM    1  C   UNL     1      -8.829  10.635  69.057  1.00  0.00    -0.154 C  
HETATM    2  C   UNL     1      -9.911   9.788  69.666  1.00  0.00    -0.244 A  
HETATM    3  C   UNL     1      -9.782   8.391  69.504  1.00  0.00    -0.177 A  
HETATM    4  C   UNL     1     -10.720   7.485  70.005  1.00  0.00    -0.248 A  
HETATM    5  C   UNL     1     -11.065  10.309  70.291  1.00  0.00    -0.319 A  
HETATM    6  C   UNL     1     -11.792   7.996  70.735  1.00  0.00    -0.171 A  
HETATM    7  C   UNL     1     -13.107   9.859  71.769  1.00  0.00    -0.553 C  
HETATM    8  C   UNL     1     -11.963   9.391  70.904  1.00  0.00    -0.351 A  
ENDROOT
BRANCH   4   9
HETATM    9  C   UNL     1     -10.540   6.062  69.663  1.00  0.00    -0.367 C  
HETATM   10  C   UNL     1      -9.546   5.261  70.069  1.00  0.00    -0.238 C  
HETATM   11  C   UNL     1      -9.461   3.910  69.624  1.00  0.00    -0.193 C  
HETATM   12  N   UNL     1      -9.397   2.815  69.248  1.00  0.00    -0.139 NA 
ENDBRANCH   4   9
BRANCH   5  13
HETATM   13  N   UNL     1     -11.400  11.688  70.234  1.00  0.00    -0.468 NA 
HETATM   14  H   UNL     1     -11.547  12.127  71.143  1.00  0.00     0.000 HD 
BRANCH  13  15
HETATM   15  C   UNL     1     -11.563  12.554  69.129  1.00  0.00    -0.320 A  
HETATM   16  C   UNL     1     -11.831  11.998  67.896  1.00  0.00    -0.320 A  
HETATM   17  C   UNL     1     -11.993  12.875  66.851  1.00  0.00    -0.335 A  
HETATM   18  N   UNL     1     -11.920  14.210  66.985  1.00  0.00    -0.428 NA 
HETATM   19  C   UNL     1     -11.651  14.676  68.214  1.00  0.00    -0.326 A  
HETATM   20  N   UNL     1     -11.478  13.881  69.280  1.00  0.00    -0.281 NA 
BRANCH  19  21
HETATM   21  N   UNL     1     -11.553  16.064  68.331  1.00  0.00    -0.338 NA 
HETATM   22  H   UNL     1     -12.445  16.541  68.463  1.00  0.00     0.000 HD 
BRANCH  21  23
HETATM   23  C   UNL     1     -10.440  16.915  68.297  1.00  0.00    -0.352 A  
HETATM   24  C   UNL     1     -10.457  18.181  67.702  1.00  0.00    -0.432 A  
HETATM   25  C   UNL     1      -9.345  19.022  67.723  1.00  0.00    -0.347 A  
HETATM   26  C   UNL     1      -8.166  18.594  68.334  1.00  0.00    -0.361 A  
HETATM   27  C   UNL     1      -7.041  19.477  68.390  1.00  0.00    -0.314 C  
HETATM   28  C   UNL     1      -8.103  17.316  68.885  1.00  0.00    -0.189 A  
HETATM   29  C   UNL     1      -9.229  16.482  68.861  1.00  0.00    -0.258 A  
HETATM   30  N   UNL     1      -6.137  20.206  68.444  1.00  0.00    -0.264 NA 
ENDBRANCH  21  23
ENDBRANCH  19  21
ENDBRANCH  13  15
ENDBRANCH   5  13
TORSDOF 5
ENDMDL
MODEL       50
REMARK 921   NORMALIZED FREE ENERGY PREDICTED BY IDOCK:   -6.35 KCAL/MOL
REMARK 922        TOTAL FREE ENERGY PREDICTED BY IDOCK:   -8.98 KCAL/MOL
REMARK 923 INTER-LIGAND FREE ENERGY PREDICTED BY IDOCK:   -8.09 KCAL/MOL
REMARK 924 INTRA-LIGAND FREE ENERGY PREDICTED BY IDOCK:   -0.89 KCAL/MOL
REMARK 927      BINDING AFFINITY PREDICTED BY RF-SCORE:    0.00 PKD
ROOT
HETATM    1  C   UNL     1     -12.658  12.839  64.918  1.00  0.00    -0.541 C  
HETATM    2  C   UNL     1     -11.294  12.350  65.318  1.00  0.00    -0.374 A  
HETATM    3  C   UNL     1     -10.721  11.351  64.501  1.00  0.00    -0.391 A  
HETATM    4  C   UNL     1      -9.467  10.793  64.762  1.00  0.00    -0.292 A  
HETATM    5  C   UNL     1     -10.619  12.760  66.489  1.00  0.00    -0.254 A  
HETATM    6  C   UNL     1      -8.745  11.293  65.845  1.00  0.00    -0.146 A  
HETATM    7  C   UNL     1      -8.421  12.822  67.801  1.00  0.00    -0.177 C  
HETATM    8  C   UNL     1      -9.295  12.283  66.695  1.00  0.00    -0.228 A  
ENDROOT
BRANCH   4   9
HETATM    9  C   UNL     1      -9.032   9.671  63.911  1.00  0.00    -0.254 C  
HETATM   10  C   UNL     1      -8.441   8.539  64.319  1.00  0.00    -0.068 C  
HETATM   11  C   UNL     1      -8.024   7.548  63.384  1.00  0.00    -0.085 C  
HETATM   12  N   UNL     1      -7.681   6.753  62.613  1.00  0.00    -0.098 NA 
ENDBRANCH   4   9
BRANCH   5  13
HETATM   13  N   UNL     1     -11.253  13.534  67.496  1.00  0.00    -0.274 NA 
HETATM   14  H   UNL     1     -11.384  14.517  67.257  1.00  0.00     0.000 HD 
BRANCH  13  15
HETATM   15  C   UNL     1     -11.734  13.172  68.774  1.00  0.00    -0.324 A  
HETATM   16  C   UNL     1     -12.042  14.176  69.667  1.00  0.00    -0.400 A  
HETATM   17  C   UNL     1     -12.516  13.782  70.894  1.00  0.00    -0.377 A  
HETATM   18  N   UNL     1     -12.702  12.496  71.239  1.00  0.00    -0.324 NA 
HETATM   19  C   UNL     1     -12.376  11.575  70.320  1.00  0.00    -0.273 A  
HETATM   20  N   UNL     1     -11.905  11.886  69.102  1.00  0.00    -0.311 NA 
BRANCH  19  21
HETATM   21  N   UNL     1     -12.552  10.244  70.703  1.00  0.00    -0.420 NA 
HETATM   22  H   UNL     1     -13.443   9.837  70.420  1.00  0.00     0.000 HD 
BRANCH  21  23
HETATM   23  C   UNL     1     -11.713   9.371  71.409  1.00  0.00    -0.378 A  
HETATM   24  C   UNL     1     -10.325   9.333  71.241  1.00  0.00    -0.397 A  
HETATM   25  C   UNL     1      -9.513   8.483  71.990  1.00  0.00    -0.364 A  
HETATM   26  C   UNL     1     -10.089   7.624  72.927  1.00  0.00    -0.343 A  
HETATM   27  C   UNL     1      -9.248   6.784  73.723  1.00  0.00    -0.165 C  
HETATM   28  C   UNL     1     -11.474   7.601  73.075  1.00  0.00    -0.265 A  
HETATM   29  C   UNL     1     -12.279   8.463  72.319  1.00  0.00    -0.449 A  
HETATM   30  N   UNL     1      -8.556   6.116  74.376  1.00  0.00    -0.120 NA 
ENDBRANCH  21  23
ENDBRANCH  19  21
ENDBRANCH  13  15
ENDBRANCH   5  13
TORSDOF 5
ENDMDL
MODEL       51
REMARK 921   NORMALIZED FREE ENERGY PREDICTED BY IDOCK:   -6.34 KCAL/MOL
REMARK 922        TOTAL FREE ENERGY PREDICTED BY IDOCK:   -8.97 KCAL/MOL
REMARK 923 INTER-LIGAND FREE ENERGY PREDICTED BY IDOCK:   -8.15 KCAL/MOL
REMARK 924 INTRA-LIGAND FREE ENERGY PREDICTED BY IDOCK:   -0.82 KCAL/MOL
REMARK 927      BINDING AFFINITY PREDICTED BY RF-SCORE:    0.00 PKD
ROOT
HETATM    1  C   UNL     1     -12.614  12.992  65.091  1.00  0.00    -0.530 C  
HETATM    2  C   UNL     1     -11.637  13.213  66.212  1.00  0.00    -0.399 A  
HETATM    3  C   UNL     1     -12.150  13.809  67.385  1.00  0.00    -0.378 A  
HETATM    4  C   UNL     1     -11.355  14.087  68.499  1.00  0.00    -0.308 A  
HETATM    5  C   UNL     1     -10.253  12.948  66.118  1.00  0.00    -0.278 A  
HETATM    6  C   UNL     1     -10.015  13.706  68.452  1.00  0.00    -0.235 A  
HETATM    7  C   UNL     1      -8.023  12.669  67.344  1.00  0.00    -0.177 C  
HETATM    8  C   UNL     1      -9.461  13.120  67.288  1.00  0.00    -0.225 A  
ENDROOT
BRANCH   4   9
HETATM    9  C   UNL     1     -11.978  14.825  69.612  1.00  0.00    -0.360 C  
HETATM   10  C   UNL     1     -12.248  14.350  70.835  1.00  0.00    -0.413 C  
HETATM   11  C   UNL     1     -12.901  15.157  71.811  1.00  0.00    -0.355 C  
HETATM   12  N   UNL     1     -13.442  15.821  72.594  1.00  0.00    -0.532 NA 
ENDBRANCH   4   9
BRANCH   5  13
HETATM   13  N   UNL     1      -9.627  12.624  64.886  1.00  0.00    -0.478 NA 
HETATM   14  H   UNL     1      -9.363  13.430  64.319  1.00  0.00     0.000 HD 
BRANCH  13  15
HETATM   15  C   UNL     1      -9.307  11.372  64.313  1.00  0.00    -0.063 A  
HETATM   16  C   UNL     1      -9.048  11.318  62.960  1.00  0.00    -0.257 A  
HETATM   17  C   UNL     1      -8.730  10.085  62.445  1.00  0.00    -0.217 A  
HETATM   18  N   UNL     1      -8.649   8.969  63.191  1.00  0.00    -0.186 NA 
HETATM   19  C   UNL     1      -8.919   9.099  64.498  1.00  0.00    -0.079 A  
HETATM   20  N   UNL     1      -9.238  10.271  65.069  1.00  0.00    -0.193 NA 
BRANCH  19  21
HETATM   21  N   UNL     1      -8.854   7.927  65.253  1.00  0.00    -0.385 NA 
HETATM   22  H   UNL     1      -8.299   7.182  64.831  1.00  0.00     0.000 HD 
BRANCH  21  23
HETATM   23  C   UNL     1      -9.421   7.597  66.491  1.00  0.00    -0.190 A  
HETATM   24  C   UNL     1      -9.220   8.347  67.654  1.00  0.00    -0.147 A  
HETATM   25  C   UNL     1      -9.834   8.018  68.862  1.00  0.00    -0.176 A  
HETATM   26  C   UNL     1     -10.661   6.897  68.934  1.00  0.00    -0.244 A  
HETATM   27  C   UNL     1     -11.322   6.586  70.164  1.00  0.00    -0.402 C  
HETATM   28  C   UNL     1     -10.834   6.098  67.804  1.00  0.00    -0.413 A  
HETATM   29  C   UNL     1     -10.215   6.443  66.596  1.00  0.00    -0.216 A  
HETATM   30  N   UNL     1     -11.866   6.350  71.164  1.00  0.00    -0.316 NA 
ENDBRANCH  21  23
ENDBRANCH  19  21
ENDBRANCH  13  15
ENDBRANCH   5  13
TORSDOF 5
ENDMDL
MODEL       52
REMARK 921   NORMALIZED FREE ENERGY PREDICTED BY IDOCK:   -6.31 KCAL/MOL
REMARK 922        TOTAL FREE ENERGY PREDICTED BY IDOCK:   -8.94 KCAL/MOL
REMARK 923 INTER-LIGAND FREE ENERGY PREDICTED BY IDOCK:   -8.06 KCAL/MOL
REMARK 924 INTRA-LIGAND FREE ENERGY PREDICTED BY IDOCK:   -0.88 KCAL/MOL
REMARK 927      BINDING AFFINITY PREDICTED BY RF-SCORE:    0.00 PKD
ROOT
HETATM    1  C   UNL     1     -11.023  10.634  69.470  1.00  0.00    -0.321 C  
HETATM    2  C   UNL     1     -10.552   9.759  68.342  1.00  0.00    -0.264 A  
HETATM    3  C   UNL     1     -10.521   8.370  68.595  1.00  0.00    -0.197 A  
HETATM    4  C   UNL     1     -10.092   7.441  67.644  1.00  0.00    -0.240 A  
HETATM    5  C   UNL     1     -10.064  10.250  67.111  1.00  0.00    -0.210 A  
HETATM    6  C   UNL     1      -9.734   7.918  66.385  1.00  0.00    -0.235 A  
HETATM    7  C   UNL     1      -9.406   9.733  64.691  1.00  0.00    -0.318 C  
HETATM    8  C   UNL     1      -9.737   9.304  66.100  1.00  0.00    -0.349 A  
ENDROOT
BRANCH   4   9
HETATM    9  C   UNL     1      -9.986   6.033  68.070  1.00  0.00    -0.162 C  
HETATM   10  C   UNL     1      -9.497   5.015  67.350  1.00  0.00    -0.151 C  
HETATM   11  C   UNL     1      -9.495   3.685  67.862  1.00  0.00    -0.169 C  
HETATM   12  N   UNL     1      -9.508   2.606  68.286  1.00  0.00    -0.199 NA 
ENDBRANCH   4   9
BRANCH   5  13
HETATM   13  N   UNL     1      -9.797  11.629  66.899  1.00  0.00    -0.196 NA 
HETATM   14  H   UNL     1      -8.808  11.878  66.924  1.00  0.00     0.000 HD 
BRANCH  13  15
HETATM   15  C   UNL     1     -10.671  12.713  66.658  1.00  0.00    -0.253 A  
HETATM   16  C   UNL     1     -11.628  12.576  65.675  1.00  0.00    -0.435 A  
HETATM   17  C   UNL     1     -12.464  13.648  65.480  1.00  0.00    -0.503 A  
HETATM   18  N   UNL     1     -12.398  14.780  66.201  1.00  0.00    -0.067 NA 
HETATM   19  C   UNL     1     -11.438  14.842  67.136  1.00  0.00    -0.364 A  
HETATM   20  N   UNL     1     -10.585  13.836  67.380  1.00  0.00    -0.259 NA 
BRANCH  19  21
HETATM   21  N   UNL     1     -11.367  16.035  67.858  1.00  0.00    -0.275 NA 
HETATM   22  H   UNL     1     -12.054  16.116  68.608  1.00  0.00     0.000 HD 
BRANCH  21  23
HETATM   23  C   UNL     1     -10.514  17.139  67.730  1.00  0.00    -0.362 A  
HETATM   24  C   UNL     1     -10.122  17.938  68.809  1.00  0.00    -0.384 A  
HETATM   25  C   UNL     1      -9.237  19.004  68.656  1.00  0.00    -0.414 A  
HETATM   26  C   UNL     1      -8.733  19.308  67.391  1.00  0.00    -0.326 A  
HETATM   27  C   UNL     1      -7.793  20.377  67.245  1.00  0.00    -0.334 C  
HETATM   28  C   UNL     1      -9.150  18.564  66.289  1.00  0.00    -0.216 A  
HETATM   29  C   UNL     1     -10.037  17.493  66.457  1.00  0.00    -0.331 A  
HETATM   30  N   UNL     1      -7.018  21.237  67.139  1.00  0.00    -0.527 NA 
ENDBRANCH  21  23
ENDBRANCH  19  21
ENDBRANCH  13  15
ENDBRANCH   5  13
TORSDOF 5
ENDMDL
MODEL       53
REMARK 921   NORMALIZED FREE ENERGY PREDICTED BY IDOCK:   -6.29 KCAL/MOL
REMARK 922        TOTAL FREE ENERGY PREDICTED BY IDOCK:   -8.91 KCAL/MOL
REMARK 923 INTER-LIGAND FREE ENERGY PREDICTED BY IDOCK:   -7.91 KCAL/MOL
REMARK 924 INTRA-LIGAND FREE ENERGY PREDICTED BY IDOCK:   -1.00 KCAL/MOL
REMARK 927      BINDING AFFINITY PREDICTED BY RF-SCORE:    0.00 PKD
ROOT
HETATM    1  C   UNL     1     -12.384  10.888  70.244  1.00  0.00    -0.412 C  
HETATM    2  C   UNL     1     -11.198  10.121  69.729  1.00  0.00    -0.325 A  
HETATM    3  C   UNL     1     -10.274   9.668  70.696  1.00  0.00    -0.346 A  
HETATM    4  C   UNL     1      -9.120   8.956  70.360  1.00  0.00    -0.217 A  
HETATM    5  C   UNL     1     -10.921   9.920  68.359  1.00  0.00    -0.187 A  
HETATM    6  C   UNL     1      -8.916   8.646  69.017  1.00  0.00    -0.142 A  
HETATM    7  C   UNL     1      -9.559   8.656  66.597  1.00  0.00    -0.285 C  
HETATM    8  C   UNL     1      -9.811   9.097  68.018  1.00  0.00    -0.197 A  
ENDROOT
BRANCH   4   9
HETATM    9  C   UNL     1      -8.171   8.649  71.446  1.00  0.00    -0.205 C  
HETATM   10  C   UNL     1      -7.323   7.613  71.497  1.00  0.00    -0.071 C  
HETATM   11  C   UNL     1      -6.488   7.401  72.633  1.00  0.00    -0.059 C  
HETATM   12  N   UNL     1      -5.821   7.233  73.566  1.00  0.00    -0.053 NA 
ENDBRANCH   4   9
BRANCH   5  13
HETATM   13  N   UNL     1     -11.643  10.588  67.335  1.00  0.00    -0.461 NA 
HETATM   14  H   UNL     1     -12.397  10.040  66.920  1.00  0.00     0.000 HD 
BRANCH  13  15
HETATM   15  C   UNL     1     -11.492  11.885  66.794  1.00  0.00    -0.316 A  
HETATM   16  C   UNL     1     -11.284  12.008  65.436  1.00  0.00    -0.374 A  
HETATM   17  C   UNL     1     -11.153  13.286  64.950  1.00  0.00    -0.328 A  
HETATM   18  N   UNL     1     -11.236  14.385  65.720  1.00  0.00    -0.320 NA 
HETATM   19  C   UNL     1     -11.434  14.185  67.031  1.00  0.00    -0.352 A  
HETATM   20  N   UNL     1     -11.568  12.967  67.577  1.00  0.00    -0.335 NA 
BRANCH  19  21
HETATM   21  N   UNL     1     -11.492  15.335  67.821  1.00  0.00    -0.329 NA 
HETATM   22  H   UNL     1     -11.272  16.200  67.325  1.00  0.00     0.000 HD 
BRANCH  21  23
HETATM   23  C   UNL     1     -11.800  15.506  69.177  1.00  0.00    -0.354 A  
HETATM   24  C   UNL     1     -13.056  15.219  69.723  1.00  0.00     0.342 A  
HETATM   25  C   UNL     1     -13.318  15.358  71.085  1.00  0.00    -0.580 A  
HETATM   26  C   UNL     1     -12.315  15.816  71.939  1.00  0.00    -0.533 A  
HETATM   27  C   UNL     1     -12.576  15.918  73.343  1.00  0.00    -0.550 C  
HETATM   28  C   UNL     1     -11.072  16.163  71.414  1.00  0.00     0.009 A  
HETATM   29  C   UNL     1     -10.819  16.015  70.044  1.00  0.00    -0.353 A  
HETATM   30  N   UNL     1     -12.793  15.983  74.483  1.00  0.00    -0.580 NA 
ENDBRANCH  21  23
ENDBRANCH  19  21
ENDBRANCH  13  15
ENDBRANCH   5  13
TORSDOF 5
ENDMDL
MODEL       54
REMARK 921   NORMALIZED FREE ENERGY PREDICTED BY IDOCK:   -6.29 KCAL/MOL
REMARK 922        TOTAL FREE ENERGY PREDICTED BY IDOCK:   -8.90 KCAL/MOL
REMARK 923 INTER-LIGAND FREE ENERGY PREDICTED BY IDOCK:   -8.21 KCAL/MOL
REMARK 924 INTRA-LIGAND FREE ENERGY PREDICTED BY IDOCK:   -0.70 KCAL/MOL
REMARK 927      BINDING AFFINITY PREDICTED BY RF-SCORE:    0.00 PKD
ROOT
HETATM    1  C   UNL     1      -9.236  10.203  69.827  1.00  0.00    -0.175 C  
HETATM    2  C   UNL     1     -10.108   9.443  70.788  1.00  0.00    -0.366 A  
HETATM    3  C   UNL     1      -9.505   8.358  71.460  1.00  0.00    -0.267 A  
HETATM    4  C   UNL     1     -10.199   7.556  72.369  1.00  0.00    -0.261 A  
HETATM    5  C   UNL     1     -11.485   9.696  70.975  1.00  0.00    -0.371 A  
HETATM    6  C   UNL     1     -11.523   7.888  72.650  1.00  0.00    -0.454 A  
HETATM    7  C   UNL     1     -13.576   9.299  72.398  1.00  0.00    -0.527 C  
HETATM    8  C   UNL     1     -12.166   8.959  71.984  1.00  0.00    -0.447 A  
ENDROOT
BRANCH   4   9
HETATM    9  C   UNL     1      -9.497   6.378  72.909  1.00  0.00    -0.150 C  
HETATM   10  C   UNL     1      -8.409   5.788  72.394  1.00  0.00    -0.118 C  
HETATM   11  C   UNL     1      -7.853   4.619  72.989  1.00  0.00    -0.096 C  
HETATM   12  N   UNL     1      -7.416   3.663  73.477  1.00  0.00    -0.060 NA 
ENDBRANCH   4   9
BRANCH   5  13
HETATM   13  N   UNL     1     -12.215  10.572  70.129  1.00  0.00    -0.405 NA 
HETATM   14  H   UNL     1     -12.792  10.104  69.430  1.00  0.00     0.000 HD 
BRANCH  13  15
HETATM   15  C   UNL     1     -12.278  11.984  70.094  1.00  0.00    -0.231 A  
HETATM   16  C   UNL     1     -12.564  12.655  71.264  1.00  0.00    -0.339 A  
HETATM   17  C   UNL     1     -12.605  14.026  71.189  1.00  0.00    -0.371 A  
HETATM   18  N   UNL     1     -12.367  14.715  70.060  1.00  0.00    -0.325 NA 
HETATM   19  C   UNL     1     -12.101  13.992  68.961  1.00  0.00    -0.323 A  
HETATM   20  N   UNL     1     -12.047  12.652  68.958  1.00  0.00    -0.216 NA 
BRANCH  19  21
HETATM   21  N   UNL     1     -11.881  14.722  67.791  1.00  0.00    -0.478 NA 
HETATM   22  H   UNL     1     -12.560  14.548  67.050  1.00  0.00     0.000 HD 
BRANCH  21  23
HETATM   23  C   UNL     1     -10.887  15.652  67.460  1.00  0.00    -0.316 A  
HETATM   24  C   UNL     1     -10.524  16.719  68.290  1.00  0.00    -0.341 A  
HETATM   25  C   UNL     1      -9.500  17.602  67.952  1.00  0.00    -0.276 A  
HETATM   26  C   UNL     1      -8.820  17.444  66.743  1.00  0.00    -0.272 A  
HETATM   27  C   UNL     1      -7.743  18.328  66.420  1.00  0.00    -0.257 C  
HETATM   28  C   UNL     1      -9.199  16.424  65.872  1.00  0.00    -0.234 A  
HETATM   29  C   UNL     1     -10.226  15.540  66.225  1.00  0.00    -0.308 A  
HETATM   30  N   UNL     1      -6.859  19.041  66.172  1.00  0.00    -0.222 NA 
ENDBRANCH  21  23
ENDBRANCH  19  21
ENDBRANCH  13  15
ENDBRANCH   5  13
TORSDOF 5
ENDMDL
MODEL       55
REMARK 921   NORMALIZED FREE ENERGY PREDICTED BY IDOCK:   -6.27 KCAL/MOL
REMARK 922        TOTAL FREE ENERGY PREDICTED BY IDOCK:   -8.89 KCAL/MOL
REMARK 923 INTER-LIGAND FREE ENERGY PREDICTED BY IDOCK:   -8.21 KCAL/MOL
REMARK 924 INTRA-LIGAND FREE ENERGY PREDICTED BY IDOCK:   -0.68 KCAL/MOL
REMARK 927      BINDING AFFINITY PREDICTED BY RF-SCORE:    0.00 PKD
ROOT
HETATM    1  C   UNL     1     -10.785   9.789  67.549  1.00  0.00    -0.327 C  
HETATM    2  C   UNL     1      -9.878   9.259  66.473  1.00  0.00    -0.331 A  
HETATM    3  C   UNL     1      -9.566   7.883  66.536  1.00  0.00    -0.281 A  
HETATM    4  C   UNL     1      -8.725   7.258  65.612  1.00  0.00    -0.092 A  
HETATM    5  C   UNL     1      -9.266  10.064  65.488  1.00  0.00    -0.198 A  
HETATM    6  C   UNL     1      -8.226   8.029  64.564  1.00  0.00    -0.097 A  
HETATM    7  C   UNL     1      -7.986  10.161  63.272  1.00  0.00    -0.155 C  
HETATM    8  C   UNL     1      -8.504   9.414  64.477  1.00  0.00    -0.189 A  
ENDROOT
BRANCH   4   9
HETATM    9  C   UNL     1      -8.376   5.847  65.857  1.00  0.00    -0.136 C  
HETATM   10  C   UNL     1      -8.903   4.776  65.249  1.00  0.00    -0.149 C  
HETATM   11  C   UNL     1      -8.511   3.455  65.614  1.00  0.00    -0.109 C  
HETATM   12  N   UNL     1      -8.190   2.386  65.927  1.00  0.00    -0.085 NA 
ENDBRANCH   4   9
BRANCH   5  13
HETATM   13  N   UNL     1      -9.303  11.483  65.539  1.00  0.00    -0.303 NA 
HETATM   14  H   UNL     1      -8.392  11.934  65.457  1.00  0.00     0.000 HD 
BRANCH  13  15
HETATM   15  C   UNL     1     -10.390  12.374  65.685  1.00  0.00    -0.258 A  
HETATM   16  C   UNL     1     -11.477  12.221  64.851  1.00  0.00    -0.382 A  
HETATM   17  C   UNL     1     -12.517  13.101  65.032  1.00  0.00    -0.460 A  
HETATM   18  N   UNL     1     -12.520  14.061  65.972  1.00  0.00    -0.478 NA 
HETATM   19  C   UNL     1     -11.425  14.151  66.742  1.00  0.00    -0.369 A  
HETATM   20  N   UNL     1     -10.372  13.329  66.621  1.00  0.00    -0.270 NA 
BRANCH  19  21
HETATM   21  N   UNL     1     -11.435  15.170  67.697  1.00  0.00    -0.331 NA 
HETATM   22  H   UNL     1     -11.227  16.098  67.328  1.00  0.00     0.000 HD 
BRANCH  21  23
HETATM   23  C   UNL     1     -11.680  15.136  69.076  1.00  0.00    -0.335 A  
HETATM   24  C   UNL     1     -12.095  13.986  69.756  1.00  0.00    -0.405 A  
HETATM   25  C   UNL     1     -12.289  13.972  71.136  1.00  0.00    -0.443 A  
HETATM   26  C   UNL     1     -12.085  15.139  71.874  1.00  0.00    -0.448 A  
HETATM   27  C   UNL     1     -12.245  15.110  73.296  1.00  0.00    -0.429 C  
HETATM   28  C   UNL     1     -11.726  16.313  71.216  1.00  0.00    -0.396 A  
HETATM   29  C   UNL     1     -11.530  16.313  69.829  1.00  0.00    -0.205 A  
HETATM   30  N   UNL     1     -12.362  15.074  74.452  1.00  0.00    -0.551 NA 
ENDBRANCH  21  23
ENDBRANCH  19  21
ENDBRANCH  13  15
ENDBRANCH   5  13
TORSDOF 5
ENDMDL
MODEL       56
REMARK 921   NORMALIZED FREE ENERGY PREDICTED BY IDOCK:   -6.27 KCAL/MOL
REMARK 922        TOTAL FREE ENERGY PREDICTED BY IDOCK:   -8.89 KCAL/MOL
REMARK 923 INTER-LIGAND FREE ENERGY PREDICTED BY IDOCK:   -7.96 KCAL/MOL
REMARK 924 INTRA-LIGAND FREE ENERGY PREDICTED BY IDOCK:   -0.92 KCAL/MOL
REMARK 927      BINDING AFFINITY PREDICTED BY RF-SCORE:    0.00 PKD
ROOT
HETATM    1  C   UNL     1     -11.196  15.647  64.704  1.00  0.00    -0.380 C  
HETATM    2  C   UNL     1     -11.075  15.647  66.203  1.00  0.00    -0.127 A  
HETATM    3  C   UNL     1     -10.342  16.710  66.774  1.00  0.00    -0.295 A  
HETATM    4  C   UNL     1     -10.136  16.829  68.150  1.00  0.00    -0.282 A  
HETATM    5  C   UNL     1     -11.563  14.615  67.034  1.00  0.00    -0.371 A  
HETATM    6  C   UNL     1     -10.730  15.879  68.980  1.00  0.00    -0.251 A  
HETATM    7  C   UNL     1     -12.130  13.848  69.411  1.00  0.00    -0.384 C  
HETATM    8  C   UNL     1     -11.458  14.791  68.443  1.00  0.00    -0.336 A  
ENDROOT
BRANCH   4   9
HETATM    9  C   UNL     1      -9.250  17.911  68.614  1.00  0.00    -0.269 C  
HETATM   10  C   UNL     1      -7.956  18.074  68.303  1.00  0.00    -0.294 C  
HETATM   11  C   UNL     1      -7.194  19.142  68.860  1.00  0.00    -0.341 C  
HETATM   12  N   UNL     1      -6.582  20.009  69.327  1.00  0.00    -0.325 NA 
ENDBRANCH   4   9
BRANCH   5  13
HETATM   13  N   UNL     1     -12.049  13.387  66.512  1.00  0.00    -0.399 NA 
HETATM   14  H   UNL     1     -13.062  13.282  66.549  1.00  0.00     0.000 HD 
BRANCH  13  15
HETATM   15  C   UNL     1     -11.363  12.287  65.950  1.00  0.00    -0.360 A  
HETATM   16  C   UNL     1     -11.374  12.139  64.580  1.00  0.00    -0.393 A  
HETATM   17  C   UNL     1     -10.687  11.063  64.073  1.00  0.00    -0.261 A  
HETATM   18  N   UNL     1     -10.012  10.188  64.838  1.00  0.00    -0.329 NA 
HETATM   19  C   UNL     1     -10.051  10.394  66.163  1.00  0.00    -0.237 A  
HETATM   20  N   UNL     1     -10.703  11.421  66.728  1.00  0.00    -0.259 NA 
BRANCH  19  21
HETATM   21  N   UNL     1      -9.366   9.461  66.945  1.00  0.00    -0.142 NA 
HETATM   22  H   UNL     1      -8.606   8.983  66.462  1.00  0.00     0.000 HD 
BRANCH  21  23
HETATM   23  C   UNL     1      -9.544   9.071  68.278  1.00  0.00    -0.145 A  
HETATM   24  C   UNL     1      -8.961   9.739  69.361  1.00  0.00    -0.197 A  
HETATM   25  C   UNL     1      -9.192   9.352  70.680  1.00  0.00    -0.303 A  
HETATM   26  C   UNL     1     -10.011   8.255  70.945  1.00  0.00    -0.223 A  
HETATM   27  C   UNL     1     -10.280   7.887  72.301  1.00  0.00    -0.241 C  
HETATM   28  C   UNL     1     -10.560   7.536  69.884  1.00  0.00    -0.243 A  
HETATM   29  C   UNL     1     -10.324   7.938  68.563  1.00  0.00    -0.229 A  
HETATM   30  N   UNL     1     -10.504   7.605  73.406  1.00  0.00    -0.345 NA 
ENDBRANCH  21  23
ENDBRANCH  19  21
ENDBRANCH  13  15
ENDBRANCH   5  13
TORSDOF 5
ENDMDL
MODEL       57
REMARK 921   NORMALIZED FREE ENERGY PREDICTED BY IDOCK:   -6.27 KCAL/MOL
REMARK 922        TOTAL FREE ENERGY PREDICTED BY IDOCK:   -8.88 KCAL/MOL
REMARK 923 INTER-LIGAND FREE ENERGY PREDICTED BY IDOCK:   -8.13 KCAL/MOL
REMARK 924 INTRA-LIGAND FREE ENERGY PREDICTED BY IDOCK:   -0.75 KCAL/MOL
REMARK 927      BINDING AFFINITY PREDICTED BY RF-SCORE:    0.00 PKD
ROOT
HETATM    1  C   UNL     1     -10.970  10.470  69.911  1.00  0.00    -0.359 C  
HETATM    2  C   UNL     1     -10.738   9.055  69.459  1.00  0.00    -0.215 A  
HETATM    3  C   UNL     1     -11.028   8.040  70.397  1.00  0.00    -0.248 A  
HETATM    4  C   UNL     1     -10.847   6.683  70.119  1.00  0.00    -0.330 A  
HETATM    5  C   UNL     1     -10.172   8.706  68.213  1.00  0.00    -0.198 A  
HETATM    6  C   UNL     1     -10.411   6.334  68.842  1.00  0.00    -0.246 A  
HETATM    7  C   UNL     1      -9.700   6.862  66.500  1.00  0.00    -0.185 C  
HETATM    8  C   UNL     1     -10.095   7.324  67.881  1.00  0.00    -0.217 A  
ENDROOT
BRANCH   4   9
HETATM    9  C   UNL     1     -11.065   5.729  71.221  1.00  0.00    -0.267 C  
HETATM   10  C   UNL     1     -10.735   5.904  72.508  1.00  0.00    -0.274 C  
HETATM   11  C   UNL     1     -10.958   4.878  73.471  1.00  0.00    -0.328 C  
HETATM   12  N   UNL     1     -11.135   4.031  74.243  1.00  0.00    -0.107 NA 
ENDBRANCH   4   9
BRANCH   5  13
HETATM   13  N   UNL     1      -9.594   9.671  67.347  1.00  0.00    -0.144 NA 
HETATM   14  H   UNL     1      -8.577   9.733  67.398  1.00  0.00     0.000 HD 
BRANCH  13  15
HETATM   15  C   UNL     1     -10.191  10.561  66.425  1.00  0.00    -0.237 A  
HETATM   16  C   UNL     1     -10.146  10.242  65.085  1.00  0.00    -0.355 A  
HETATM   17  C   UNL     1     -10.747  11.128  64.224  1.00  0.00    -0.333 A  
HETATM   18  N   UNL     1     -11.372  12.247  64.628  1.00  0.00    -0.313 NA 
HETATM   19  C   UNL     1     -11.370  12.492  65.947  1.00  0.00    -0.340 A  
HETATM   20  N   UNL     1     -10.801  11.675  66.846  1.00  0.00    -0.263 NA 
BRANCH  19  21
HETATM   21  N   UNL     1     -12.002  13.671  66.348  1.00  0.00    -0.403 NA 
HETATM   22  H   UNL     1     -13.018  13.656  66.265  1.00  0.00     0.000 HD 
BRANCH  21  23
HETATM   23  C   UNL     1     -11.479  14.873  66.844  1.00  0.00    -0.313 A  
HETATM   24  C   UNL     1     -10.732  15.766  66.068  1.00  0.00    -0.311 A  
HETATM   25  C   UNL     1     -10.262  16.975  66.579  1.00  0.00    -0.321 A  
HETATM   26  C   UNL     1     -10.518  17.309  67.910  1.00  0.00    -0.382 A  
HETATM   27  C   UNL     1     -10.069  18.569  68.418  1.00  0.00    -0.388 C  
HETATM   28  C   UNL     1     -11.210  16.412  68.721  1.00  0.00    -0.313 A  
HETATM   29  C   UNL     1     -11.681  15.203  68.195  1.00  0.00    -0.323 A  
HETATM   30  N   UNL     1      -9.714  19.601  68.819  1.00  0.00    -0.414 NA 
ENDBRANCH  21  23
ENDBRANCH  19  21
ENDBRANCH  13  15
ENDBRANCH   5  13
TORSDOF 5
ENDMDL
MODEL       58
REMARK 921   NORMALIZED FREE ENERGY PREDICTED BY IDOCK:   -6.26 KCAL/MOL
REMARK 922        TOTAL FREE ENERGY PREDICTED BY IDOCK:   -8.87 KCAL/MOL
REMARK 923 INTER-LIGAND FREE ENERGY PREDICTED BY IDOCK:   -8.04 KCAL/MOL
REMARK 924 INTRA-LIGAND FREE ENERGY PREDICTED BY IDOCK:   -0.83 KCAL/MOL
REMARK 927      BINDING AFFINITY PREDICTED BY RF-SCORE:    0.00 PKD
ROOT
HETATM    1  C   UNL     1     -12.414  14.040  70.326  1.00  0.00    -0.403 C  
HETATM    2  C   UNL     1     -11.725  13.986  68.991  1.00  0.00    -0.368 A  
HETATM    3  C   UNL     1     -11.324  15.223  68.440  1.00  0.00    -0.338 A  
HETATM    4  C   UNL     1     -10.688  15.325  67.201  1.00  0.00    -0.316 A  
HETATM    5  C   UNL     1     -11.550  12.803  68.239  1.00  0.00    -0.334 A  
HETATM    6  C   UNL     1     -10.399  14.143  66.520  1.00  0.00    -0.284 A  
HETATM    7  C   UNL     1     -10.385  11.651  66.271  1.00  0.00    -0.273 C  
HETATM    8  C   UNL     1     -10.800  12.886  67.033  1.00  0.00    -0.282 A  
ENDROOT
BRANCH   4   9
HETATM    9  C   UNL     1     -10.433  16.679  66.677  1.00  0.00    -0.258 C  
HETATM   10  C   UNL     1     -10.560  17.832  67.347  1.00  0.00    -0.341 C  
HETATM   11  C   UNL     1     -10.328  19.084  66.707  1.00  0.00    -0.412 C  
HETATM   12  N   UNL     1     -10.145  20.097  66.173  1.00  0.00    -0.453 NA 
ENDBRANCH   4   9
BRANCH   5  13
HETATM   13  N   UNL     1     -12.179  11.580  68.594  1.00  0.00    -0.461 NA 
HETATM   14  H   UNL     1     -13.082  11.422  68.146  1.00  0.00     0.000 HD 
BRANCH  13  15
HETATM   15  C   UNL     1     -11.764  10.546  69.463  1.00  0.00    -0.241 A  
HETATM   16  C   UNL     1     -12.285  10.515  70.739  1.00  0.00    -0.468 A  
HETATM   17  C   UNL     1     -11.864   9.488  71.548  1.00  0.00    -0.405 A  
HETATM   18  N   UNL     1     -11.006   8.534  71.149  1.00  0.00    -0.242 NA 
HETATM   19  C   UNL     1     -10.538   8.633  69.896  1.00  0.00    -0.224 A  
HETATM   20  N   UNL     1     -10.903   9.609  69.051  1.00  0.00    -0.211 NA 
BRANCH  19  21
HETATM   21  N   UNL     1      -9.629   7.648  69.505  1.00  0.00    -0.163 NA 
HETATM   22  H   UNL     1      -8.898   7.453  70.189  1.00  0.00     0.000 HD 
BRANCH  21  23
HETATM   23  C   UNL     1      -9.548   6.883  68.335  1.00  0.00    -0.126 A  
HETATM   24  C   UNL     1      -8.370   6.726  67.597  1.00  0.00    -0.123 A  
HETATM   25  C   UNL     1      -8.311   5.922  66.460  1.00  0.00    -0.112 A  
HETATM   26  C   UNL     1      -9.459   5.262  66.019  1.00  0.00    -0.169 A  
HETATM   27  C   UNL     1      -9.384   4.405  64.876  1.00  0.00    -0.163 C  
HETATM   28  C   UNL     1     -10.660   5.444  66.703  1.00  0.00    -0.359 A  
HETATM   29  C   UNL     1     -10.705   6.252  67.846  1.00  0.00    -0.380 A  
HETATM   30  N   UNL     1      -9.310   3.698  63.956  1.00  0.00    -0.128 NA 
ENDBRANCH  21  23
ENDBRANCH  19  21
ENDBRANCH  13  15
ENDBRANCH   5  13
TORSDOF 5
ENDMDL
MODEL       59
REMARK 921   NORMALIZED FREE ENERGY PREDICTED BY IDOCK:   -6.25 KCAL/MOL
REMARK 922        TOTAL FREE ENERGY PREDICTED BY IDOCK:   -8.86 KCAL/MOL
REMARK 923 INTER-LIGAND FREE ENERGY PREDICTED BY IDOCK:   -8.35 KCAL/MOL
REMARK 924 INTRA-LIGAND FREE ENERGY PREDICTED BY IDOCK:   -0.52 KCAL/MOL
REMARK 927      BINDING AFFINITY PREDICTED BY RF-SCORE:    0.00 PKD
ROOT
HETATM    1  C   UNL     1     -11.610  11.972  68.232  1.00  0.00    -0.394 C  
HETATM    2  C   UNL     1     -11.012  10.601  68.080  1.00  0.00    -0.321 A  
HETATM    3  C   UNL     1     -11.130   9.737  69.191  1.00  0.00    -0.158 A  
HETATM    4  C   UNL     1     -10.609   8.442  69.196  1.00  0.00    -0.177 A  
HETATM    5  C   UNL     1     -10.276  10.181  66.951  1.00  0.00    -0.236 A  
HETATM    6  C   UNL     1      -9.996   7.983  68.032  1.00  0.00    -0.216 A  
HETATM    7  C   UNL     1      -9.235   8.230  65.658  1.00  0.00    -0.077 C  
HETATM    8  C   UNL     1      -9.844   8.826  66.904  1.00  0.00    -0.295 A  
ENDROOT
BRANCH   4   9
HETATM    9  C   UNL     1     -10.686   7.683  70.458  1.00  0.00    -0.241 C  
HETATM   10  C   UNL     1     -11.183   6.449  70.621  1.00  0.00    -0.400 C  
HETATM   11  C   UNL     1     -11.244   5.845  71.910  1.00  0.00    -0.264 C  
HETATM   12  N   UNL     1     -11.297   5.367  72.965  1.00  0.00    -0.308 NA 
ENDBRANCH   4   9
BRANCH   5  13
HETATM   13  N   UNL     1      -9.873  11.083  65.931  1.00  0.00    -0.221 NA 
HETATM   14  H   UNL     1      -8.887  11.023  65.676  1.00  0.00     0.000 HD 
BRANCH  13  15
HETATM   15  C   UNL     1     -10.608  12.050  65.209  1.00  0.00    -0.287 A  
HETATM   16  C   UNL     1     -11.674  11.624  64.444  1.00  0.00    -0.226 A  
HETATM   17  C   UNL     1     -12.369  12.597  63.767  1.00  0.00    -0.478 A  
HETATM   18  N   UNL     1     -12.070  13.905  63.835  1.00  0.00    -0.529 NA 
HETATM   19  C   UNL     1     -11.017  14.242  64.595  1.00  0.00    -0.367 A  
HETATM   20  N   UNL     1     -10.291  13.347  65.282  1.00  0.00    -0.313 NA 
BRANCH  19  21
HETATM   21  N   UNL     1     -10.705  15.602  64.634  1.00  0.00    -0.723 NA 
HETATM   22  H   UNL     1     -10.544  16.026  63.720  1.00  0.00     0.000 HD 
BRANCH  21  23
HETATM   23  C   UNL     1     -10.574  16.485  65.714  1.00  0.00    -0.296 A  
HETATM   24  C   UNL     1     -10.733  16.098  67.049  1.00  0.00    -0.254 A  
HETATM   25  C   UNL     1     -10.554  16.990  68.104  1.00  0.00    -0.369 A  
HETATM   26  C   UNL     1     -10.226  18.320  67.837  1.00  0.00    -0.400 A  
HETATM   27  C   UNL     1     -10.001  19.223  68.924  1.00  0.00    -0.427 C  
HETATM   28  C   UNL     1     -10.116  18.747  66.515  1.00  0.00    -0.437 A  
HETATM   29  C   UNL     1     -10.295  17.839  65.463  1.00  0.00     0.041 A  
HETATM   30  N   UNL     1      -9.806  19.946  69.814  1.00  0.00     0.027 NA 
ENDBRANCH  21  23
ENDBRANCH  19  21
ENDBRANCH  13  15
ENDBRANCH   5  13
TORSDOF 5
ENDMDL
MODEL       60
REMARK 921   NORMALIZED FREE ENERGY PREDICTED BY IDOCK:   -6.25 KCAL/MOL
REMARK 922        TOTAL FREE ENERGY PREDICTED BY IDOCK:   -8.86 KCAL/MOL
REMARK 923 INTER-LIGAND FREE ENERGY PREDICTED BY IDOCK:   -8.31 KCAL/MOL
REMARK 924 INTRA-LIGAND FREE ENERGY PREDICTED BY IDOCK:   -0.55 KCAL/MOL
REMARK 927      BINDING AFFINITY PREDICTED BY RF-SCORE:    0.00 PKD
ROOT
HETATM    1  C   UNL     1      -7.372  15.667  66.831  1.00  0.00    -0.127 C  
HETATM    2  C   UNL     1      -8.001  17.015  67.053  1.00  0.00    -0.234 A  
HETATM    3  C   UNL     1      -7.392  17.840  68.024  1.00  0.00    -0.220 A  
HETATM    4  C   UNL     1      -7.877  19.110  68.345  1.00  0.00    -0.370 A  
HETATM    5  C   UNL     1      -9.191  17.445  66.426  1.00  0.00    -0.249 A  
HETATM    6  C   UNL     1      -8.976  19.585  67.630  1.00  0.00    -0.373 A  
HETATM    7  C   UNL     1     -10.758  19.395  65.881  1.00  0.00    -0.501 C  
HETATM    8  C   UNL     1      -9.622  18.780  66.661  1.00  0.00    -0.357 A  
ENDROOT
BRANCH   4   9
HETATM    9  C   UNL     1      -7.232  19.822  69.462  1.00  0.00    -0.198 C  
HETATM   10  C   UNL     1      -6.000  19.605  69.944  1.00  0.00    -0.325 C  
HETATM   11  C   UNL     1      -5.510  20.333  71.066  1.00  0.00    -0.284 C  
HETATM   12  N   UNL     1      -5.126  20.926  71.986  1.00  0.00    -0.520 NA 
ENDBRANCH   4   9
BRANCH   5  13
HETATM   13  N   UNL     1     -10.007  16.565  65.666  1.00  0.00    -0.549 NA 
HETATM   14  H   UNL     1     -10.194  16.877  64.713  1.00  0.00     0.000 HD 
BRANCH  13  15
HETATM   15  C   UNL     1     -10.603  15.331  66.009  1.00  0.00    -0.319 A  
HETATM   16  C   UNL     1     -11.409  15.282  67.128  1.00  0.00    -0.247 A  
HETATM   17  C   UNL     1     -11.977  14.066  67.420  1.00  0.00    -0.404 A  
HETATM   18  N   UNL     1     -11.798  12.964  66.671  1.00  0.00    -0.392 NA 
HETATM   19  C   UNL     1     -10.998  13.089  65.602  1.00  0.00    -0.273 A  
HETATM   20  N   UNL     1     -10.407  14.243  65.257  1.00  0.00    -0.371 NA 
BRANCH  19  21
HETATM   21  N   UNL     1     -10.803  11.929  64.849  1.00  0.00    -0.296 NA 
HETATM   22  H   UNL     1     -11.153  11.982  63.893  1.00  0.00     0.000 HD 
BRANCH  21  23
HETATM   23  C   UNL     1     -10.208  10.705  65.183  1.00  0.00    -0.299 A  
HETATM   24  C   UNL     1      -9.278  10.053  64.366  1.00  0.00    -0.316 A  
HETATM   25  C   UNL     1      -8.671   8.857  64.745  1.00  0.00    -0.162 A  
HETATM   26  C   UNL     1      -9.005   8.269  65.965  1.00  0.00    -0.224 A  
HETATM   27  C   UNL     1      -8.348   7.063  66.370  1.00  0.00    -0.125 C  
HETATM   28  C   UNL     1      -9.970   8.867  66.774  1.00  0.00    -0.338 A  
HETATM   29  C   UNL     1     -10.570  10.071  66.383  1.00  0.00    -0.138 A  
HETATM   30  N   UNL     1      -7.800   6.092  66.697  1.00  0.00    -0.103 NA 
ENDBRANCH  21  23
ENDBRANCH  19  21
ENDBRANCH  13  15
ENDBRANCH   5  13
TORSDOF 5
ENDMDL
MODEL       61
REMARK 921   NORMALIZED FREE ENERGY PREDICTED BY IDOCK:   -6.24 KCAL/MOL
REMARK 922        TOTAL FREE ENERGY PREDICTED BY IDOCK:   -8.85 KCAL/MOL
REMARK 923 INTER-LIGAND FREE ENERGY PREDICTED BY IDOCK:   -8.02 KCAL/MOL
REMARK 924 INTRA-LIGAND FREE ENERGY PREDICTED BY IDOCK:   -0.83 KCAL/MOL
REMARK 927      BINDING AFFINITY PREDICTED BY RF-SCORE:    0.00 PKD
ROOT
HETATM    1  C   UNL     1     -12.997  10.429  71.337  1.00  0.00    -0.545 C  
HETATM    2  C   UNL     1     -11.830  10.521  70.393  1.00  0.00    -0.431 A  
HETATM    3  C   UNL     1     -12.069  11.162  69.159  1.00  0.00    -0.352 A  
HETATM    4  C   UNL     1     -11.083  11.306  68.180  1.00  0.00    -0.319 A  
HETATM    5  C   UNL     1     -10.570   9.930  70.635  1.00  0.00    -0.271 A  
HETATM    6  C   UNL     1      -9.803  10.837  68.474  1.00  0.00    -0.182 A  
HETATM    7  C   UNL     1      -8.104   9.762  69.967  1.00  0.00    -0.203 C  
HETATM    8  C   UNL     1      -9.530  10.174  69.695  1.00  0.00    -0.226 A  
ENDROOT
BRANCH   4   9
HETATM    9  C   UNL     1     -11.488  11.880  66.885  1.00  0.00    -0.390 C  
HETATM   10  C   UNL     1     -12.004  13.099  66.677  1.00  0.00    -0.451 C  
HETATM   11  C   UNL     1     -12.402  13.518  65.374  1.00  0.00    -0.478 C  
HETATM   12  N   UNL     1     -12.731  13.843  64.311  1.00  0.00    -0.649 NA 
ENDBRANCH   4   9
BRANCH   5  13
HETATM   13  N   UNL     1     -10.349   9.033  71.713  1.00  0.00    -0.352 NA 
HETATM   14  H   UNL     1     -10.092   9.481  72.593  1.00  0.00     0.000 HD 
BRANCH  13  15
HETATM   15  C   UNL     1     -10.424   7.623  71.771  1.00  0.00    -0.205 A  
HETATM   16  C   UNL     1     -11.116   7.047  72.816  1.00  0.00    -0.320 A  
HETATM   17  C   UNL     1     -11.175   5.675  72.830  1.00  0.00    -0.299 A  
HETATM   18  N   UNL     1     -10.617   4.899  71.884  1.00  0.00    -0.161 NA 
HETATM   19  C   UNL     1      -9.957   5.531  70.903  1.00  0.00    -0.199 A  
HETATM   20  N   UNL     1      -9.856   6.867  70.826  1.00  0.00    -0.182 NA 
BRANCH  19  21
HETATM   21  N   UNL     1      -9.362   4.710  69.943  1.00  0.00    -0.128 NA 
HETATM   22  H   UNL     1      -8.593   4.138  70.293  1.00  0.00     0.000 HD 
BRANCH  21  23
HETATM   23  C   UNL     1      -9.640   4.537  68.580  1.00  0.00    -0.157 A  
HETATM   24  C   UNL     1     -10.281   5.502  67.797  1.00  0.00    -0.237 A  
HETATM   25  C   UNL     1     -10.505   5.318  66.433  1.00  0.00    -0.347 A  
HETATM   26  C   UNL     1     -10.101   4.132  65.820  1.00  0.00    -0.179 A  
HETATM   27  C   UNL     1     -10.294   3.965  64.412  1.00  0.00    -0.231 C  
HETATM   28  C   UNL     1      -9.510   3.130  66.588  1.00  0.00    -0.080 A  
HETATM   29  C   UNL     1      -9.287   3.328  67.956  1.00  0.00    -0.245 A  
HETATM   30  N   UNL     1     -10.442   3.843  63.266  1.00  0.00    -0.202 NA 
ENDBRANCH  21  23
ENDBRANCH  19  21
ENDBRANCH  13  15
ENDBRANCH   5  13
TORSDOF 5
ENDMDL
MODEL       62
REMARK 921   NORMALIZED FREE ENERGY PREDICTED BY IDOCK:   -6.24 KCAL/MOL
REMARK 922        TOTAL FREE ENERGY PREDICTED BY IDOCK:   -8.84 KCAL/MOL
REMARK 923 INTER-LIGAND FREE ENERGY PREDICTED BY IDOCK:   -8.08 KCAL/MOL
REMARK 924 INTRA-LIGAND FREE ENERGY PREDICTED BY IDOCK:   -0.77 KCAL/MOL
REMARK 927      BINDING AFFINITY PREDICTED BY RF-SCORE:    0.00 PKD
ROOT
HETATM    1  C   UNL     1     -12.149  13.634  66.807  1.00  0.00    -0.445 C  
HETATM    2  C   UNL     1     -11.594  14.648  67.768  1.00  0.00    -0.382 A  
HETATM    3  C   UNL     1     -10.585  15.501  67.269  1.00  0.00    -0.299 A  
HETATM    4  C   UNL     1      -9.969  16.479  68.053  1.00  0.00    -0.245 A  
HETATM    5  C   UNL     1     -11.955  14.725  69.131  1.00  0.00    -0.282 A  
HETATM    6  C   UNL     1     -10.419  16.640  69.363  1.00  0.00    -0.320 A  
HETATM    7  C   UNL     1     -11.900  16.081  71.303  1.00  0.00    -0.502 C  
HETATM    8  C   UNL     1     -11.418  15.794  69.902  1.00  0.00    -0.347 A  
ENDROOT
BRANCH   4   9
HETATM    9  C   UNL     1      -8.844  17.220  67.456  1.00  0.00    -0.219 C  
HETATM   10  C   UNL     1      -8.182  16.902  66.335  1.00  0.00    -0.342 C  
HETATM   11  C   UNL     1      -7.074  17.679  65.889  1.00  0.00    -0.215 C  
HETATM   12  N   UNL     1      -6.167  18.313  65.542  1.00  0.00    -0.251 NA 
ENDBRANCH   4   9
BRANCH   5  13
HETATM   13  N   UNL     1     -12.739  13.725  69.764  1.00  0.00    -0.215 NA 
HETATM   14  H   UNL     1     -13.719  13.975  69.897  1.00  0.00     0.000 HD 
BRANCH  13  15
HETATM   15  C   UNL     1     -12.390  12.441  70.241  1.00  0.00    -0.188 A  
HETATM   16  C   UNL     1     -13.087  11.930  71.315  1.00  0.00    -0.228 A  
HETATM   17  C   UNL     1     -12.724  10.675  71.740  1.00  0.00    -0.383 A  
HETATM   18  N   UNL     1     -11.758   9.945  71.156  1.00  0.00    -0.368 NA 
HETATM   19  C   UNL     1     -11.121  10.511  70.121  1.00  0.00    -0.298 A  
HETATM   20  N   UNL     1     -11.420  11.733  69.652  1.00  0.00    -0.281 NA 
BRANCH  19  21
HETATM   21  N   UNL     1     -10.104   9.750  69.541  1.00  0.00    -0.202 NA 
HETATM   22  H   UNL     1      -9.161  10.094  69.724  1.00  0.00     0.000 HD 
BRANCH  21  23
HETATM   23  C   UNL     1     -10.156   8.594  68.751  1.00  0.00    -0.196 A  
HETATM   24  C   UNL     1     -10.624   7.361  69.220  1.00  0.00    -0.220 A  
HETATM   25  C   UNL     1     -10.705   6.240  68.396  1.00  0.00    -0.356 A  
HETATM   26  C   UNL     1     -10.291   6.327  67.067  1.00  0.00    -0.300 A  
HETATM   27  C   UNL     1     -10.415   5.185  66.214  1.00  0.00    -0.289 C  
HETATM   28  C   UNL     1      -9.769   7.527  66.588  1.00  0.00    -0.273 A  
HETATM   29  C   UNL     1      -9.697   8.648  67.425  1.00  0.00    -0.227 A  
HETATM   30  N   UNL     1     -10.533   4.256  65.524  1.00  0.00    -0.204 NA 
ENDBRANCH  21  23
ENDBRANCH  19  21
ENDBRANCH  13  15
ENDBRANCH   5  13
TORSDOF 5
ENDMDL
MODEL       63
REMARK 921   NORMALIZED FREE ENERGY PREDICTED BY IDOCK:   -6.23 KCAL/MOL
REMARK 922        TOTAL FREE ENERGY PREDICTED BY IDOCK:   -8.84 KCAL/MOL
REMARK 923 INTER-LIGAND FREE ENERGY PREDICTED BY IDOCK:   -8.11 KCAL/MOL
REMARK 924 INTRA-LIGAND FREE ENERGY PREDICTED BY IDOCK:   -0.73 KCAL/MOL
REMARK 927      BINDING AFFINITY PREDICTED BY RF-SCORE:    0.00 PKD
ROOT
HETATM    1  C   UNL     1      -8.919  10.033  69.335  1.00  0.00    -0.205 C  
HETATM    2  C   UNL     1      -9.584   8.688  69.234  1.00  0.00    -0.166 A  
HETATM    3  C   UNL     1      -9.830   8.017  70.452  1.00  0.00    -0.183 A  
HETATM    4  C   UNL     1     -10.427   6.756  70.509  1.00  0.00    -0.238 A  
HETATM    5  C   UNL     1      -9.881   8.042  68.014  1.00  0.00    -0.167 A  
HETATM    6  C   UNL     1     -10.838   6.176  69.310  1.00  0.00    -0.418 A  
HETATM    7  C   UNL     1     -11.134   6.154  66.823  1.00  0.00    -0.230 C  
HETATM    8  C   UNL     1     -10.594   6.812  68.069  1.00  0.00    -0.283 A  
ENDROOT
BRANCH   4   9
HETATM    9  C   UNL     1     -10.515   6.105  71.829  1.00  0.00    -0.259 C  
HETATM   10  C   UNL     1     -10.238   4.824  72.109  1.00  0.00    -0.258 C  
HETATM   11  C   UNL     1     -10.411   4.304  73.425  1.00  0.00    -0.190 C  
HETATM   12  N   UNL     1     -10.565   3.891  74.497  1.00  0.00    -0.202 NA 
ENDBRANCH   4   9
BRANCH   5  13
HETATM   13  N   UNL     1      -9.403   8.524  66.767  1.00  0.00    -0.168 NA 
HETATM   14  H   UNL     1      -8.652   7.969  66.357  1.00  0.00     0.000 HD 
BRANCH  13  15
HETATM   15  C   UNL     1      -9.795   9.643  65.997  1.00  0.00    -0.274 A  
HETATM   16  C   UNL     1      -9.279   9.776  64.726  1.00  0.00    -0.319 A  
HETATM   17  C   UNL     1      -9.694  10.872  64.008  1.00  0.00    -0.301 A  
HETATM   18  N   UNL     1     -10.568  11.778  64.477  1.00  0.00    -0.294 NA 
HETATM   19  C   UNL     1     -11.023  11.584  65.724  1.00  0.00    -0.246 A  
HETATM   20  N   UNL     1     -10.661  10.540  66.484  1.00  0.00    -0.209 NA 
BRANCH  19  21
HETATM   21  N   UNL     1     -11.911  12.548  66.205  1.00  0.00    -0.569 NA 
HETATM   22  H   UNL     1     -12.693  12.751  65.582  1.00  0.00     0.000 HD 
BRANCH  21  23
HETATM   23  C   UNL     1     -11.913  13.284  67.397  1.00  0.00    -0.335 A  
HETATM   24  C   UNL     1     -12.005  12.698  68.664  1.00  0.00    -0.264 A  
HETATM   25  C   UNL     1     -11.960  13.454  69.834  1.00  0.00    -0.408 A  
HETATM   26  C   UNL     1     -11.840  14.842  69.755  1.00  0.00    -0.356 A  
HETATM   27  C   UNL     1     -11.753  15.611  70.959  1.00  0.00    -0.403 C  
HETATM   28  C   UNL     1     -11.803  15.458  68.506  1.00  0.00    -0.293 A  
HETATM   29  C   UNL     1     -11.845  14.686  67.338  1.00  0.00    -0.374 A  
HETATM   30  N   UNL     1     -11.667  16.226  71.942  1.00  0.00    -0.494 NA 
ENDBRANCH  21  23
ENDBRANCH  19  21
ENDBRANCH  13  15
ENDBRANCH   5  13
TORSDOF 5
ENDMDL
MODEL       64
REMARK 921   NORMALIZED FREE ENERGY PREDICTED BY IDOCK:   -6.22 KCAL/MOL
REMARK 922        TOTAL FREE ENERGY PREDICTED BY IDOCK:   -8.82 KCAL/MOL
REMARK 923 INTER-LIGAND FREE ENERGY PREDICTED BY IDOCK:   -7.99 KCAL/MOL
REMARK 924 INTRA-LIGAND FREE ENERGY PREDICTED BY IDOCK:   -0.83 KCAL/MOL
REMARK 927      BINDING AFFINITY PREDICTED BY RF-SCORE:    0.00 PKD
ROOT
HETATM    1  C   UNL     1     -12.561  10.614  71.164  1.00  0.00    -0.526 C  
HETATM    2  C   UNL     1     -11.441   9.625  70.998  1.00  0.00    -0.444 A  
HETATM    3  C   UNL     1     -11.516   8.454  71.783  1.00  0.00    -0.365 A  
HETATM    4  C   UNL     1     -10.539   7.456  71.743  1.00  0.00    -0.228 A  
HETATM    5  C   UNL     1     -10.304   9.847  70.190  1.00  0.00    -0.282 A  
HETATM    6  C   UNL     1      -9.483   7.617  70.847  1.00  0.00    -0.166 A  
HETATM    7  C   UNL     1      -8.235   8.848  69.060  1.00  0.00    -0.116 C  
HETATM    8  C   UNL     1      -9.366   8.785  70.056  1.00  0.00    -0.175 A  
ENDROOT
BRANCH   4   9
HETATM    9  C   UNL     1     -10.664   6.343  72.701  1.00  0.00    -0.262 C  
HETATM   10  C   UNL     1     -10.000   5.180  72.668  1.00  0.00    -0.203 C  
HETATM   11  C   UNL     1     -10.250   4.161  73.632  1.00  0.00    -0.156 C  
HETATM   12  N   UNL     1     -10.470   3.336  74.416  1.00  0.00    -0.187 NA 
ENDBRANCH   4   9
BRANCH   5  13
HETATM   13  N   UNL     1     -10.025  11.110  69.605  1.00  0.00    -0.371 NA 
HETATM   14  H   UNL     1      -9.653  11.805  70.253  1.00  0.00     0.000 HD 
BRANCH  13  15
HETATM   15  C   UNL     1     -10.176  11.566  68.276  1.00  0.00    -0.196 A  
HETATM   16  C   UNL     1     -11.019  10.869  67.436  1.00  0.00    -0.353 A  
HETATM   17  C   UNL     1     -11.145  11.352  66.157  1.00  0.00    -0.198 A  
HETATM   18  N   UNL     1     -10.513  12.452  65.713  1.00  0.00    -0.253 NA 
HETATM   19  C   UNL     1      -9.706  13.074  66.586  1.00  0.00    -0.256 A  
HETATM   20  N   UNL     1      -9.532  12.659  67.850  1.00  0.00    -0.198 NA 
BRANCH  19  21
HETATM   21  N   UNL     1      -9.038  14.200  66.102  1.00  0.00    -0.501 NA 
HETATM   22  H   UNL     1      -8.342  14.002  65.383  1.00  0.00     0.000 HD 
BRANCH  21  23
HETATM   23  C   UNL     1      -9.160  15.556  66.434  1.00  0.00    -0.316 A  
HETATM   24  C   UNL     1      -8.107  16.471  66.332  1.00  0.00    -0.362 A  
HETATM   25  C   UNL     1      -8.271  17.823  66.628  1.00  0.00    -0.287 A  
HETATM   26  C   UNL     1      -9.513  18.290  67.060  1.00  0.00    -0.274 A  
HETATM   27  C   UNL     1      -9.688  19.686  67.323  1.00  0.00    -0.356 C  
HETATM   28  C   UNL     1     -10.565  17.391  67.225  1.00  0.00    -0.284 A  
HETATM   29  C   UNL     1     -10.388  16.035  66.919  1.00  0.00    -0.289 A  
HETATM   30  N   UNL     1      -9.826  20.823  67.520  1.00  0.00    -0.384 NA 
ENDBRANCH  21  23
ENDBRANCH  19  21
ENDBRANCH  13  15
ENDBRANCH   5  13
TORSDOF 5
ENDMDL
MODEL       65
REMARK 921   NORMALIZED FREE ENERGY PREDICTED BY IDOCK:   -6.22 KCAL/MOL
REMARK 922        TOTAL FREE ENERGY PREDICTED BY IDOCK:   -8.82 KCAL/MOL
REMARK 923 INTER-LIGAND FREE ENERGY PREDICTED BY IDOCK:   -8.17 KCAL/MOL
REMARK 924 INTRA-LIGAND FREE ENERGY PREDICTED BY IDOCK:   -0.64 KCAL/MOL
REMARK 927      BINDING AFFINITY PREDICTED BY RF-SCORE:    0.00 PKD
ROOT
HETATM    1  C   UNL     1     -11.127  10.268  67.708  1.00  0.00    -0.335 C  
HETATM    2  C   UNL     1     -11.525  11.343  68.680  1.00  0.00    -0.359 A  
HETATM    3  C   UNL     1     -11.173  12.665  68.333  1.00  0.00    -0.316 A  
HETATM    4  C   UNL     1     -11.465  13.761  69.149  1.00  0.00    -0.346 A  
HETATM    5  C   UNL     1     -12.132  11.092  69.930  1.00  0.00    -0.361 A  
HETATM    6  C   UNL     1     -12.180  13.526  70.322  1.00  0.00    -0.417 A  
HETATM    7  C   UNL     1     -13.372  12.049  71.956  1.00  0.00    -0.447 C  
HETATM    8  C   UNL     1     -12.536  12.212  70.710  1.00  0.00    -0.305 A  
ENDROOT
BRANCH   4   9
HETATM    9  C   UNL     1     -10.935  15.074  68.738  1.00  0.00    -0.259 C  
HETATM   10  C   UNL     1     -11.042  16.226  69.414  1.00  0.00    -0.328 C  
HETATM   11  C   UNL     1     -10.524  17.442  68.881  1.00  0.00    -0.312 C  
HETATM   12  N   UNL     1     -10.108  18.427  68.433  1.00  0.00    -0.376 NA 
ENDBRANCH   4   9
BRANCH   5  13
HETATM   13  N   UNL     1     -12.250   9.782  70.466  1.00  0.00    -0.454 NA 
HETATM   14  H   UNL     1     -13.209   9.466  70.606  1.00  0.00     0.000 HD 
BRANCH  13  15
HETATM   15  C   UNL     1     -11.261   8.843  70.836  1.00  0.00    -0.279 A  
HETATM   16  C   UNL     1     -10.353   9.198  71.811  1.00  0.00    -0.330 A  
HETATM   17  C   UNL     1      -9.415   8.253  72.149  1.00  0.00    -0.258 A  
HETATM   18  N   UNL     1      -9.364   7.029  71.596  1.00  0.00    -0.156 NA 
HETATM   19  C   UNL     1     -10.276   6.758  70.652  1.00  0.00    -0.195 A  
HETATM   20  N   UNL     1     -11.220   7.632  70.269  1.00  0.00    -0.250 NA 
BRANCH  19  21
HETATM   21  N   UNL     1     -10.193   5.491  70.070  1.00  0.00    -0.242 NA 
HETATM   22  H   UNL     1     -10.195   4.719  70.736  1.00  0.00     0.000 HD 
BRANCH  21  23
HETATM   23  C   UNL     1     -10.107   5.099  68.727  1.00  0.00    -0.161 A  
HETATM   24  C   UNL     1      -9.422   3.956  68.301  1.00  0.00    -0.212 A  
HETATM   25  C   UNL     1      -9.391   3.569  66.963  1.00  0.00    -0.221 A  
HETATM   26  C   UNL     1     -10.042   4.344  66.003  1.00  0.00    -0.260 A  
HETATM   27  C   UNL     1     -10.044   3.920  64.637  1.00  0.00    -0.213 C  
HETATM   28  C   UNL     1     -10.686   5.518  66.391  1.00  0.00    -0.262 A  
HETATM   29  C   UNL     1     -10.713   5.895  67.740  1.00  0.00    -0.346 A  
HETATM   30  N   UNL     1     -10.052   3.560  63.532  1.00  0.00    -0.172 NA 
ENDBRANCH  21  23
ENDBRANCH  19  21
ENDBRANCH  13  15
ENDBRANCH   5  13
TORSDOF 5
ENDMDL
MODEL       66
REMARK 921   NORMALIZED FREE ENERGY PREDICTED BY IDOCK:   -6.14 KCAL/MOL
REMARK 922        TOTAL FREE ENERGY PREDICTED BY IDOCK:   -8.72 KCAL/MOL
REMARK 923 INTER-LIGAND FREE ENERGY PREDICTED BY IDOCK:   -7.78 KCAL/MOL
REMARK 924 INTRA-LIGAND FREE ENERGY PREDICTED BY IDOCK:   -0.94 KCAL/MOL
REMARK 927      BINDING AFFINITY PREDICTED BY RF-SCORE:    0.00 PKD
ROOT
HETATM    1  C   UNL     1      -7.164  10.873  66.520  1.00  0.00    -0.142 C  
HETATM    2  C   UNL     1      -8.498  10.370  66.998  1.00  0.00    -0.127 A  
HETATM    3  C   UNL     1      -8.756   8.995  66.806  1.00  0.00    -0.134 A  
HETATM    4  C   UNL     1      -9.958   8.395  67.188  1.00  0.00    -0.304 A  
HETATM    5  C   UNL     1      -9.511  11.199  67.527  1.00  0.00    -0.168 A  
HETATM    6  C   UNL     1     -10.907   9.189  67.829  1.00  0.00    -0.159 A  
HETATM    7  C   UNL     1     -11.734  11.349  68.790  1.00  0.00    -0.404 C  
HETATM    8  C   UNL     1     -10.690  10.575  68.023  1.00  0.00    -0.287 A  
ENDROOT
BRANCH   4   9
HETATM    9  C   UNL     1     -10.158   6.981  66.821  1.00  0.00    -0.270 C  
HETATM   10  C   UNL     1      -9.221   6.129  66.381  1.00  0.00    -0.166 C  
HETATM   11  C   UNL     1      -9.556   4.794  66.013  1.00  0.00    -0.180 C  
HETATM   12  N   UNL     1      -9.843   3.713  65.706  1.00  0.00    -0.094 NA 
ENDBRANCH   4   9
BRANCH   5  13
HETATM   13  N   UNL     1      -9.432  12.616  67.480  1.00  0.00    -0.181 NA 
HETATM   14  H   UNL     1      -8.938  13.039  68.266  1.00  0.00     0.000 HD 
BRANCH  13  15
HETATM   15  C   UNL     1      -9.922  13.538  66.528  1.00  0.00    -0.287 A  
HETATM   16  C   UNL     1     -10.675  13.056  65.478  1.00  0.00    -0.299 A  
HETATM   17  C   UNL     1     -11.141  13.986  64.580  1.00  0.00    -0.382 A  
HETATM   18  N   UNL     1     -10.913  15.306  64.695  1.00  0.00    -0.359 NA 
HETATM   19  C   UNL     1     -10.168  15.698  65.739  1.00  0.00    -0.367 A  
HETATM   20  N   UNL     1      -9.678  14.847  66.653  1.00  0.00    -0.249 NA 
BRANCH  19  21
HETATM   21  N   UNL     1      -9.920  17.069  65.828  1.00  0.00    -0.566 NA 
HETATM   22  H   UNL     1     -10.363  17.628  65.099  1.00  0.00     0.000 HD 
BRANCH  21  23
HETATM   23  C   UNL     1      -9.167  17.809  66.749  1.00  0.00    -0.273 A  
HETATM   24  C   UNL     1      -9.735  18.550  67.791  1.00  0.00    -0.327 A  
HETATM   25  C   UNL     1      -8.957  19.241  68.718  1.00  0.00    -0.399 A  
HETATM   26  C   UNL     1      -7.566  19.221  68.604  1.00  0.00    -0.385 A  
HETATM   27  C   UNL     1      -6.769  19.897  69.582  1.00  0.00    -0.302 C  
HETATM   28  C   UNL     1      -6.974  18.538  67.543  1.00  0.00    -0.206 A  
HETATM   29  C   UNL     1      -7.768  17.844  66.621  1.00  0.00    -0.275 A  
HETATM   30  N   UNL     1      -6.129  20.436  70.388  1.00  0.00    -0.486 NA 
ENDBRANCH  21  23
ENDBRANCH  19  21
ENDBRANCH  13  15
ENDBRANCH   5  13
TORSDOF 5
ENDMDL
MODEL       67
REMARK 921   NORMALIZED FREE ENERGY PREDICTED BY IDOCK:   -6.13 KCAL/MOL
REMARK 922        TOTAL FREE ENERGY PREDICTED BY IDOCK:   -8.71 KCAL/MOL
REMARK 923 INTER-LIGAND FREE ENERGY PREDICTED BY IDOCK:   -7.82 KCAL/MOL
REMARK 924 INTRA-LIGAND FREE ENERGY PREDICTED BY IDOCK:   -0.89 KCAL/MOL
REMARK 927      BINDING AFFINITY PREDICTED BY RF-SCORE:    0.00 PKD
ROOT
HETATM    1  C   UNL     1      -8.161   8.828  63.074  1.00  0.00    -0.175 C  
HETATM    2  C   UNL     1      -8.288   8.761  64.571  1.00  0.00    -0.171 A  
HETATM    3  C   UNL     1      -8.236   7.474  65.149  1.00  0.00    -0.122 A  
HETATM    4  C   UNL     1      -8.355   7.261  66.525  1.00  0.00    -0.121 A  
HETATM    5  C   UNL     1      -8.545   9.881  65.393  1.00  0.00    -0.152 A  
HETATM    6  C   UNL     1      -8.478   8.379  67.347  1.00  0.00    -0.124 A  
HETATM    7  C   UNL     1      -8.610  10.845  67.764  1.00  0.00    -0.128 C  
HETATM    8  C   UNL     1      -8.551   9.684  66.802  1.00  0.00    -0.140 A  
ENDROOT
BRANCH   4   9
HETATM    9  C   UNL     1      -8.412   5.865  66.993  1.00  0.00    -0.107 C  
HETATM   10  C   UNL     1      -9.516   5.144  67.229  1.00  0.00    -0.141 C  
HETATM   11  C   UNL     1      -9.433   3.812  67.729  1.00  0.00    -0.179 C  
HETATM   12  N   UNL     1      -9.353   2.732  68.145  1.00  0.00    -0.206 NA 
ENDBRANCH   4   9
BRANCH   5  13
HETATM   13  N   UNL     1      -8.894  11.149  64.858  1.00  0.00    -0.374 NA 
HETATM   14  H   UNL     1      -8.109  11.685  64.488  1.00  0.00     0.000 HD 
BRANCH  13  15
HETATM   15  C   UNL     1     -10.148  11.793  64.751  1.00  0.00    -0.263 A  
HETATM   16  C   UNL     1     -11.030  11.351  63.788  1.00  0.00    -0.448 A  
HETATM   17  C   UNL     1     -12.241  11.996  63.724  1.00  0.00    -0.498 A  
HETATM   18  N   UNL     1     -12.593  12.996  64.550  1.00  0.00    -0.659 NA 
HETATM   19  C   UNL     1     -11.680  13.374  65.457  1.00  0.00    -0.340 A  
HETATM   20  N   UNL     1     -10.477  12.792  65.576  1.00  0.00    -0.282 NA 
BRANCH  19  21
HETATM   21  N   UNL     1     -12.052  14.431  66.291  1.00  0.00    -0.397 NA 
HETATM   22  H   UNL     1     -12.516  15.204  65.813  1.00  0.00     0.000 HD 
BRANCH  21  23
HETATM   23  C   UNL     1     -11.896  14.613  67.672  1.00  0.00    -0.337 A  
HETATM   24  C   UNL     1     -11.581  15.845  68.255  1.00  0.00    -0.274 A  
HETATM   25  C   UNL     1     -11.476  16.003  69.636  1.00  0.00    -0.326 A  
HETATM   26  C   UNL     1     -11.668  14.904  70.475  1.00  0.00    -0.344 A  
HETATM   27  C   UNL     1     -11.601  15.080  71.893  1.00  0.00    -0.349 C  
HETATM   28  C   UNL     1     -11.928  13.653  69.918  1.00  0.00    -0.415 A  
HETATM   29  C   UNL     1     -12.035  13.508  68.529  1.00  0.00    -0.379 A  
HETATM   30  N   UNL     1     -11.559  15.235  73.045  1.00  0.00    -0.363 NA 
ENDBRANCH  21  23
ENDBRANCH  19  21
ENDBRANCH  13  15
ENDBRANCH   5  13
TORSDOF 5
ENDMDL
MODEL       68
REMARK 921   NORMALIZED FREE ENERGY PREDICTED BY IDOCK:   -6.13 KCAL/MOL
REMARK 922        TOTAL FREE ENERGY PREDICTED BY IDOCK:   -8.70 KCAL/MOL
REMARK 923 INTER-LIGAND FREE ENERGY PREDICTED BY IDOCK:   -7.99 KCAL/MOL
REMARK 924 INTRA-LIGAND FREE ENERGY PREDICTED BY IDOCK:   -0.72 KCAL/MOL
REMARK 927      BINDING AFFINITY PREDICTED BY RF-SCORE:    0.00 PKD
ROOT
HETATM    1  C   UNL     1      -8.773   9.420  68.473  1.00  0.00    -0.128 C  
HETATM    2  C   UNL     1     -10.024  10.197  68.777  1.00  0.00    -0.187 A  
HETATM    3  C   UNL     1     -10.464  11.094  67.780  1.00  0.00    -0.225 A  
HETATM    4  C   UNL     1     -11.601  11.891  67.932  1.00  0.00    -0.393 A  
HETATM    5  C   UNL     1     -10.706  10.144  70.012  1.00  0.00    -0.305 A  
HETATM    6  C   UNL     1     -12.347  11.742  69.099  1.00  0.00     0.000 A  
HETATM    7  C   UNL     1     -12.830  10.707  71.328  1.00  0.00    -0.535 C  
HETATM    8  C   UNL     1     -11.928  10.864  70.128  1.00  0.00    -0.435 A  
ENDROOT
BRANCH   4   9
HETATM    9  C   UNL     1     -11.886  12.878  66.874  1.00  0.00    -0.444 C  
HETATM   10  C   UNL     1     -12.095  12.621  65.576  1.00  0.00    -0.515 C  
HETATM   11  C   UNL     1     -12.313  13.676  64.643  1.00  0.00    -0.371 C  
HETATM   12  N   UNL     1     -12.480  14.543  63.892  1.00  0.00    -0.806 NA 
ENDBRANCH   4   9
BRANCH   5  13
HETATM   13  N   UNL     1     -10.163   9.492  71.151  1.00  0.00    -0.283 NA 
HETATM   14  H   UNL     1      -9.604  10.092  71.757  1.00  0.00     0.000 HD 
BRANCH  13  15
HETATM   15  C   UNL     1     -10.267   8.151  71.585  1.00  0.00    -0.206 A  
HETATM   16  C   UNL     1     -10.787   7.908  72.838  1.00  0.00    -0.451 A  
HETATM   17  C   UNL     1     -10.882   6.591  73.217  1.00  0.00    -0.248 A  
HETATM   18  N   UNL     1     -10.515   5.565  72.430  1.00  0.00    -0.206 NA 
HETATM   19  C   UNL     1     -10.014   5.880  71.227  1.00  0.00    -0.187 A  
HETATM   20  N   UNL     1      -9.890   7.143  70.791  1.00  0.00    -0.179 NA 
BRANCH  19  21
HETATM   21  N   UNL     1      -9.615   4.804  70.432  1.00  0.00    -0.178 NA 
HETATM   22  H   UNL     1      -9.197   4.030  70.948  1.00  0.00     0.000 HD 
BRANCH  21  23
HETATM   23  C   UNL     1      -9.691   4.605  69.047  1.00  0.00    -0.172 A  
HETATM   24  C   UNL     1     -10.309   5.506  68.173  1.00  0.00    -0.236 A  
HETATM   25  C   UNL     1     -10.329   5.302  66.794  1.00  0.00    -0.320 A  
HETATM   26  C   UNL     1      -9.738   4.158  66.256  1.00  0.00    -0.219 A  
HETATM   27  C   UNL     1      -9.725   3.973  64.837  1.00  0.00    -0.193 C  
HETATM   28  C   UNL     1      -9.165   3.216  67.108  1.00  0.00    -0.209 A  
HETATM   29  C   UNL     1      -9.147   3.435  68.491  1.00  0.00    -0.206 A  
HETATM   30  N   UNL     1      -9.706   3.838  63.682  1.00  0.00    -0.149 NA 
ENDBRANCH  21  23
ENDBRANCH  19  21
ENDBRANCH  13  15
ENDBRANCH   5  13
TORSDOF 5
ENDMDL
MODEL       69
REMARK 921   NORMALIZED FREE ENERGY PREDICTED BY IDOCK:   -6.11 KCAL/MOL
REMARK 922        TOTAL FREE ENERGY PREDICTED BY IDOCK:   -8.68 KCAL/MOL
REMARK 923 INTER-LIGAND FREE ENERGY PREDICTED BY IDOCK:   -7.92 KCAL/MOL
REMARK 924 INTRA-LIGAND FREE ENERGY PREDICTED BY IDOCK:   -0.76 KCAL/MOL
REMARK 927      BINDING AFFINITY PREDICTED BY RF-SCORE:    0.00 PKD
ROOT
HETATM    1  C   UNL     1     -14.338   8.499  72.383  1.00  0.00    -0.412 C  
HETATM    2  C   UNL     1     -13.024   9.029  71.879  1.00  0.00    -0.451 A  
HETATM    3  C   UNL     1     -13.087  10.142  71.012  1.00  0.00    -0.458 A  
HETATM    4  C   UNL     1     -11.948  10.728  70.456  1.00  0.00    -0.456 A  
HETATM    5  C   UNL     1     -11.775   8.427  72.145  1.00  0.00    -0.375 A  
HETATM    6  C   UNL     1     -10.706  10.214  70.824  1.00  0.00    -0.163 A  
HETATM    7  C   UNL     1      -9.224   8.639  72.086  1.00  0.00    -0.326 C  
HETATM    8  C   UNL     1     -10.605   9.089  71.678  1.00  0.00    -0.434 A  
ENDROOT
BRANCH   4   9
HETATM    9  C   UNL     1     -12.151  11.803  69.468  1.00  0.00    -0.314 C  
HETATM   10  C   UNL     1     -11.529  11.934  68.288  1.00  0.00    -0.372 C  
HETATM   11  C   UNL     1     -11.782  13.052  67.442  1.00  0.00    -0.374 C  
HETATM   12  N   UNL     1     -11.989  13.972  66.767  1.00  0.00    -0.425 NA 
ENDBRANCH   4   9
BRANCH   5  13
HETATM   13  N   UNL     1     -11.664   7.154  72.763  1.00  0.00    -0.534 NA 
HETATM   14  H   UNL     1     -12.062   7.100  73.700  1.00  0.00     0.000 HD 
BRANCH  13  15
HETATM   15  C   UNL     1     -11.095   5.947  72.296  1.00  0.00    -0.280 A  
HETATM   16  C   UNL     1     -10.866   4.936  73.205  1.00  0.00    -0.348 A  
HETATM   17  C   UNL     1     -10.323   3.777  72.709  1.00  0.00    -0.162 A  
HETATM   18  N   UNL     1     -10.032   3.591  71.409  1.00  0.00    -0.141 NA 
HETATM   19  C   UNL     1     -10.277   4.621  70.586  1.00  0.00    -0.141 A  
HETATM   20  N   UNL     1     -10.804   5.783  71.000  1.00  0.00    -0.261 NA 
BRANCH  19  21
HETATM   21  N   UNL     1      -9.946   4.421  69.245  1.00  0.00    -0.147 NA 
HETATM   22  H   UNL     1      -9.915   3.442  68.958  1.00  0.00     0.000 HD 
BRANCH  21  23
HETATM   23  C   UNL     1      -9.649   5.333  68.224  1.00  0.00    -0.130 A  
HETATM   24  C   UNL     1     -10.620   6.097  67.567  1.00  0.00    -0.344 A  
HETATM   25  C   UNL     1     -10.288   7.029  66.586  1.00  0.00    -0.215 A  
HETATM   26  C   UNL     1      -8.953   7.203  66.220  1.00  0.00    -0.181 A  
HETATM   27  C   UNL     1      -8.613   8.191  65.242  1.00  0.00    -0.106 C  
HETATM   28  C   UNL     1      -7.970   6.416  66.818  1.00  0.00    -0.109 A  
HETATM   29  C   UNL     1      -8.316   5.486  67.806  1.00  0.00    -0.099 A  
HETATM   30  N   UNL     1      -8.344   9.005  64.458  1.00  0.00    -0.167 NA 
ENDBRANCH  21  23
ENDBRANCH  19  21
ENDBRANCH  13  15
ENDBRANCH   5  13
TORSDOF 5
ENDMDL
MODEL       70
REMARK 921   NORMALIZED FREE ENERGY PREDICTED BY IDOCK:   -6.10 KCAL/MOL
REMARK 922        TOTAL FREE ENERGY PREDICTED BY IDOCK:   -8.67 KCAL/MOL
REMARK 923 INTER-LIGAND FREE ENERGY PREDICTED BY IDOCK:   -7.84 KCAL/MOL
REMARK 924 INTRA-LIGAND FREE ENERGY PREDICTED BY IDOCK:   -0.83 KCAL/MOL
REMARK 927      BINDING AFFINITY PREDICTED BY RF-SCORE:    0.00 PKD
ROOT
HETATM    1  C   UNL     1     -11.275  11.488  66.419  1.00  0.00    -0.307 C  
HETATM    2  C   UNL     1     -10.594  10.476  67.298  1.00  0.00    -0.317 A  
HETATM    3  C   UNL     1      -9.570   9.710  66.698  1.00  0.00    -0.241 A  
HETATM    4  C   UNL     1      -8.863   8.725  67.390  1.00  0.00    -0.140 A  
HETATM    5  C   UNL     1     -10.980  10.197  68.627  1.00  0.00    -0.230 A  
HETATM    6  C   UNL     1      -9.157   8.541  68.740  1.00  0.00    -0.143 A  
HETATM    7  C   UNL     1     -10.394   9.072  70.852  1.00  0.00    -0.323 C  
HETATM    8  C   UNL     1     -10.188   9.278  69.371  1.00  0.00    -0.214 A  
ENDROOT
BRANCH   4   9
HETATM    9  C   UNL     1      -7.907   7.908  66.621  1.00  0.00    -0.102 C  
HETATM   10  C   UNL     1      -8.198   6.857  65.842  1.00  0.00    -0.129 C  
HETATM   11  C   UNL     1      -7.169   6.119  65.188  1.00  0.00    -0.070 C  
HETATM   12  N   UNL     1      -6.323   5.521  64.668  1.00  0.00    -0.029 NA 
ENDBRANCH   4   9
BRANCH   5  13
HETATM   13  N   UNL     1     -12.174  10.717  69.194  1.00  0.00    -0.731 NA 
HETATM   14  H   UNL     1     -12.999  10.135  69.052  1.00  0.00     0.000 HD 
BRANCH  13  15
HETATM   15  C   UNL     1     -12.409  11.905  69.922  1.00  0.00    -0.099 A  
HETATM   16  C   UNL     1     -12.840  11.797  71.228  1.00  0.00    -0.409 A  
HETATM   17  C   UNL     1     -13.047  12.975  71.904  1.00  0.00    -0.384 A  
HETATM   18  N   UNL     1     -12.834  14.187  71.364  1.00  0.00    -0.337 NA 
HETATM   19  C   UNL     1     -12.421  14.212  70.088  1.00  0.00    -0.331 A  
HETATM   20  N   UNL     1     -12.200  13.103  69.365  1.00  0.00    -0.206 NA 
BRANCH  19  21
HETATM   21  N   UNL     1     -12.229  15.479  69.534  1.00  0.00    -0.548 NA 
HETATM   22  H   UNL     1     -12.964  16.151  69.752  1.00  0.00     0.000 HD 
BRANCH  21  23
HETATM   23  C   UNL     1     -11.199  15.986  68.731  1.00  0.00    -0.360 A  
HETATM   24  C   UNL     1     -10.831  15.423  67.504  1.00  0.00    -0.305 A  
HETATM   25  C   UNL     1      -9.831  15.976  66.707  1.00  0.00    -0.260 A  
HETATM   26  C   UNL     1      -9.151  17.114  67.141  1.00  0.00    -0.237 A  
HETATM   27  C   UNL     1      -8.154  17.703  66.300  1.00  0.00    -0.246 C  
HETATM   28  C   UNL     1      -9.458  17.664  68.384  1.00  0.00    -0.298 A  
HETATM   29  C   UNL     1     -10.468  17.101  69.175  1.00  0.00    -0.296 A  
HETATM   30  N   UNL     1      -7.356  18.184  65.605  1.00  0.00    -0.548 NA 
ENDBRANCH  21  23
ENDBRANCH  19  21
ENDBRANCH  13  15
ENDBRANCH   5  13
TORSDOF 5
ENDMDL
MODEL       71
REMARK 921   NORMALIZED FREE ENERGY PREDICTED BY IDOCK:   -6.10 KCAL/MOL
REMARK 922        TOTAL FREE ENERGY PREDICTED BY IDOCK:   -8.66 KCAL/MOL
REMARK 923 INTER-LIGAND FREE ENERGY PREDICTED BY IDOCK:   -7.69 KCAL/MOL
REMARK 924 INTRA-LIGAND FREE ENERGY PREDICTED BY IDOCK:   -0.97 KCAL/MOL
REMARK 927      BINDING AFFINITY PREDICTED BY RF-SCORE:    0.00 PKD
ROOT
HETATM    1  C   UNL     1      -7.507   8.851  71.085  1.00  0.00    -0.125 C  
HETATM    2  C   UNL     1      -8.132   8.155  69.908  1.00  0.00    -0.115 A  
HETATM    3  C   UNL     1      -7.394   8.168  68.705  1.00  0.00    -0.088 A  
HETATM    4  C   UNL     1      -7.858   7.575  67.529  1.00  0.00    -0.116 A  
HETATM    5  C   UNL     1      -9.426   7.589  69.921  1.00  0.00    -0.160 A  
HETATM    6  C   UNL     1      -9.078   6.903  67.579  1.00  0.00    -0.118 A  
HETATM    7  C   UNL     1     -11.127   6.071  68.754  1.00  0.00    -0.329 C  
HETATM    8  C   UNL     1      -9.854   6.882  68.763  1.00  0.00    -0.149 A  
ENDROOT
BRANCH   4   9
HETATM    9  C   UNL     1      -7.054   7.765  66.309  1.00  0.00    -0.070 C  
HETATM   10  C   UNL     1      -7.411   8.450  65.214  1.00  0.00    -0.086 C  
HETATM   11  C   UNL     1      -6.556   8.517  64.076  1.00  0.00    -0.075 C  
HETATM   12  N   UNL     1      -5.856   8.556  63.153  1.00  0.00    -0.077 NA 
ENDBRANCH   4   9
BRANCH   5  13
HETATM   13  N   UNL     1     -10.331   7.791  70.997  1.00  0.00    -0.202 NA 
HETATM   14  H   UNL     1     -10.305   7.068  71.715  1.00  0.00     0.000 HD 
BRANCH  13  15
HETATM   15  C   UNL     1     -11.261   8.827  71.238  1.00  0.00    -0.284 A  
HETATM   16  C   UNL     1     -12.325   8.569  72.076  1.00  0.00    -0.423 A  
HETATM   17  C   UNL     1     -13.200   9.606  72.293  1.00  0.00    -0.404 A  
HETATM   18  N   UNL     1     -13.052  10.826  71.751  1.00  0.00    -0.478 NA 
HETATM   19  C   UNL     1     -11.996  11.000  70.942  1.00  0.00    -0.286 A  
HETATM   20  N   UNL     1     -11.102  10.034  70.683  1.00  0.00    -0.319 NA 
BRANCH  19  21
HETATM   21  N   UNL     1     -11.871  12.267  70.368  1.00  0.00    -0.532 NA 
HETATM   22  H   UNL     1     -11.728  13.023  71.037  1.00  0.00     0.000 HD 
BRANCH  21  23
HETATM   23  C   UNL     1     -11.908  12.677  69.029  1.00  0.00    -0.294 A  
HETATM   24  C   UNL     1     -11.883  11.787  67.949  1.00  0.00    -0.289 A  
HETATM   25  C   UNL     1     -11.966  12.224  66.629  1.00  0.00    -0.257 A  
HETATM   26  C   UNL     1     -12.056  13.589  66.356  1.00  0.00    -0.467 A  
HETATM   27  C   UNL     1     -12.183  14.031  65.001  1.00  0.00    -0.433 C  
HETATM   28  C   UNL     1     -12.027  14.502  67.409  1.00  0.00    -0.367 A  
HETATM   29  C   UNL     1     -11.948  14.050  68.733  1.00  0.00    -0.382 A  
HETATM   30  N   UNL     1     -12.300  14.380  63.899  1.00  0.00    -0.762 NA 
ENDBRANCH  21  23
ENDBRANCH  19  21
ENDBRANCH  13  15
ENDBRANCH   5  13
TORSDOF 5
ENDMDL
MODEL       72
REMARK 921   NORMALIZED FREE ENERGY PREDICTED BY IDOCK:   -6.09 KCAL/MOL
REMARK 922        TOTAL FREE ENERGY PREDICTED BY IDOCK:   -8.65 KCAL/MOL
REMARK 923 INTER-LIGAND FREE ENERGY PREDICTED BY IDOCK:   -7.77 KCAL/MOL
REMARK 924 INTRA-LIGAND FREE ENERGY PREDICTED BY IDOCK:   -0.89 KCAL/MOL
REMARK 927      BINDING AFFINITY PREDICTED BY RF-SCORE:    0.00 PKD
ROOT
HETATM    1  C   UNL     1     -11.610  12.693  66.240  1.00  0.00    -0.440 C  
HETATM    2  C   UNL     1     -11.594  13.614  67.428  1.00  0.00    -0.389 A  
HETATM    3  C   UNL     1     -11.015  14.886  67.229  1.00  0.00    -0.323 A  
HETATM    4  C   UNL     1     -10.918  15.837  68.247  1.00  0.00    -0.325 A  
HETATM    5  C   UNL     1     -12.029  13.245  68.720  1.00  0.00    -0.300 A  
HETATM    6  C   UNL     1     -11.466  15.519  69.489  1.00  0.00    -0.341 A  
HETATM    7  C   UNL     1     -12.676  14.007  71.077  1.00  0.00    -0.431 C  
HETATM    8  C   UNL     1     -12.040  14.247  69.730  1.00  0.00    -0.401 A  
ENDROOT
BRANCH   4   9
HETATM    9  C   UNL     1     -10.182  17.079  67.949  1.00  0.00    -0.317 C  
HETATM   10  C   UNL     1     -10.639  18.332  68.080  1.00  0.00    -0.347 C  
HETATM   11  C   UNL     1      -9.838  19.450  67.710  1.00  0.00    -0.347 C  
HETATM   12  N   UNL     1      -9.180  20.352  67.396  1.00  0.00    -0.385 NA 
ENDBRANCH   4   9
BRANCH   5  13
HETATM   13  N   UNL     1     -12.348  11.903  69.057  1.00  0.00    -0.149 NA 
HETATM   14  H   UNL     1     -13.320  11.643  68.888  1.00  0.00     0.000 HD 
BRANCH  13  15
HETATM   15  C   UNL     1     -11.545  10.867  69.586  1.00  0.00    -0.322 A  
HETATM   16  C   UNL     1     -11.714  10.520  70.909  1.00  0.00    -0.431 A  
HETATM   17  C   UNL     1     -10.922   9.501  71.381  1.00  0.00    -0.345 A  
HETATM   18  N   UNL     1     -10.032   8.840  70.620  1.00  0.00    -0.187 NA 
HETATM   19  C   UNL     1      -9.921   9.238  69.344  1.00  0.00    -0.181 A  
HETATM   20  N   UNL     1     -10.659  10.226  68.815  1.00  0.00    -0.197 NA 
BRANCH  19  21
HETATM   21  N   UNL     1      -8.975   8.558  68.575  1.00  0.00    -0.139 NA 
HETATM   22  H   UNL     1      -8.027   8.929  68.646  1.00  0.00     0.000 HD 
BRANCH  21  23
HETATM   23  C   UNL     1      -9.104   7.455  67.721  1.00  0.00    -0.129 A  
HETATM   24  C   UNL     1      -8.019   6.845  67.081  1.00  0.00    -0.113 A  
HETATM   25  C   UNL     1      -8.175   5.721  66.272  1.00  0.00    -0.109 A  
HETATM   26  C   UNL     1      -9.447   5.187  66.068  1.00  0.00    -0.170 A  
HETATM   27  C   UNL     1      -9.597   4.008  65.271  1.00  0.00    -0.185 C  
HETATM   28  C   UNL     1     -10.553   5.806  66.648  1.00  0.00    -0.347 A  
HETATM   29  C   UNL     1     -10.383   6.933  67.462  1.00  0.00    -0.277 A  
HETATM   30  N   UNL     1      -9.708   3.042  64.634  1.00  0.00    -0.138 NA 
ENDBRANCH  21  23
ENDBRANCH  19  21
ENDBRANCH  13  15
ENDBRANCH   5  13
TORSDOF 5
ENDMDL
MODEL       73
REMARK 921   NORMALIZED FREE ENERGY PREDICTED BY IDOCK:   -6.08 KCAL/MOL
REMARK 922        TOTAL FREE ENERGY PREDICTED BY IDOCK:   -8.64 KCAL/MOL
REMARK 923 INTER-LIGAND FREE ENERGY PREDICTED BY IDOCK:   -7.73 KCAL/MOL
REMARK 924 INTRA-LIGAND FREE ENERGY PREDICTED BY IDOCK:   -0.90 KCAL/MOL
REMARK 927      BINDING AFFINITY PREDICTED BY RF-SCORE:    0.00 PKD
ROOT
HETATM    1  C   UNL     1     -11.668  13.124  65.810  1.00  0.00    -0.415 C  
HETATM    2  C   UNL     1     -11.590  13.974  67.047  1.00  0.00    -0.394 A  
HETATM    3  C   UNL     1     -11.047  15.267  66.888  1.00  0.00    -0.288 A  
HETATM    4  C   UNL     1     -10.900  16.159  67.953  1.00  0.00    -0.332 A  
HETATM    5  C   UNL     1     -11.935  13.521  68.340  1.00  0.00    -0.343 A  
HETATM    6  C   UNL     1     -11.362  15.757  69.206  1.00  0.00    -0.350 A  
HETATM    7  C   UNL     1     -12.442  14.131  70.775  1.00  0.00    -0.436 C  
HETATM    8  C   UNL     1     -11.898  14.462  69.407  1.00  0.00    -0.369 A  
ENDROOT
BRANCH   4   9
HETATM    9  C   UNL     1     -10.204  17.430  67.684  1.00  0.00    -0.342 C  
HETATM   10  C   UNL     1     -10.774  18.625  67.475  1.00  0.00    -0.447 C  
HETATM   11  C   UNL     1      -9.986  19.774  67.175  1.00  0.00    -0.409 C  
HETATM   12  N   UNL     1      -9.334  20.699  66.923  1.00  0.00    -0.288 NA 
ENDBRANCH   4   9
BRANCH   5  13
HETATM   13  N   UNL     1     -12.211  12.155  68.616  1.00  0.00    -0.210 NA 
HETATM   14  H   UNL     1     -13.192  11.893  68.521  1.00  0.00     0.000 HD 
BRANCH  13  15
HETATM   15  C   UNL     1     -11.353  11.099  68.999  1.00  0.00    -0.276 A  
HETATM   16  C   UNL     1      -9.994  11.268  68.839  1.00  0.00    -0.169 A  
HETATM   17  C   UNL     1      -9.196  10.223  69.233  1.00  0.00    -0.202 A  
HETATM   18  N   UNL     1      -9.673   9.086  69.768  1.00  0.00    -0.170 NA 
HETATM   19  C   UNL     1     -11.006   8.992  69.887  1.00  0.00    -0.193 A  
HETATM   20  N   UNL     1     -11.847   9.971  69.522  1.00  0.00    -0.002 NA 
BRANCH  19  21
HETATM   21  N   UNL     1     -11.487   7.795  70.422  1.00  0.00    -0.428 NA 
HETATM   22  H   UNL     1     -12.438   7.558  70.140  1.00  0.00     0.000 HD 
BRANCH  21  23
HETATM   23  C   UNL     1     -10.887   6.863  71.279  1.00  0.00    -0.234 A  
HETATM   24  C   UNL     1     -10.597   7.128  72.622  1.00  0.00    -0.290 A  
HETATM   25  C   UNL     1     -10.039   6.165  73.461  1.00  0.00    -0.218 A  
HETATM   26  C   UNL     1      -9.736   4.900  72.957  1.00  0.00    -0.166 A  
HETATM   27  C   UNL     1      -9.203   3.902  73.832  1.00  0.00    -0.092 C  
HETATM   28  C   UNL     1      -9.962   4.627  71.609  1.00  0.00    -0.262 A  
HETATM   29  C   UNL     1     -10.527   5.602  70.777  1.00  0.00    -0.335 A  
HETATM   30  N   UNL     1      -8.784   3.092  74.554  1.00  0.00    -0.075 NA 
ENDBRANCH  21  23
ENDBRANCH  19  21
ENDBRANCH  13  15
ENDBRANCH   5  13
TORSDOF 5
ENDMDL
MODEL       74
REMARK 921   NORMALIZED FREE ENERGY PREDICTED BY IDOCK:   -6.07 KCAL/MOL
REMARK 922        TOTAL FREE ENERGY PREDICTED BY IDOCK:   -8.62 KCAL/MOL
REMARK 923 INTER-LIGAND FREE ENERGY PREDICTED BY IDOCK:   -8.29 KCAL/MOL
REMARK 924 INTRA-LIGAND FREE ENERGY PREDICTED BY IDOCK:   -0.33 KCAL/MOL
REMARK 927      BINDING AFFINITY PREDICTED BY RF-SCORE:    0.00 PKD
ROOT
HETATM    1  C   UNL     1     -11.875  11.881  63.895  1.00  0.00    -0.509 C  
HETATM    2  C   UNL     1     -11.008  12.371  65.021  1.00  0.00    -0.336 A  
HETATM    3  C   UNL     1     -11.202  13.709  65.427  1.00  0.00    -0.306 A  
HETATM    4  C   UNL     1     -10.457  14.301  66.450  1.00  0.00    -0.282 A  
HETATM    5  C   UNL     1      -9.974  11.611  65.610  1.00  0.00    -0.240 A  
HETATM    6  C   UNL     1      -9.526  13.509  67.118  1.00  0.00    -0.244 A  
HETATM    7  C   UNL     1      -8.320  11.356  67.548  1.00  0.00    -0.137 C  
HETATM    8  C   UNL     1      -9.292  12.168  66.728  1.00  0.00    -0.212 A  
ENDROOT
BRANCH   4   9
HETATM    9  C   UNL     1     -10.666  15.739  66.697  1.00  0.00    -0.287 C  
HETATM   10  C   UNL     1     -10.039  16.755  66.086  1.00  0.00    -0.360 C  
HETATM   11  C   UNL     1     -10.299  18.107  66.454  1.00  0.00    -0.394 C  
HETATM   12  N   UNL     1     -10.512  19.203  66.768  1.00  0.00    -0.408 NA 
ENDBRANCH   4   9
BRANCH   5  13
HETATM   13  N   UNL     1      -9.534  10.376  65.062  1.00  0.00    -0.228 NA 
HETATM   14  H   UNL     1      -9.216  10.431  64.094  1.00  0.00     0.000 HD 
BRANCH  13  15
HETATM   15  C   UNL     1      -9.465   9.085  65.632  1.00  0.00    -0.203 A  
HETATM   16  C   UNL     1      -8.397   8.279  65.298  1.00  0.00    -0.175 A  
HETATM   17  C   UNL     1      -8.361   7.036  65.882  1.00  0.00    -0.141 A  
HETATM   18  N   UNL     1      -9.288   6.599  66.752  1.00  0.00    -0.153 NA 
HETATM   19  C   UNL     1     -10.299   7.437  67.024  1.00  0.00    -0.314 A  
HETATM   20  N   UNL     1     -10.401   8.664  66.490  1.00  0.00    -0.246 NA 
BRANCH  19  21
HETATM   21  N   UNL     1     -11.266   6.958  67.910  1.00  0.00    -0.558 NA 
HETATM   22  H   UNL     1     -12.217   6.963  67.541  1.00  0.00     0.000 HD 
BRANCH  21  23
HETATM   23  C   UNL     1     -11.154   6.471  69.219  1.00  0.00    -0.334 A  
HETATM   24  C   UNL     1     -10.217   5.506  69.604  1.00  0.00    -0.336 A  
HETATM   25  C   UNL     1     -10.101   5.074  70.924  1.00  0.00    -0.302 A  
HETATM   26  C   UNL     1     -10.951   5.595  71.900  1.00  0.00    -0.297 A  
HETATM   27  C   UNL     1     -10.800   5.180  73.261  1.00  0.00    -0.295 C  
HETATM   28  C   UNL     1     -11.930   6.516  71.534  1.00  0.00    -0.383 A  
HETATM   29  C   UNL     1     -12.034   6.946  70.205  1.00  0.00    -0.257 A  
HETATM   30  N   UNL     1     -10.661   4.848  74.366  1.00  0.00    -0.354 NA 
ENDBRANCH  21  23
ENDBRANCH  19  21
ENDBRANCH  13  15
ENDBRANCH   5  13
TORSDOF 5
ENDMDL
MODEL       75
REMARK 921   NORMALIZED FREE ENERGY PREDICTED BY IDOCK:   -6.06 KCAL/MOL
REMARK 922        TOTAL FREE ENERGY PREDICTED BY IDOCK:   -8.62 KCAL/MOL
REMARK 923 INTER-LIGAND FREE ENERGY PREDICTED BY IDOCK:   -7.94 KCAL/MOL
REMARK 924 INTRA-LIGAND FREE ENERGY PREDICTED BY IDOCK:   -0.68 KCAL/MOL
REMARK 927      BINDING AFFINITY PREDICTED BY RF-SCORE:    0.00 PKD
ROOT
HETATM    1  C   UNL     1     -11.252  10.732  70.166  1.00  0.00    -0.345 C  
HETATM    2  C   UNL     1     -10.887   9.397  69.577  1.00  0.00    -0.231 A  
HETATM    3  C   UNL     1     -11.081   8.271  70.406  1.00  0.00    -0.238 A  
HETATM    4  C   UNL     1     -10.772   6.972  69.996  1.00  0.00    -0.267 A  
HETATM    5  C   UNL     1     -10.290   9.230  68.309  1.00  0.00    -0.217 A  
HETATM    6  C   UNL     1     -10.304   6.795  68.695  1.00  0.00    -0.202 A  
HETATM    7  C   UNL     1      -9.644   7.620  66.425  1.00  0.00    -0.223 C  
HETATM    8  C   UNL     1     -10.082   7.902  67.841  1.00  0.00    -0.240 A  
ENDROOT
BRANCH   4   9
HETATM    9  C   UNL     1     -10.900   5.895  70.995  1.00  0.00    -0.339 C  
HETATM   10  C   UNL     1      -9.968   4.988  71.318  1.00  0.00    -0.264 C  
HETATM   11  C   UNL     1     -10.236   3.964  72.272  1.00  0.00    -0.146 C  
HETATM   12  N   UNL     1     -10.470   3.130  73.042  1.00  0.00    -0.160 NA 
ENDBRANCH   4   9
BRANCH   5  13
HETATM   13  N   UNL     1      -9.805  10.327  67.549  1.00  0.00    -0.169 NA 
HETATM   14  H   UNL     1      -8.792  10.349  67.434  1.00  0.00     0.000 HD 
BRANCH  13  15
HETATM   15  C   UNL     1     -10.491  11.394  66.925  1.00  0.00    -0.240 A  
HETATM   16  C   UNL     1     -10.959  11.208  65.642  1.00  0.00    -0.149 A  
HETATM   17  C   UNL     1     -11.630  12.265  65.076  1.00  0.00    -0.343 A  
HETATM   18  N   UNL     1     -11.853  13.428  65.712  1.00  0.00    -0.357 NA 
HETATM   19  C   UNL     1     -11.363  13.536  66.956  1.00  0.00    -0.324 A  
HETATM   20  N   UNL     1     -10.697  12.547  67.571  1.00  0.00    -0.222 NA 
BRANCH  19  21
HETATM   21  N   UNL     1     -11.582  14.758  67.593  1.00  0.00    -0.347 NA 
HETATM   22  H   UNL     1     -11.555  15.569  66.974  1.00  0.00     0.000 HD 
BRANCH  21  23
HETATM   23  C   UNL     1     -11.833  15.063  68.938  1.00  0.00    -0.307 A  
HETATM   24  C   UNL     1     -12.580  14.239  69.788  1.00  0.00    -0.152 A  
HETATM   25  C   UNL     1     -12.775  14.549  71.132  1.00  0.00    -0.408 A  
HETATM   26  C   UNL     1     -12.233  15.722  71.658  1.00  0.00    -0.523 A  
HETATM   27  C   UNL     1     -12.401  16.014  73.049  1.00  0.00    -0.520 C  
HETATM   28  C   UNL     1     -11.533  16.589  70.821  1.00  0.00    -0.045 A  
HETATM   29  C   UNL     1     -11.339  16.265  69.472  1.00  0.00    -0.276 A  
HETATM   30  N   UNL     1     -12.529  16.237  74.182  1.00  0.00    -0.686 NA 
ENDBRANCH  21  23
ENDBRANCH  19  21
ENDBRANCH  13  15
ENDBRANCH   5  13
TORSDOF 5
ENDMDL
MODEL       76
REMARK 921   NORMALIZED FREE ENERGY PREDICTED BY IDOCK:   -6.06 KCAL/MOL
REMARK 922        TOTAL FREE ENERGY PREDICTED BY IDOCK:   -8.61 KCAL/MOL
REMARK 923 INTER-LIGAND FREE ENERGY PREDICTED BY IDOCK:   -7.90 KCAL/MOL
REMARK 924 INTRA-LIGAND FREE ENERGY PREDICTED BY IDOCK:   -0.71 KCAL/MOL
REMARK 927      BINDING AFFINITY PREDICTED BY RF-SCORE:    0.00 PKD
ROOT
HETATM    1  C   UNL     1      -8.639   9.911  70.436  1.00  0.00     0.035 C  
HETATM    2  C   UNL     1      -9.183   9.216  69.218  1.00  0.00    -0.146 A  
HETATM    3  C   UNL     1      -8.814   9.759  67.968  1.00  0.00    -0.119 A  
HETATM    4  C   UNL     1      -9.256   9.226  66.755  1.00  0.00    -0.185 A  
HETATM    5  C   UNL     1     -10.093   8.137  69.264  1.00  0.00    -0.202 A  
HETATM    6  C   UNL     1     -10.050   8.081  66.799  1.00  0.00    -0.357 A  
HETATM    7  C   UNL     1     -11.250   6.237  67.995  1.00  0.00    -0.223 C  
HETATM    8  C   UNL     1     -10.453   7.518  68.034  1.00  0.00    -0.253 A  
ENDROOT
BRANCH   4   9
HETATM    9  C   UNL     1      -8.906   9.957  65.524  1.00  0.00    -0.186 C  
HETATM   10  C   UNL     1      -8.458   9.425  64.378  1.00  0.00    -0.196 C  
HETATM   11  C   UNL     1      -8.107  10.251  63.271  1.00  0.00    -0.157 C  
HETATM   12  N   UNL     1      -7.815  10.934  62.380  1.00  0.00    -0.153 NA 
ENDBRANCH   4   9
BRANCH   5  13
HETATM   13  N   UNL     1     -10.725   7.731  70.468  1.00  0.00    -0.232 NA 
HETATM   14  H   UNL     1     -10.263   6.961  70.952  1.00  0.00     0.000 HD 
BRANCH  13  15
HETATM   15  C   UNL     1     -11.888   8.214  71.109  1.00  0.00    -0.279 A  
HETATM   16  C   UNL     1     -12.819   7.299  71.554  1.00  0.00    -0.430 A  
HETATM   17  C   UNL     1     -13.929   7.810  72.181  1.00  0.00    -0.136 A  
HETATM   18  N   UNL     1     -14.126   9.123  72.387  1.00  0.00    -0.443 NA 
HETATM   19  C   UNL     1     -13.180   9.952  71.922  1.00  0.00    -0.458 A  
HETATM   20  N   UNL     1     -12.071   9.526  71.298  1.00  0.00    -0.336 NA 
BRANCH  19  21
HETATM   21  N   UNL     1     -13.412  11.314  72.122  1.00  0.00    -0.528 NA 
HETATM   22  H   UNL     1     -13.966  11.532  72.950  1.00  0.00     0.000 HD 
BRANCH  21  23
HETATM   23  C   UNL     1     -13.013  12.434  71.380  1.00  0.00    -0.250 A  
HETATM   24  C   UNL     1     -13.392  13.743  71.699  1.00  0.00    -0.430 A  
HETATM   25  C   UNL     1     -12.943  14.841  70.967  1.00  0.00    -0.423 A  
HETATM   26  C   UNL     1     -12.107  14.644  69.867  1.00  0.00    -0.385 A  
HETATM   27  C   UNL     1     -11.615  15.777  69.144  1.00  0.00    -0.392 C  
HETATM   28  C   UNL     1     -11.760  13.347  69.493  1.00  0.00    -0.385 A  
HETATM   29  C   UNL     1     -12.213  12.252  70.240  1.00  0.00    -0.342 A  
HETATM   30  N   UNL     1     -11.209  16.703  68.571  1.00  0.00    -0.309 NA 
ENDBRANCH  21  23
ENDBRANCH  19  21
ENDBRANCH  13  15
ENDBRANCH   5  13
TORSDOF 5
ENDMDL
MODEL       77
REMARK 921   NORMALIZED FREE ENERGY PREDICTED BY IDOCK:   -6.05 KCAL/MOL
REMARK 922        TOTAL FREE ENERGY PREDICTED BY IDOCK:   -8.60 KCAL/MOL
REMARK 923 INTER-LIGAND FREE ENERGY PREDICTED BY IDOCK:   -7.66 KCAL/MOL
REMARK 924 INTRA-LIGAND FREE ENERGY PREDICTED BY IDOCK:   -0.93 KCAL/MOL
REMARK 927      BINDING AFFINITY PREDICTED BY RF-SCORE:    0.00 PKD
ROOT
HETATM    1  C   UNL     1     -11.721  13.266  69.063  1.00  0.00    -0.368 C  
HETATM    2  C   UNL     1     -10.457  13.760  68.416  1.00  0.00    -0.256 A  
HETATM    3  C   UNL     1     -10.521  15.028  67.799  1.00  0.00    -0.249 A  
HETATM    4  C   UNL     1      -9.428  15.605  67.148  1.00  0.00    -0.226 A  
HETATM    5  C   UNL     1      -9.271  13.000  68.317  1.00  0.00    -0.191 A  
HETATM    6  C   UNL     1      -8.220  14.909  67.164  1.00  0.00    -0.244 A  
HETATM    7  C   UNL     1      -6.764  12.973  67.798  1.00  0.00    -0.143 C  
HETATM    8  C   UNL     1      -8.122  13.628  67.759  1.00  0.00    -0.173 A  
ENDROOT
BRANCH   4   9
HETATM    9  C   UNL     1      -9.654  16.875  66.435  1.00  0.00    -0.305 C  
HETATM   10  C   UNL     1     -10.172  17.999  66.948  1.00  0.00    -0.366 C  
HETATM   11  C   UNL     1     -10.385  19.150  66.134  1.00  0.00    -0.484 C  
HETATM   12  N   UNL     1     -10.563  20.076  65.460  1.00  0.00    -0.344 NA 
ENDBRANCH   4   9
BRANCH   5  13
HETATM   13  N   UNL     1      -9.225  11.621  68.655  1.00  0.00    -0.338 NA 
HETATM   14  H   UNL     1      -8.874  11.425  69.592  1.00  0.00     0.000 HD 
BRANCH  13  15
HETATM   15  C   UNL     1      -9.584  10.475  67.910  1.00  0.00    -0.150 A  
HETATM   16  C   UNL     1      -9.231  10.423  66.578  1.00  0.00    -0.184 A  
HETATM   17  C   UNL     1      -9.589   9.287  65.893  1.00  0.00    -0.275 A  
HETATM   18  N   UNL     1     -10.233   8.252  66.459  1.00  0.00    -0.262 NA 
HETATM   19  C   UNL     1     -10.548   8.378  67.757  1.00  0.00    -0.171 A  
HETATM   20  N   UNL     1     -10.233   9.458  68.488  1.00  0.00    -0.192 NA 
BRANCH  19  21
HETATM   21  N   UNL     1     -11.239   7.305  68.322  1.00  0.00    -0.439 NA 
HETATM   22  H   UNL     1     -12.029   6.973  67.770  1.00  0.00     0.000 HD 
BRANCH  21  23
HETATM   23  C   UNL     1     -11.033   6.606  69.519  1.00  0.00    -0.313 A  
HETATM   24  C   UNL     1     -10.104   5.568  69.654  1.00  0.00    -0.309 A  
HETATM   25  C   UNL     1      -9.891   4.921  70.870  1.00  0.00    -0.277 A  
HETATM   26  C   UNL     1     -10.632   5.294  71.992  1.00  0.00    -0.279 A  
HETATM   27  C   UNL     1     -10.381   4.656  73.247  1.00  0.00    -0.181 C  
HETATM   28  C   UNL     1     -11.603   6.287  71.873  1.00  0.00    -0.369 A  
HETATM   29  C   UNL     1     -11.805   6.933  70.646  1.00  0.00    -0.418 A  
HETATM   30  N   UNL     1     -10.159   4.143  74.267  1.00  0.00    -0.158 NA 
ENDBRANCH  21  23
ENDBRANCH  19  21
ENDBRANCH  13  15
ENDBRANCH   5  13
TORSDOF 5
ENDMDL
MODEL       78
REMARK 921   NORMALIZED FREE ENERGY PREDICTED BY IDOCK:   -6.05 KCAL/MOL
REMARK 922        TOTAL FREE ENERGY PREDICTED BY IDOCK:   -8.60 KCAL/MOL
REMARK 923 INTER-LIGAND FREE ENERGY PREDICTED BY IDOCK:   -7.71 KCAL/MOL
REMARK 924 INTRA-LIGAND FREE ENERGY PREDICTED BY IDOCK:   -0.89 KCAL/MOL
REMARK 927      BINDING AFFINITY PREDICTED BY RF-SCORE:    0.00 PKD
ROOT
HETATM    1  C   UNL     1      -8.912  12.747  67.873  1.00  0.00    -0.186 C  
HETATM    2  C   UNL     1      -9.724  13.578  66.919  1.00  0.00    -0.261 A  
HETATM    3  C   UNL     1      -9.689  14.976  67.117  1.00  0.00    -0.228 A  
HETATM    4  C   UNL     1     -10.406  15.868  66.316  1.00  0.00    -0.324 A  
HETATM    5  C   UNL     1     -10.569  13.040  65.924  1.00  0.00    -0.275 A  
HETATM    6  C   UNL     1     -11.138  15.343  65.252  1.00  0.00    -0.367 A  
HETATM    7  C   UNL     1     -11.962  13.464  63.817  1.00  0.00    -0.517 C  
HETATM    8  C   UNL     1     -11.209  13.947  65.032  1.00  0.00    -0.342 A  
ENDROOT
BRANCH   4   9
HETATM    9  C   UNL     1     -10.388  17.291  66.701  1.00  0.00    -0.305 C  
HETATM   10  C   UNL     1      -9.509  18.218  66.297  1.00  0.00    -0.237 C  
HETATM   11  C   UNL     1      -9.574  19.556  66.784  1.00  0.00    -0.357 C  
HETATM   12  N   UNL     1      -9.632  20.639  67.194  1.00  0.00    -0.430 NA 
ENDBRANCH   4   9
BRANCH   5  13
HETATM   13  N   UNL     1     -10.875  11.655  65.858  1.00  0.00    -0.286 NA 
HETATM   14  H   UNL     1     -11.822  11.414  66.150  1.00  0.00     0.000 HD 
BRANCH  13  15
HETATM   15  C   UNL     1     -10.086  10.554  65.454  1.00  0.00    -0.291 A  
HETATM   16  C   UNL     1      -9.442  10.621  64.236  1.00  0.00    -0.321 A  
HETATM   17  C   UNL     1      -8.678   9.535  63.886  1.00  0.00    -0.216 A  
HETATM   18  N   UNL     1      -8.525   8.453  64.669  1.00  0.00    -0.123 NA 
HETATM   19  C   UNL     1      -9.187   8.457  65.835  1.00  0.00    -0.155 A  
HETATM   20  N   UNL     1      -9.953   9.481  66.242  1.00  0.00    -0.268 NA 
BRANCH  19  21
HETATM   21  N   UNL     1      -9.037   7.315  66.624  1.00  0.00    -0.148 NA 
HETATM   22  H   UNL     1      -8.436   6.597  66.220  1.00  0.00     0.000 HD 
BRANCH  21  23
HETATM   23  C   UNL     1      -9.572   6.986  67.877  1.00  0.00    -0.123 A  
HETATM   24  C   UNL     1     -10.902   6.592  68.067  1.00  0.00    -0.372 A  
HETATM   25  C   UNL     1     -11.393   6.228  69.319  1.00  0.00    -0.411 A  
HETATM   26  C   UNL     1     -10.551   6.272  70.432  1.00  0.00    -0.309 A  
HETATM   27  C   UNL     1     -11.048   5.858  71.708  1.00  0.00    -0.265 C  
HETATM   28  C   UNL     1      -9.238   6.714  70.281  1.00  0.00    -0.156 A  
HETATM   29  C   UNL     1      -8.755   7.073  69.016  1.00  0.00    -0.128 A  
HETATM   30  N   UNL     1     -11.456   5.505  72.738  1.00  0.00    -0.308 NA 
ENDBRANCH  21  23
ENDBRANCH  19  21
ENDBRANCH  13  15
ENDBRANCH   5  13
TORSDOF 5
ENDMDL
MODEL       79
REMARK 921   NORMALIZED FREE ENERGY PREDICTED BY IDOCK:   -6.02 KCAL/MOL
REMARK 922        TOTAL FREE ENERGY PREDICTED BY IDOCK:   -8.56 KCAL/MOL
REMARK 923 INTER-LIGAND FREE ENERGY PREDICTED BY IDOCK:   -7.66 KCAL/MOL
REMARK 924 INTRA-LIGAND FREE ENERGY PREDICTED BY IDOCK:   -0.89 KCAL/MOL
REMARK 927      BINDING AFFINITY PREDICTED BY RF-SCORE:    0.00 PKD
ROOT
HETATM    1  C   UNL     1     -10.984  15.746  65.796  1.00  0.00    -0.216 C  
HETATM    2  C   UNL     1      -9.605  15.863  66.384  1.00  0.00    -0.313 A  
HETATM    3  C   UNL     1      -8.800  16.914  65.893  1.00  0.00    -0.067 A  
HETATM    4  C   UNL     1      -7.494  17.133  66.337  1.00  0.00    -0.341 A  
HETATM    5  C   UNL     1      -9.058  14.943  67.305  1.00  0.00    -0.201 A  
HETATM    6  C   UNL     1      -7.002  16.303  67.343  1.00  0.00    -0.206 A  
HETATM    7  C   UNL     1      -7.196  14.422  68.985  1.00  0.00    -0.129 C  
HETATM    8  C   UNL     1      -7.773  15.228  67.847  1.00  0.00    -0.147 A  
ENDROOT
BRANCH   4   9
HETATM    9  C   UNL     1      -6.713  18.183  65.659  1.00  0.00    -0.265 C  
HETATM   10  C   UNL     1      -7.034  19.481  65.560  1.00  0.00    -0.299 C  
HETATM   11  C   UNL     1      -6.212  20.388  64.831  1.00  0.00    -0.277 C  
HETATM   12  N   UNL     1      -5.540  21.115  64.227  1.00  0.00    -0.224 NA 
ENDBRANCH   4   9
BRANCH   5  13
HETATM   13  N   UNL     1      -9.697  13.714  67.618  1.00  0.00    -0.222 NA 
HETATM   14  H   UNL     1      -9.455  12.940  66.999  1.00  0.00     0.000 HD 
BRANCH  13  15
HETATM   15  C   UNL     1     -10.610  13.383  68.644  1.00  0.00    -0.241 A  
HETATM   16  C   UNL     1     -11.074  14.394  69.459  1.00  0.00    -0.267 A  
HETATM   17  C   UNL     1     -11.969  14.032  70.436  1.00  0.00    -0.328 A  
HETATM   18  N   UNL     1     -12.408  12.774  70.610  1.00  0.00    -0.345 NA 
HETATM   19  C   UNL     1     -11.908  11.844  69.783  1.00  0.00    -0.340 A  
HETATM   20  N   UNL     1     -11.030  12.123  68.808  1.00  0.00    -0.224 NA 
BRANCH  19  21
HETATM   21  N   UNL     1     -12.355  10.538  69.994  1.00  0.00    -0.481 NA 
HETATM   22  H   UNL     1     -13.130  10.254  69.394  1.00  0.00     0.000 HD 
BRANCH  21  23
HETATM   23  C   UNL     1     -11.921   9.550  70.888  1.00  0.00    -0.295 A  
HETATM   24  C   UNL     1     -12.776   8.599  71.458  1.00  0.00    -0.351 A  
HETATM   25  C   UNL     1     -12.307   7.601  72.310  1.00  0.00    -0.227 A  
HETATM   26  C   UNL     1     -10.950   7.547  72.631  1.00  0.00    -0.385 A  
HETATM   27  C   UNL     1     -10.466   6.496  73.472  1.00  0.00    -0.297 C  
HETATM   28  C   UNL     1     -10.085   8.514  72.122  1.00  0.00    -0.393 A  
HETATM   29  C   UNL     1     -10.568   9.510  71.263  1.00  0.00    -0.358 A  
HETATM   30  N   UNL     1     -10.079   5.630  74.145  1.00  0.00    -0.224 NA 
ENDBRANCH  21  23
ENDBRANCH  19  21
ENDBRANCH  13  15
ENDBRANCH   5  13
TORSDOF 5
ENDMDL
MODEL       80
REMARK 921   NORMALIZED FREE ENERGY PREDICTED BY IDOCK:   -5.98 KCAL/MOL
REMARK 922        TOTAL FREE ENERGY PREDICTED BY IDOCK:   -8.50 KCAL/MOL
REMARK 923 INTER-LIGAND FREE ENERGY PREDICTED BY IDOCK:   -7.94 KCAL/MOL
REMARK 924 INTRA-LIGAND FREE ENERGY PREDICTED BY IDOCK:   -0.56 KCAL/MOL
REMARK 927      BINDING AFFINITY PREDICTED BY RF-SCORE:    0.00 PKD
ROOT
HETATM    1  C   UNL     1     -10.565   9.475  67.607  1.00  0.00    -0.329 C  
HETATM    2  C   UNL     1     -10.068   9.872  66.245  1.00  0.00    -0.311 A  
HETATM    3  C   UNL     1     -10.430  11.160  65.794  1.00  0.00    -0.305 A  
HETATM    4  C   UNL     1     -10.051  11.655  64.544  1.00  0.00    -0.321 A  
HETATM    5  C   UNL     1      -9.358   9.010  65.381  1.00  0.00    -0.144 A  
HETATM    6  C   UNL     1      -9.240  10.851  63.746  1.00  0.00    -0.233 A  
HETATM    7  C   UNL     1      -7.931   8.771  63.268  1.00  0.00    -0.160 C  
HETATM    8  C   UNL     1      -8.870   9.548  64.157  1.00  0.00    -0.243 A  
ENDROOT
BRANCH   4   9
HETATM    9  C   UNL     1     -10.596  12.963  64.138  1.00  0.00    -0.442 C  
HETATM   10  C   UNL     1     -11.356  13.779  64.881  1.00  0.00    -0.353 C  
HETATM   11  C   UNL     1     -11.862  15.001  64.350  1.00  0.00    -0.339 C  
HETATM   12  N   UNL     1     -12.276  15.988  63.903  1.00  0.00    -0.803 NA 
ENDBRANCH   4   9
BRANCH   5  13
HETATM   13  N   UNL     1      -9.212   7.623  65.647  1.00  0.00    -0.391 NA 
HETATM   14  H   UNL     1      -9.676   7.011  64.976  1.00  0.00     0.000 HD 
BRANCH  13  15
HETATM   15  C   UNL     1      -8.530   6.948  66.685  1.00  0.00    -0.121 A  
HETATM   16  C   UNL     1      -7.350   6.302  66.382  1.00  0.00    -0.085 A  
HETATM   17  C   UNL     1      -6.714   5.668  67.421  1.00  0.00    -0.059 A  
HETATM   18  N   UNL     1      -7.175   5.669  68.683  1.00  0.00    -0.076 NA 
HETATM   19  C   UNL     1      -8.331   6.313  68.900  1.00  0.00    -0.120 A  
HETATM   20  N   UNL     1      -9.008   6.953  67.934  1.00  0.00    -0.122 NA 
BRANCH  19  21
HETATM   21  N   UNL     1      -8.808   6.284  70.212  1.00  0.00    -0.151 NA 
HETATM   22  H   UNL     1      -8.246   5.724  70.853  1.00  0.00     0.000 HD 
BRANCH  21  23
HETATM   23  C   UNL     1      -9.926   6.891  70.798  1.00  0.00    -0.190 A  
HETATM   24  C   UNL     1      -9.865   8.095  71.509  1.00  0.00    -0.233 A  
HETATM   25  C   UNL     1     -11.003   8.697  72.043  1.00  0.00    -0.432 A  
HETATM   26  C   UNL     1     -12.246   8.082  71.892  1.00  0.00    -0.359 A  
HETATM   27  C   UNL     1     -13.417   8.724  72.406  1.00  0.00    -0.401 C  
HETATM   28  C   UNL     1     -12.329   6.854  71.238  1.00  0.00    -0.422 A  
HETATM   29  C   UNL     1     -11.179   6.262  70.701  1.00  0.00    -0.401 A  
HETATM   30  N   UNL     1     -14.365   9.260  72.813  1.00  0.00    -0.396 NA 
ENDBRANCH  21  23
ENDBRANCH  19  21
ENDBRANCH  13  15
ENDBRANCH   5  13
TORSDOF 5
ENDMDL
MODEL       81
REMARK 921   NORMALIZED FREE ENERGY PREDICTED BY IDOCK:   -5.96 KCAL/MOL
REMARK 922        TOTAL FREE ENERGY PREDICTED BY IDOCK:   -8.48 KCAL/MOL
REMARK 923 INTER-LIGAND FREE ENERGY PREDICTED BY IDOCK:   -7.81 KCAL/MOL
REMARK 924 INTRA-LIGAND FREE ENERGY PREDICTED BY IDOCK:   -0.67 KCAL/MOL
REMARK 927      BINDING AFFINITY PREDICTED BY RF-SCORE:    0.00 PKD
ROOT
HETATM    1  C   UNL     1     -10.891   6.007  66.929  1.00  0.00    -0.396 C  
HETATM    2  C   UNL     1      -9.828   6.156  67.982  1.00  0.00    -0.134 A  
HETATM    3  C   UNL     1      -9.819   5.186  69.008  1.00  0.00    -0.246 A  
HETATM    4  C   UNL     1      -8.899   5.209  70.058  1.00  0.00    -0.135 A  
HETATM    5  C   UNL     1      -8.926   7.240  68.045  1.00  0.00    -0.131 A  
HETATM    6  C   UNL     1      -7.926   6.207  70.048  1.00  0.00    -0.111 A  
HETATM    7  C   UNL     1      -6.784   8.206  69.063  1.00  0.00    -0.048 C  
HETATM    8  C   UNL     1      -7.913   7.206  69.045  1.00  0.00    -0.120 A  
ENDROOT
BRANCH   4   9
HETATM    9  C   UNL     1      -9.071   4.216  71.134  1.00  0.00    -0.183 C  
HETATM   10  C   UNL     1     -10.102   4.129  71.985  1.00  0.00    -0.234 C  
HETATM   11  C   UNL     1     -10.124   3.147  73.017  1.00  0.00    -0.146 C  
HETATM   12  N   UNL     1     -10.126   2.349  73.859  1.00  0.00    -0.100 NA 
ENDBRANCH   4   9
BRANCH   5  13
HETATM   13  N   UNL     1      -9.064   8.390  67.223  1.00  0.00    -0.135 NA 
HETATM   14  H   UNL     1      -8.413   8.432  66.439  1.00  0.00     0.000 HD 
BRANCH  13  15
HETATM   15  C   UNL     1      -9.952   9.486  67.309  1.00  0.00    -0.189 A  
HETATM   16  C   UNL     1     -10.006  10.369  66.252  1.00  0.00    -0.283 A  
HETATM   17  C   UNL     1     -10.890  11.414  66.371  1.00  0.00    -0.271 A  
HETATM   18  N   UNL     1     -11.691  11.590  67.436  1.00  0.00    -0.609 NA 
HETATM   19  C   UNL     1     -11.578  10.693  68.427  1.00  0.00    -0.194 A  
HETATM   20  N   UNL     1     -10.736   9.650  68.381  1.00  0.00    -0.225 NA 
BRANCH  19  21
HETATM   21  N   UNL     1     -12.399  10.905  69.536  1.00  0.00    -0.492 NA 
HETATM   22  H   UNL     1     -13.010  10.121  69.766  1.00  0.00     0.000 HD 
BRANCH  21  23
HETATM   23  C   UNL     1     -12.526  12.010  70.389  1.00  0.00    -0.153 A  
HETATM   24  C   UNL     1     -11.949  13.257  70.125  1.00  0.00    -0.388 A  
HETATM   25  C   UNL     1     -12.131  14.349  70.971  1.00  0.00    -0.417 A  
HETATM   26  C   UNL     1     -12.892  14.206  72.131  1.00  0.00    -0.417 A  
HETATM   27  C   UNL     1     -13.111  15.341  72.975  1.00  0.00    -0.506 C  
HETATM   28  C   UNL     1     -13.433  12.962  72.448  1.00  0.00    -0.573 A  
HETATM   29  C   UNL     1     -13.247  11.872  71.587  1.00  0.00    -0.364 A  
HETATM   30  N   UNL     1     -13.296  16.272  73.646  1.00  0.00    -0.612 NA 
ENDBRANCH  21  23
ENDBRANCH  19  21
ENDBRANCH  13  15
ENDBRANCH   5  13
TORSDOF 5
ENDMDL
MODEL       82
REMARK 921   NORMALIZED FREE ENERGY PREDICTED BY IDOCK:   -5.96 KCAL/MOL
REMARK 922        TOTAL FREE ENERGY PREDICTED BY IDOCK:   -8.48 KCAL/MOL
REMARK 923 INTER-LIGAND FREE ENERGY PREDICTED BY IDOCK:   -7.68 KCAL/MOL
REMARK 924 INTRA-LIGAND FREE ENERGY PREDICTED BY IDOCK:   -0.80 KCAL/MOL
REMARK 927      BINDING AFFINITY PREDICTED BY RF-SCORE:    0.00 PKD
ROOT
HETATM    1  C   UNL     1     -10.971   6.189  67.731  1.00  0.00    -0.400 C  
HETATM    2  C   UNL     1     -10.152   6.211  68.992  1.00  0.00    -0.213 A  
HETATM    3  C   UNL     1     -10.263   5.082  69.832  1.00  0.00    -0.340 A  
HETATM    4  C   UNL     1      -9.573   4.973  71.042  1.00  0.00    -0.232 A  
HETATM    5  C   UNL     1      -9.376   7.314  69.411  1.00  0.00    -0.151 A  
HETATM    6  C   UNL     1      -8.705   6.006  71.391  1.00  0.00    -0.132 A  
HETATM    7  C   UNL     1      -7.567   8.201  70.991  1.00  0.00    -0.083 C  
HETATM    8  C   UNL     1      -8.581   7.161  70.581  1.00  0.00    -0.143 A  
ENDROOT
BRANCH   4   9
HETATM    9  C   UNL     1      -9.868   3.803  71.889  1.00  0.00    -0.248 C  
HETATM   10  C   UNL     1     -10.757   3.745  72.890  1.00  0.00    -0.200 C  
HETATM   11  C   UNL     1     -10.913   2.561  73.668  1.00  0.00    -0.209 C  
HETATM   12  N   UNL     1     -11.023   1.595  74.300  1.00  0.00    -0.135 NA 
ENDBRANCH   4   9
BRANCH   5  13
HETATM   13  N   UNL     1      -9.447   8.578  68.768  1.00  0.00    -0.143 NA 
HETATM   14  H   UNL     1      -8.649   8.797  68.173  1.00  0.00     0.000 HD 
BRANCH  13  15
HETATM   15  C   UNL     1     -10.439   9.584  68.816  1.00  0.00    -0.219 A  
HETATM   16  C   UNL     1     -11.172   9.726  69.975  1.00  0.00    -0.297 A  
HETATM   17  C   UNL     1     -12.118  10.722  69.984  1.00  0.00    -0.345 A  
HETATM   18  N   UNL     1     -12.335  11.547  68.945  1.00  0.00    -0.350 NA 
HETATM   19  C   UNL     1     -11.587  11.344  67.851  1.00  0.00    -0.266 A  
HETATM   20  N   UNL     1     -10.647  10.391  67.769  1.00  0.00    -0.230 NA 
BRANCH  19  21
HETATM   21  N   UNL     1     -11.843  12.193  66.772  1.00  0.00    -0.606 NA 
HETATM   22  H   UNL     1     -12.413  11.780  66.034  1.00  0.00     0.000 HD 
BRANCH  21  23
HETATM   23  C   UNL     1     -11.451  13.517  66.530  1.00  0.00    -0.339 A  
HETATM   24  C   UNL     1     -11.315  14.056  65.246  1.00  0.00    -0.321 A  
HETATM   25  C   UNL     1     -10.966  15.390  65.038  1.00  0.00    -0.450 A  
HETATM   26  C   UNL     1     -10.721  16.219  66.133  1.00  0.00    -0.198 A  
HETATM   27  C   UNL     1     -10.404  17.598  65.916  1.00  0.00    -0.257 C  
HETATM   28  C   UNL     1     -10.795  15.694  67.422  1.00  0.00    -0.315 A  
HETATM   29  C   UNL     1     -11.151  14.353  67.618  1.00  0.00    -0.311 A  
HETATM   30  N   UNL     1     -10.161  18.719  65.731  1.00  0.00    -0.546 NA 
ENDBRANCH  21  23
ENDBRANCH  19  21
ENDBRANCH  13  15
ENDBRANCH   5  13
TORSDOF 5
ENDMDL
MODEL       83
REMARK 921   NORMALIZED FREE ENERGY PREDICTED BY IDOCK:   -5.95 KCAL/MOL
REMARK 922        TOTAL FREE ENERGY PREDICTED BY IDOCK:   -8.47 KCAL/MOL
REMARK 923 INTER-LIGAND FREE ENERGY PREDICTED BY IDOCK:   -7.60 KCAL/MOL
REMARK 924 INTRA-LIGAND FREE ENERGY PREDICTED BY IDOCK:   -0.88 KCAL/MOL
REMARK 927      BINDING AFFINITY PREDICTED BY RF-SCORE:    0.00 PKD
ROOT
HETATM    1  C   UNL     1      -8.817   7.931  67.896  1.00  0.00    -0.123 C  
HETATM    2  C   UNL     1      -9.474   8.258  69.209  1.00  0.00    -0.155 A  
HETATM    3  C   UNL     1      -9.021   7.537  70.335  1.00  0.00    -0.152 A  
HETATM    4  C   UNL     1      -9.551   7.726  71.613  1.00  0.00    -0.191 A  
HETATM    5  C   UNL     1     -10.555   9.156  69.349  1.00  0.00    -0.223 A  
HETATM    6  C   UNL     1     -10.529   8.706  71.773  1.00  0.00    -0.394 A  
HETATM    7  C   UNL     1     -12.024  10.531  70.933  1.00  0.00    -0.481 C  
HETATM    8  C   UNL     1     -11.019   9.438  70.665  1.00  0.00    -0.352 A  
ENDROOT
BRANCH   4   9
HETATM    9  C   UNL     1      -9.084   6.825  72.683  1.00  0.00    -0.143 C  
HETATM   10  C   UNL     1      -8.382   5.694  72.526  1.00  0.00    -0.114 C  
HETATM   11  C   UNL     1      -8.032   4.885  73.645  1.00  0.00    -0.106 C  
HETATM   12  N   UNL     1      -7.762   4.229  74.563  1.00  0.00    -0.079 NA 
ENDBRANCH   4   9
BRANCH   5  13
HETATM   13  N   UNL     1     -11.245   9.691  68.230  1.00  0.00    -0.513 NA 
HETATM   14  H   UNL     1     -12.026   9.123  67.900  1.00  0.00     0.000 HD 
BRANCH  13  15
HETATM   15  C   UNL     1     -11.033  10.880  67.496  1.00  0.00    -0.293 A  
HETATM   16  C   UNL     1     -10.760  10.777  66.148  1.00  0.00    -0.187 A  
HETATM   17  C   UNL     1     -10.571  11.956  65.469  1.00  0.00    -0.269 A  
HETATM   18  N   UNL     1     -10.656  13.167  66.048  1.00  0.00    -0.277 NA 
HETATM   19  C   UNL     1     -10.919  13.186  67.362  1.00  0.00    -0.264 A  
HETATM   20  N   UNL     1     -11.114  12.076  68.090  1.00  0.00    -0.227 NA 
BRANCH  19  21
HETATM   21  N   UNL     1     -10.980  14.450  67.952  1.00  0.00    -0.257 NA 
HETATM   22  H   UNL     1     -10.695  15.216  67.342  1.00  0.00     0.000 HD 
BRANCH  21  23
HETATM   23  C   UNL     1     -11.366  14.847  69.240  1.00  0.00    -0.296 A  
HETATM   24  C   UNL     1     -12.617  14.555  69.793  1.00  0.00    -0.162 A  
HETATM   25  C   UNL     1     -12.955  14.926  71.094  1.00  0.00    -0.432 A  
HETATM   26  C   UNL     1     -12.036  15.629  71.873  1.00  0.00    -0.530 A  
HETATM   27  C   UNL     1     -12.371  15.972  73.221  1.00  0.00    -0.537 C  
HETATM   28  C   UNL     1     -10.803  15.983  71.328  1.00  0.00     0.250 A  
HETATM   29  C   UNL     1     -10.474  15.601  70.021  1.00  0.00    -0.333 A  
HETATM   30  N   UNL     1     -12.646  16.233  74.320  1.00  0.00    -0.756 NA 
ENDBRANCH  21  23
ENDBRANCH  19  21
ENDBRANCH  13  15
ENDBRANCH   5  13
TORSDOF 5
ENDMDL
MODEL       84
REMARK 921   NORMALIZED FREE ENERGY PREDICTED BY IDOCK:   -5.91 KCAL/MOL
REMARK 922        TOTAL FREE ENERGY PREDICTED BY IDOCK:   -8.42 KCAL/MOL
REMARK 923 INTER-LIGAND FREE ENERGY PREDICTED BY IDOCK:   -7.64 KCAL/MOL
REMARK 924 INTRA-LIGAND FREE ENERGY PREDICTED BY IDOCK:   -0.78 KCAL/MOL
REMARK 927      BINDING AFFINITY PREDICTED BY RF-SCORE:    0.00 PKD
ROOT
HETATM    1  C   UNL     1      -9.684  10.456  68.814  1.00  0.00    -0.184 C  
HETATM    2  C   UNL     1      -9.962   8.985  68.671  1.00  0.00    -0.187 A  
HETATM    3  C   UNL     1     -10.439   8.321  69.822  1.00  0.00    -0.220 A  
HETATM    4  C   UNL     1     -10.725   6.954  69.839  1.00  0.00    -0.278 A  
HETATM    5  C   UNL     1      -9.688   8.239  67.504  1.00  0.00    -0.165 A  
HETATM    6  C   UNL     1     -10.578   6.245  68.648  1.00  0.00    -0.314 A  
HETATM    7  C   UNL     1     -10.025   6.054  66.213  1.00  0.00    -0.085 C  
HETATM    8  C   UNL     1     -10.087   6.873  67.478  1.00  0.00    -0.222 A  
ENDROOT
BRANCH   4   9
HETATM    9  C   UNL     1     -11.096   6.353  71.133  1.00  0.00    -0.344 C  
HETATM   10  C   UNL     1     -10.418   5.408  71.799  1.00  0.00    -0.288 C  
HETATM   11  C   UNL     1     -10.913   4.874  73.025  1.00  0.00    -0.288 C  
HETATM   12  N   UNL     1     -11.330   4.441  74.016  1.00  0.00    -0.162 NA 
ENDBRANCH   4   9
BRANCH   5  13
HETATM   13  N   UNL     1      -8.946   8.776  66.418  1.00  0.00    -0.148 NA 
HETATM   14  H   UNL     1      -7.959   8.520  66.411  1.00  0.00     0.000 HD 
BRANCH  13  15
HETATM   15  C   UNL     1      -9.347   9.605  65.346  1.00  0.00    -0.259 A  
HETATM   16  C   UNL     1      -8.895   9.301  64.080  1.00  0.00    -0.168 A  
HETATM   17  C   UNL     1      -9.316  10.125  63.064  1.00  0.00    -0.299 A  
HETATM   18  N   UNL     1     -10.139  11.171  63.252  1.00  0.00    -0.370 NA 
HETATM   19  C   UNL     1     -10.532  11.407  64.512  1.00  0.00    -0.322 A  
HETATM   20  N   UNL     1     -10.160  10.647  65.553  1.00  0.00    -0.269 NA 
BRANCH  19  21
HETATM   21  N   UNL     1     -11.366  12.512  64.692  1.00  0.00    -0.306 NA 
HETATM   22  H   UNL     1     -12.250  12.462  64.185  1.00  0.00     0.000 HD 
BRANCH  21  23
HETATM   23  C   UNL     1     -11.198  13.678  65.451  1.00  0.00    -0.298 A  
HETATM   24  C   UNL     1     -11.961  13.976  66.585  1.00  0.00    -0.473 A  
HETATM   25  C   UNL     1     -11.739  15.124  67.345  1.00  0.00    -0.189 A  
HETATM   26  C   UNL     1     -10.744  16.024  66.963  1.00  0.00    -0.277 A  
HETATM   27  C   UNL     1     -10.493  17.180  67.768  1.00  0.00    -0.362 C  
HETATM   28  C   UNL     1     -10.007  15.781  65.806  1.00  0.00    -0.389 A  
HETATM   29  C   UNL     1     -10.236  14.622  65.053  1.00  0.00    -0.395 A  
HETATM   30  N   UNL     1     -10.285  18.108  68.437  1.00  0.00    -0.383 NA 
ENDBRANCH  21  23
ENDBRANCH  19  21
ENDBRANCH  13  15
ENDBRANCH   5  13
TORSDOF 5
ENDMDL
MODEL       85
REMARK 921   NORMALIZED FREE ENERGY PREDICTED BY IDOCK:   -5.91 KCAL/MOL
REMARK 922        TOTAL FREE ENERGY PREDICTED BY IDOCK:   -8.42 KCAL/MOL
REMARK 923 INTER-LIGAND FREE ENERGY PREDICTED BY IDOCK:   -7.78 KCAL/MOL
REMARK 924 INTRA-LIGAND FREE ENERGY PREDICTED BY IDOCK:   -0.64 KCAL/MOL
REMARK 927      BINDING AFFINITY PREDICTED BY RF-SCORE:    0.00 PKD
ROOT
HETATM    1  C   UNL     1     -11.932  12.025  69.933  1.00  0.00    -0.391 C  
HETATM    2  C   UNL     1     -11.139  11.379  68.831  1.00  0.00    -0.290 A  
HETATM    3  C   UNL     1     -10.146  10.458  69.228  1.00  0.00    -0.248 A  
HETATM    4  C   UNL     1      -9.324   9.794  68.314  1.00  0.00    -0.134 A  
HETATM    5  C   UNL     1     -11.271  11.710  67.464  1.00  0.00    -0.293 A  
HETATM    6  C   UNL     1      -9.544  10.025  66.957  1.00  0.00    -0.212 A  
HETATM    7  C   UNL     1     -10.745  11.091  65.036  1.00  0.00    -0.264 C  
HETATM    8  C   UNL     1     -10.519  10.953  66.521  1.00  0.00    -0.308 A  
ENDROOT
BRANCH   4   9
HETATM    9  C   UNL     1      -8.243   8.954  68.858  1.00  0.00    -0.117 C  
HETATM   10  C   UNL     1      -7.786   8.954  70.118  1.00  0.00    -0.097 C  
HETATM   11  C   UNL     1      -6.696   8.122  70.506  1.00  0.00    -0.037 C  
HETATM   12  N   UNL     1      -5.802   7.448  70.807  1.00  0.00    -0.031 NA 
ENDBRANCH   4   9
BRANCH   5  13
HETATM   13  N   UNL     1     -12.036  12.822  67.024  1.00  0.00    -0.446 NA 
HETATM   14  H   UNL     1     -12.986  12.857  67.393  1.00  0.00     0.000 HD 
BRANCH  13  15
HETATM   15  C   UNL     1     -11.701  13.891  66.162  1.00  0.00    -0.376 A  
HETATM   16  C   UNL     1     -12.615  14.267  65.200  1.00  0.00    -0.384 A  
HETATM   17  C   UNL     1     -12.255  15.316  64.390  1.00  0.00    -0.210 A  
HETATM   18  N   UNL     1     -11.091  15.978  64.507  1.00  0.00    -0.590 NA 
HETATM   19  C   UNL     1     -10.251  15.552  65.462  1.00  0.00    -0.386 A  
HETATM   20  N   UNL     1     -10.534  14.533  66.288  1.00  0.00    -0.293 NA 
BRANCH  19  21
HETATM   21  N   UNL     1      -9.037  16.235  65.554  1.00  0.00    -0.291 NA 
HETATM   22  H   UNL     1      -8.435  16.139  64.736  1.00  0.00     0.000 HD 
BRANCH  21  23
HETATM   23  C   UNL     1      -8.503  17.029  66.577  1.00  0.00    -0.271 A  
HETATM   24  C   UNL     1      -7.377  16.667  67.325  1.00  0.00    -0.203 A  
HETATM   25  C   UNL     1      -6.843  17.499  68.307  1.00  0.00    -0.200 A  
HETATM   26  C   UNL     1      -7.451  18.725  68.580  1.00  0.00    -0.343 A  
HETATM   27  C   UNL     1      -6.876  19.594  69.561  1.00  0.00    -0.315 C  
HETATM   28  C   UNL     1      -8.607  19.086  67.890  1.00  0.00    -0.333 A  
HETATM   29  C   UNL     1      -9.131  18.243  66.902  1.00  0.00    -0.282 A  
HETATM   30  N   UNL     1      -6.394  20.300  70.348  1.00  0.00    -0.435 NA 
ENDBRANCH  21  23
ENDBRANCH  19  21
ENDBRANCH  13  15
ENDBRANCH   5  13
TORSDOF 5
ENDMDL
MODEL       86
REMARK 921   NORMALIZED FREE ENERGY PREDICTED BY IDOCK:   -5.89 KCAL/MOL
REMARK 922        TOTAL FREE ENERGY PREDICTED BY IDOCK:   -8.39 KCAL/MOL
REMARK 923 INTER-LIGAND FREE ENERGY PREDICTED BY IDOCK:   -7.64 KCAL/MOL
REMARK 924 INTRA-LIGAND FREE ENERGY PREDICTED BY IDOCK:   -0.74 KCAL/MOL
REMARK 927      BINDING AFFINITY PREDICTED BY RF-SCORE:    0.00 PKD
ROOT
HETATM    1  C   UNL     1     -14.364   7.983  72.089  1.00  0.00    -0.442 C  
HETATM    2  C   UNL     1     -13.283   8.861  71.521  1.00  0.00    -0.375 A  
HETATM    3  C   UNL     1     -13.456  10.253  71.680  1.00  0.00    -0.360 A  
HETATM    4  C   UNL     1     -12.541  11.188  71.191  1.00  0.00    -0.513 A  
HETATM    5  C   UNL     1     -12.184   8.380  70.776  1.00  0.00    -0.000 A  
HETATM    6  C   UNL     1     -11.390  10.705  70.569  1.00  0.00    -0.355 A  
HETATM    7  C   UNL     1      -9.885   8.874  69.762  1.00  0.00    -0.186 C  
HETATM    8  C   UNL     1     -11.189   9.317  70.377  1.00  0.00    -0.290 A  
ENDROOT
BRANCH   4   9
HETATM    9  C   UNL     1     -12.896  12.613  71.308  1.00  0.00    -0.344 C  
HETATM   10  C   UNL     1     -13.544  13.195  72.327  1.00  0.00    -0.677 C  
HETATM   11  C   UNL     1     -13.870  14.582  72.296  1.00  0.00    -0.486 C  
HETATM   12  N   UNL     1     -14.138  15.709  72.254  1.00  0.00    -0.519 NA 
ENDBRANCH   4   9
BRANCH   5  13
HETATM   13  N   UNL     1     -12.100   7.034  70.334  1.00  0.00    -0.599 NA 
HETATM   14  H   UNL     1     -12.802   6.770  69.642  1.00  0.00     0.000 HD 
BRANCH  13  15
HETATM   15  C   UNL     1     -11.207   5.998  70.690  1.00  0.00    -0.277 A  
HETATM   16  C   UNL     1     -11.088   5.667  72.024  1.00  0.00    -0.291 A  
HETATM   17  C   UNL     1     -10.219   4.648  72.327  1.00  0.00    -0.193 A  
HETATM   18  N   UNL     1      -9.516   3.972  71.401  1.00  0.00    -0.148 NA 
HETATM   19  C   UNL     1      -9.681   4.355  70.126  1.00  0.00    -0.218 A  
HETATM   20  N   UNL     1     -10.510   5.342  69.756  1.00  0.00    -0.307 NA 
BRANCH  19  21
HETATM   21  N   UNL     1      -8.925   3.660  69.179  1.00  0.00    -0.104 NA 
HETATM   22  H   UNL     1      -8.388   2.879  69.557  1.00  0.00     0.000 HD 
BRANCH  21  23
HETATM   23  C   UNL     1      -8.778   3.851  67.799  1.00  0.00    -0.103 A  
HETATM   24  C   UNL     1      -9.244   2.943  66.842  1.00  0.00    -0.161 A  
HETATM   25  C   UNL     1      -9.121   3.183  65.475  1.00  0.00    -0.151 A  
HETATM   26  C   UNL     1      -8.498   4.349  65.030  1.00  0.00    -0.124 A  
HETATM   27  C   UNL     1      -8.411   4.611  63.626  1.00  0.00    -0.125 C  
HETATM   28  C   UNL     1      -7.974   5.245  65.961  1.00  0.00    -0.104 A  
HETATM   29  C   UNL     1      -8.108   4.994  67.333  1.00  0.00    -0.103 A  
HETATM   30  N   UNL     1      -8.358   4.823  62.484  1.00  0.00    -0.088 NA 
ENDBRANCH  21  23
ENDBRANCH  19  21
ENDBRANCH  13  15
ENDBRANCH   5  13
TORSDOF 5
ENDMDL
MODEL       87
REMARK 921   NORMALIZED FREE ENERGY PREDICTED BY IDOCK:   -5.88 KCAL/MOL
REMARK 922        TOTAL FREE ENERGY PREDICTED BY IDOCK:   -8.38 KCAL/MOL
REMARK 923 INTER-LIGAND FREE ENERGY PREDICTED BY IDOCK:   -7.60 KCAL/MOL
REMARK 924 INTRA-LIGAND FREE ENERGY PREDICTED BY IDOCK:   -0.78 KCAL/MOL
REMARK 927      BINDING AFFINITY PREDICTED BY RF-SCORE:    0.00 PKD
ROOT
HETATM    1  C   UNL     1     -10.925   6.692  66.835  1.00  0.00    -0.396 C  
HETATM    2  C   UNL     1     -10.118   7.462  67.844  1.00  0.00    -0.220 A  
HETATM    3  C   UNL     1     -10.258   7.068  69.192  1.00  0.00    -0.193 A  
HETATM    4  C   UNL     1      -9.581   7.703  70.236  1.00  0.00    -0.172 A  
HETATM    5  C   UNL     1      -9.324   8.587  67.528  1.00  0.00    -0.144 A  
HETATM    6  C   UNL     1      -8.697   8.729  69.909  1.00  0.00    -0.135 A  
HETATM    7  C   UNL     1      -7.513  10.229  68.290  1.00  0.00    -0.086 C  
HETATM    8  C   UNL     1      -8.543   9.162  68.569  1.00  0.00    -0.129 A  
ENDROOT
BRANCH   4   9
HETATM    9  C   UNL     1      -9.906   7.283  71.611  1.00  0.00    -0.176 C  
HETATM   10  C   UNL     1      -9.937   6.027  72.078  1.00  0.00    -0.195 C  
HETATM   11  C   UNL     1     -10.316   5.751  73.424  1.00  0.00    -0.225 C  
HETATM   12  N   UNL     1     -10.635   5.538  74.518  1.00  0.00    -0.273 NA 
ENDBRANCH   4   9
BRANCH   5  13
HETATM   13  N   UNL     1      -9.366   9.209  66.253  1.00  0.00    -0.197 NA 
HETATM   14  H   UNL     1      -8.771   8.774  65.548  1.00  0.00     0.000 HD 
BRANCH  13  15
HETATM   15  C   UNL     1     -10.093  10.332  65.796  1.00  0.00    -0.255 A  
HETATM   16  C   UNL     1     -10.282  10.480  64.438  1.00  0.00    -0.337 A  
HETATM   17  C   UNL     1     -11.004  11.578  64.037  1.00  0.00    -0.383 A  
HETATM   18  N   UNL     1     -11.530  12.472  64.891  1.00  0.00    -0.315 NA 
HETATM   19  C   UNL     1     -11.300  12.264  66.196  1.00  0.00    -0.353 A  
HETATM   20  N   UNL     1     -10.603  11.216  66.661  1.00  0.00    -0.255 NA 
BRANCH  19  21
HETATM   21  N   UNL     1     -11.833  13.215  67.068  1.00  0.00    -0.379 NA 
HETATM   22  H   UNL     1     -12.702  12.934  67.520  1.00  0.00     0.000 HD 
BRANCH  21  23
HETATM   23  C   UNL     1     -11.377  14.491  67.427  1.00  0.00    -0.356 A  
HETATM   24  C   UNL     1     -10.569  15.281  66.602  1.00  0.00    -0.304 A  
HETATM   25  C   UNL     1     -10.168  16.564  66.970  1.00  0.00    -0.288 A  
HETATM   26  C   UNL     1     -10.559  17.083  68.205  1.00  0.00    -0.369 A  
HETATM   27  C   UNL     1     -10.180  18.416  68.561  1.00  0.00    -0.364 C  
HETATM   28  C   UNL     1     -11.317  16.297  69.071  1.00  0.00    -0.301 A  
HETATM   29  C   UNL     1     -11.717  15.010  68.688  1.00  0.00    -0.363 A  
HETATM   30  N   UNL     1      -9.880  19.505  68.835  1.00  0.00    -0.443 NA 
ENDBRANCH  21  23
ENDBRANCH  19  21
ENDBRANCH  13  15
ENDBRANCH   5  13
TORSDOF 5
ENDMDL
MODEL       88
REMARK 921   NORMALIZED FREE ENERGY PREDICTED BY IDOCK:   -5.87 KCAL/MOL
REMARK 922        TOTAL FREE ENERGY PREDICTED BY IDOCK:   -8.36 KCAL/MOL
REMARK 923 INTER-LIGAND FREE ENERGY PREDICTED BY IDOCK:   -7.30 KCAL/MOL
REMARK 924 INTRA-LIGAND FREE ENERGY PREDICTED BY IDOCK:   -1.06 KCAL/MOL
REMARK 927      BINDING AFFINITY PREDICTED BY RF-SCORE:    0.00 PKD
ROOT
HETATM    1  C   UNL     1     -10.223   6.805  66.679  1.00  0.00    -0.211 C  
HETATM    2  C   UNL     1      -9.364   7.615  67.609  1.00  0.00    -0.158 A  
HETATM    3  C   UNL     1      -9.502   7.345  68.988  1.00  0.00    -0.148 A  
HETATM    4  C   UNL     1      -8.779   8.031  69.967  1.00  0.00    -0.135 A  
HETATM    5  C   UNL     1      -8.520   8.668  67.191  1.00  0.00    -0.114 A  
HETATM    6  C   UNL     1      -7.850   8.980  69.543  1.00  0.00    -0.094 A  
HETATM    7  C   UNL     1      -6.618  10.275  67.789  1.00  0.00    -0.066 C  
HETATM    8  C   UNL     1      -7.695   9.289  68.170  1.00  0.00    -0.088 A  
ENDROOT
BRANCH   4   9
HETATM    9  C   UNL     1      -9.104   7.746  71.376  1.00  0.00    -0.154 C  
HETATM   10  C   UNL     1      -9.905   6.773  71.832  1.00  0.00    -0.173 C  
HETATM   11  C   UNL     1     -10.176   6.635  73.224  1.00  0.00    -0.236 C  
HETATM   12  N   UNL     1     -10.396   6.539  74.358  1.00  0.00    -0.316 NA 
ENDBRANCH   4   9
BRANCH   5  13
HETATM   13  N   UNL     1      -8.550   9.181  65.867  1.00  0.00    -0.143 NA 
HETATM   14  H   UNL     1      -7.862   8.769  65.236  1.00  0.00     0.000 HD 
BRANCH  13  15
HETATM   15  C   UNL     1      -9.373  10.167  65.277  1.00  0.00    -0.224 A  
HETATM   16  C   UNL     1      -9.230  10.417  63.929  1.00  0.00    -0.301 A  
HETATM   17  C   UNL     1     -10.056  11.375  63.392  1.00  0.00    -0.405 A  
HETATM   18  N   UNL     1     -10.980  12.041  64.106  1.00  0.00    -0.329 NA 
HETATM   19  C   UNL     1     -11.056  11.747  65.412  1.00  0.00    -0.279 A  
HETATM   20  N   UNL     1     -10.281  10.826  66.005  1.00  0.00    -0.247 NA 
BRANCH  19  21
HETATM   21  N   UNL     1     -12.003  12.466  66.143  1.00  0.00    -0.608 NA 
HETATM   22  H   UNL     1     -12.896  12.596  65.667  1.00  0.00     0.000 HD 
BRANCH  21  23
HETATM   23  C   UNL     1     -11.938  13.040  67.420  1.00  0.00    -0.316 A  
HETATM   24  C   UNL     1     -11.962  12.293  68.603  1.00  0.00    -0.276 A  
HETATM   25  C   UNL     1     -11.851  12.890  69.857  1.00  0.00    -0.373 A  
HETATM   26  C   UNL     1     -11.733  14.277  69.955  1.00  0.00    -0.373 A  
HETATM   27  C   UNL     1     -11.577  14.882  71.242  1.00  0.00    -0.308 C  
HETATM   28  C   UNL     1     -11.763  15.051  68.796  1.00  0.00    -0.360 A  
HETATM   29  C   UNL     1     -11.870  14.438  67.541  1.00  0.00    -0.418 A  
HETATM   30  N   UNL     1     -11.437  15.364  72.290  1.00  0.00    -0.448 NA 
ENDBRANCH  21  23
ENDBRANCH  19  21
ENDBRANCH  13  15
ENDBRANCH   5  13
TORSDOF 5
ENDMDL
MODEL       89
REMARK 921   NORMALIZED FREE ENERGY PREDICTED BY IDOCK:   -5.85 KCAL/MOL
REMARK 922        TOTAL FREE ENERGY PREDICTED BY IDOCK:   -8.34 KCAL/MOL
REMARK 923 INTER-LIGAND FREE ENERGY PREDICTED BY IDOCK:   -7.63 KCAL/MOL
REMARK 924 INTRA-LIGAND FREE ENERGY PREDICTED BY IDOCK:   -0.70 KCAL/MOL
REMARK 927      BINDING AFFINITY PREDICTED BY RF-SCORE:    0.00 PKD
ROOT
HETATM    1  C   UNL     1     -11.307  12.430  63.941  1.00  0.00    -0.502 C  
HETATM    2  C   UNL     1     -10.293  11.851  64.888  1.00  0.00    -0.328 A  
HETATM    3  C   UNL     1      -9.922  10.507  64.666  1.00  0.00    -0.415 A  
HETATM    4  C   UNL     1      -9.003   9.836  65.476  1.00  0.00    -0.214 A  
HETATM    5  C   UNL     1      -9.781  12.535  66.012  1.00  0.00    -0.241 A  
HETATM    6  C   UNL     1      -8.400  10.554  66.507  1.00  0.00    -0.141 A  
HETATM    7  C   UNL     1      -8.008  12.626  67.857  1.00  0.00    -0.156 C  
HETATM    8  C   UNL     1      -8.759  11.898  66.770  1.00  0.00    -0.193 A  
ENDROOT
BRANCH   4   9
HETATM    9  C   UNL     1      -8.793   8.400  65.219  1.00  0.00    -0.113 C  
HETATM   10  C   UNL     1      -8.423   7.473  66.114  1.00  0.00    -0.147 C  
HETATM   11  C   UNL     1      -8.206   6.119  65.724  1.00  0.00    -0.138 C  
HETATM   12  N   UNL     1      -8.024   5.023  65.393  1.00  0.00    -0.105 NA 
ENDBRANCH   4   9
BRANCH   5  13
HETATM   13  N   UNL     1     -10.321  13.771  66.458  1.00  0.00    -0.281 NA 
HETATM   14  H   UNL     1     -10.325  14.510  65.756  1.00  0.00     0.000 HD 
BRANCH  13  15
HETATM   15  C   UNL     1     -10.856  14.147  67.711  1.00  0.00    -0.252 A  
HETATM   16  C   UNL     1     -10.735  15.462  68.106  1.00  0.00    -0.271 A  
HETATM   17  C   UNL     1     -11.276  15.788  69.325  1.00  0.00    -0.324 A  
HETATM   18  N   UNL     1     -11.915  14.905  70.113  1.00  0.00    -0.297 NA 
HETATM   19  C   UNL     1     -11.988  13.644  69.664  1.00  0.00    -0.343 A  
HETATM   20  N   UNL     1     -11.480  13.252  68.485  1.00  0.00    -0.288 NA 
BRANCH  19  21
HETATM   21  N   UNL     1     -12.632  12.735  70.505  1.00  0.00    -0.177 NA 
HETATM   22  H   UNL     1     -13.431  13.118  71.010  1.00  0.00     0.000 HD 
BRANCH  21  23
HETATM   23  C   UNL     1     -12.368  11.385  70.776  1.00  0.00    -0.386 A  
HETATM   24  C   UNL     1     -11.173  10.749  70.423  1.00  0.00    -0.270 A  
HETATM   25  C   UNL     1     -10.923   9.416  70.746  1.00  0.00    -0.371 A  
HETATM   26  C   UNL     1     -11.892   8.674  71.422  1.00  0.00    -0.352 A  
HETATM   27  C   UNL     1     -11.614   7.319  71.788  1.00  0.00    -0.275 C  
HETATM   28  C   UNL     1     -13.114   9.266  71.736  1.00  0.00    -0.472 A  
HETATM   29  C   UNL     1     -13.351  10.608  71.411  1.00  0.00    -0.299 A  
HETATM   30  N   UNL     1     -11.374   6.223  72.094  1.00  0.00    -0.282 NA 
ENDBRANCH  21  23
ENDBRANCH  19  21
ENDBRANCH  13  15
ENDBRANCH   5  13
TORSDOF 5
ENDMDL
MODEL       90
REMARK 921   NORMALIZED FREE ENERGY PREDICTED BY IDOCK:   -5.82 KCAL/MOL
REMARK 922        TOTAL FREE ENERGY PREDICTED BY IDOCK:   -8.31 KCAL/MOL
REMARK 923 INTER-LIGAND FREE ENERGY PREDICTED BY IDOCK:   -7.42 KCAL/MOL
REMARK 924 INTRA-LIGAND FREE ENERGY PREDICTED BY IDOCK:   -0.89 KCAL/MOL
REMARK 927      BINDING AFFINITY PREDICTED BY RF-SCORE:    0.00 PKD
ROOT
HETATM    1  C   UNL     1     -12.406  10.173  71.920  1.00  0.00    -0.300 C  
HETATM    2  C   UNL     1     -11.602  10.242  70.652  1.00  0.00    -0.435 A  
HETATM    3  C   UNL     1     -10.541   9.319  70.530  1.00  0.00    -0.309 A  
HETATM    4  C   UNL     1      -9.702   9.278  69.413  1.00  0.00    -0.175 A  
HETATM    5  C   UNL     1     -11.790  11.218  69.649  1.00  0.00    -0.360 A  
HETATM    6  C   UNL     1      -9.972  10.157  68.366  1.00  0.00    -0.173 A  
HETATM    7  C   UNL     1     -11.289  11.974  67.254  1.00  0.00    -0.394 C  
HETATM    8  C   UNL     1     -11.016  11.108  68.459  1.00  0.00    -0.267 A  
ENDROOT
BRANCH   4   9
HETATM    9  C   UNL     1      -8.555   8.354  69.459  1.00  0.00    -0.129 C  
HETATM   10  C   UNL     1      -8.330   7.316  68.642  1.00  0.00    -0.125 C  
HETATM   11  C   UNL     1      -7.200   6.467  68.824  1.00  0.00    -0.085 C  
HETATM   12  N   UNL     1      -6.283   5.777  68.988  1.00  0.00    -0.028 NA 
ENDBRANCH   4   9
BRANCH   5  13
HETATM   13  N   UNL     1     -12.636  12.343  69.836  1.00  0.00     0.124 NA 
HETATM   14  H   UNL     1     -13.618  12.177  69.614  1.00  0.00     0.000 HD 
BRANCH  13  15
HETATM   15  C   UNL     1     -12.347  13.654  70.278  1.00  0.00    -0.322 A  
HETATM   16  C   UNL     1     -12.444  13.926  71.627  1.00  0.00    -0.337 A  
HETATM   17  C   UNL     1     -12.143  15.208  72.016  1.00  0.00    -0.379 A  
HETATM   18  N   UNL     1     -11.754  16.170  71.162  1.00  0.00    -0.437 NA 
HETATM   19  C   UNL     1     -11.688  15.832  69.866  1.00  0.00    -0.357 A  
HETATM   20  N   UNL     1     -11.969  14.601  69.413  1.00  0.00    -0.314 NA 
BRANCH  19  21
HETATM   21  N   UNL     1     -11.307  16.850  68.990  1.00  0.00    -0.169 NA 
HETATM   22  H   UNL     1     -12.047  17.168  68.364  1.00  0.00     0.000 HD 
BRANCH  21  23
HETATM   23  C   UNL     1     -10.082  17.509  68.823  1.00  0.00    -0.363 A  
HETATM   24  C   UNL     1      -8.842  16.873  68.948  1.00  0.00    -0.216 A  
HETATM   25  C   UNL     1      -7.641  17.547  68.733  1.00  0.00    -0.258 A  
HETATM   26  C   UNL     1      -7.658  18.902  68.401  1.00  0.00    -0.339 A  
HETATM   27  C   UNL     1      -6.424  19.579  68.140  1.00  0.00    -0.238 C  
HETATM   28  C   UNL     1      -8.876  19.574  68.324  1.00  0.00    -0.383 A  
HETATM   29  C   UNL     1     -10.077  18.885  68.538  1.00  0.00    -0.460 A  
HETATM   30  N   UNL     1      -5.419  20.117  67.915  1.00  0.00    -0.193 NA 
ENDBRANCH  21  23
ENDBRANCH  19  21
ENDBRANCH  13  15
ENDBRANCH   5  13
TORSDOF 5
ENDMDL
MODEL       91
REMARK 921   NORMALIZED FREE ENERGY PREDICTED BY IDOCK:   -5.81 KCAL/MOL
REMARK 922        TOTAL FREE ENERGY PREDICTED BY IDOCK:   -8.29 KCAL/MOL
REMARK 923 INTER-LIGAND FREE ENERGY PREDICTED BY IDOCK:   -7.42 KCAL/MOL
REMARK 924 INTRA-LIGAND FREE ENERGY PREDICTED BY IDOCK:   -0.87 KCAL/MOL
REMARK 927      BINDING AFFINITY PREDICTED BY RF-SCORE:    0.00 PKD
ROOT
HETATM    1  C   UNL     1      -7.217  11.246  68.486  1.00  0.00    -0.094 C  
HETATM    2  C   UNL     1      -8.477  10.618  69.015  1.00  0.00    -0.148 A  
HETATM    3  C   UNL     1      -8.426   9.230  69.270  1.00  0.00    -0.137 A  
HETATM    4  C   UNL     1      -9.525   8.512  69.749  1.00  0.00    -0.166 A  
HETATM    5  C   UNL     1      -9.698  11.308  69.173  1.00  0.00     0.031 A  
HETATM    6  C   UNL     1     -10.692   9.220  70.028  1.00  0.00    -0.259 A  
HETATM    7  C   UNL     1     -12.058  11.314  70.167  1.00  0.00    -0.448 C  
HETATM    8  C   UNL     1     -10.785  10.609  69.769  1.00  0.00    -0.283 A  
ENDROOT
BRANCH   4   9
HETATM    9  C   UNL     1      -9.385   7.048  69.856  1.00  0.00    -0.150 C  
HETATM   10  C   UNL     1     -10.251   6.127  69.410  1.00  0.00    -0.248 C  
HETATM   11  C   UNL     1     -10.020   4.737  69.621  1.00  0.00    -0.227 C  
HETATM   12  N   UNL     1      -9.826   3.609  69.807  1.00  0.00    -0.071 NA 
ENDBRANCH   4   9
BRANCH   5  13
HETATM   13  N   UNL     1      -9.898  12.620  68.667  1.00  0.00    -0.400 NA 
HETATM   14  H   UNL     1      -9.725  13.365  69.341  1.00  0.00     0.000 HD 
BRANCH  13  15
HETATM   15  C   UNL     1     -10.296  13.065  67.387  1.00  0.00    -0.234 A  
HETATM   16  C   UNL     1     -10.615  12.120  66.435  1.00  0.00    -0.275 A  
HETATM   17  C   UNL     1     -11.007  12.595  65.207  1.00  0.00    -0.286 A  
HETATM   18  N   UNL     1     -11.105  13.904  64.915  1.00  0.00    -0.350 NA 
HETATM   19  C   UNL     1     -10.774  14.763  65.890  1.00  0.00    -0.316 A  
HETATM   20  N   UNL     1     -10.381  14.372  67.112  1.00  0.00    -0.261 NA 
BRANCH  19  21
HETATM   21  N   UNL     1     -10.858  16.118  65.562  1.00  0.00    -0.308 NA 
HETATM   22  H   UNL     1     -11.649  16.360  64.966  1.00  0.00     0.000 HD 
BRANCH  21  23
HETATM   23  C   UNL     1     -10.042  17.201  65.913  1.00  0.00    -0.240 A  
HETATM   24  C   UNL     1     -10.535  18.487  66.162  1.00  0.00    -0.447 A  
HETATM   25  C   UNL     1      -9.702  19.535  66.552  1.00  0.00    -0.478 A  
HETATM   26  C   UNL     1      -8.331  19.316  66.682  1.00  0.00    -0.319 A  
HETATM   27  C   UNL     1      -7.486  20.384  67.123  1.00  0.00    -0.314 C  
HETATM   28  C   UNL     1      -7.805  18.060  66.386  1.00  0.00    -0.304 A  
HETATM   29  C   UNL     1      -8.653  17.014  66.000  1.00  0.00    -0.164 A  
HETATM   30  N   UNL     1      -6.809  21.252  67.496  1.00  0.00    -0.523 NA 
ENDBRANCH  21  23
ENDBRANCH  19  21
ENDBRANCH  13  15
ENDBRANCH   5  13
TORSDOF 5
ENDMDL
MODEL       92
REMARK 921   NORMALIZED FREE ENERGY PREDICTED BY IDOCK:   -5.75 KCAL/MOL
REMARK 922        TOTAL FREE ENERGY PREDICTED BY IDOCK:   -8.21 KCAL/MOL
REMARK 923 INTER-LIGAND FREE ENERGY PREDICTED BY IDOCK:   -7.43 KCAL/MOL
REMARK 924 INTRA-LIGAND FREE ENERGY PREDICTED BY IDOCK:   -0.77 KCAL/MOL
REMARK 927      BINDING AFFINITY PREDICTED BY RF-SCORE:    0.00 PKD
ROOT
HETATM    1  C   UNL     1      -7.958  12.470  67.577  1.00  0.00    -0.175 C  
HETATM    2  C   UNL     1      -9.081  13.347  67.096  1.00  0.00    -0.235 A  
HETATM    3  C   UNL     1      -8.844  14.739  67.117  1.00  0.00    -0.234 A  
HETATM    4  C   UNL     1      -9.801  15.672  66.713  1.00  0.00    -0.255 A  
HETATM    5  C   UNL     1     -10.356  12.867  66.726  1.00  0.00    -0.245 A  
HETATM    6  C   UNL     1     -11.014  15.189  66.224  1.00  0.00    -0.335 A  
HETATM    7  C   UNL     1     -12.599  13.357  65.592  1.00  0.00    -0.496 C  
HETATM    8  C   UNL     1     -11.294  13.801  66.204  1.00  0.00    -0.320 A  
ENDROOT
BRANCH   4   9
HETATM    9  C   UNL     1      -9.481  17.099  66.900  1.00  0.00    -0.267 C  
HETATM   10  C   UNL     1     -10.350  18.119  66.914  1.00  0.00    -0.386 C  
HETATM   11  C   UNL     1      -9.903  19.465  67.056  1.00  0.00    -0.343 C  
HETATM   12  N   UNL     1      -9.526  20.556  67.162  1.00  0.00    -0.419 NA 
ENDBRANCH   4   9
BRANCH   5  13
HETATM   13  N   UNL     1     -10.755  11.523  66.954  1.00  0.00    -0.250 NA 
HETATM   14  H   UNL     1     -10.862  10.963  66.109  1.00  0.00     0.000 HD 
BRANCH  13  15
HETATM   15  C   UNL     1     -11.028  10.832  68.157  1.00  0.00    -0.257 A  
HETATM   16  C   UNL     1     -11.793  11.463  69.115  1.00  0.00    -0.413 A  
HETATM   17  C   UNL     1     -12.043  10.753  70.264  1.00  0.00    -0.348 A  
HETATM   18  N   UNL     1     -11.601   9.502  70.473  1.00  0.00    -0.267 NA 
HETATM   19  C   UNL     1     -10.859   8.956  69.498  1.00  0.00    -0.153 A  
HETATM   20  N   UNL     1     -10.571   9.590  68.351  1.00  0.00    -0.226 NA 
BRANCH  19  21
HETATM   21  N   UNL     1     -10.386   7.665  69.743  1.00  0.00    -0.218 NA 
HETATM   22  H   UNL     1     -10.229   7.452  70.728  1.00  0.00     0.000 HD 
BRANCH  21  23
HETATM   23  C   UNL     1     -10.090   6.612  68.867  1.00  0.00    -0.165 A  
HETATM   24  C   UNL     1      -9.004   5.747  69.043  1.00  0.00    -0.117 A  
HETATM   25  C   UNL     1      -8.762   4.681  68.178  1.00  0.00    -0.113 A  
HETATM   26  C   UNL     1      -9.605   4.470  67.087  1.00  0.00    -0.209 A  
HETATM   27  C   UNL     1      -9.377   3.350  66.225  1.00  0.00    -0.145 C  
HETATM   28  C   UNL     1     -10.661   5.350  66.855  1.00  0.00    -0.320 A  
HETATM   29  C   UNL     1     -10.897   6.415  67.735  1.00  0.00    -0.418 A  
HETATM   30  N   UNL     1      -9.193   2.430  65.540  1.00  0.00    -0.105 NA 
ENDBRANCH  21  23
ENDBRANCH  19  21
ENDBRANCH  13  15
ENDBRANCH   5  13
TORSDOF 5
ENDMDL
MODEL       93
REMARK 921   NORMALIZED FREE ENERGY PREDICTED BY IDOCK:   -5.69 KCAL/MOL
REMARK 922        TOTAL FREE ENERGY PREDICTED BY IDOCK:   -8.14 KCAL/MOL
REMARK 923 INTER-LIGAND FREE ENERGY PREDICTED BY IDOCK:   -7.17 KCAL/MOL
REMARK 924 INTRA-LIGAND FREE ENERGY PREDICTED BY IDOCK:   -0.97 KCAL/MOL
REMARK 927      BINDING AFFINITY PREDICTED BY RF-SCORE:    0.00 PKD
ROOT
HETATM    1  C   UNL     1     -11.913  13.692  66.364  1.00  0.00    -0.466 C  
HETATM    2  C   UNL     1     -11.537  14.630  67.477  1.00  0.00    -0.396 A  
HETATM    3  C   UNL     1     -10.742  15.741  67.120  1.00  0.00    -0.312 A  
HETATM    4  C   UNL     1     -10.305  16.686  68.052  1.00  0.00    -0.303 A  
HETATM    5  C   UNL     1     -11.850  14.410  68.836  1.00  0.00    -0.320 A  
HETATM    6  C   UNL     1     -10.725  16.537  69.373  1.00  0.00    -0.330 A  
HETATM    7  C   UNL     1     -11.983  15.379  71.203  1.00  0.00    -0.414 C  
HETATM    8  C   UNL     1     -11.509  15.428  69.771  1.00  0.00    -0.338 A  
ENDROOT
BRANCH   4   9
HETATM    9  C   UNL     1      -9.378  17.729  67.579  1.00  0.00    -0.245 C  
HETATM   10  C   UNL     1      -8.968  18.806  68.263  1.00  0.00    -0.355 C  
HETATM   11  C   UNL     1      -8.102  19.769  67.670  1.00  0.00    -0.296 C  
HETATM   12  N   UNL     1      -7.405  20.551  67.173  1.00  0.00    -0.309 NA 
ENDBRANCH   4   9
BRANCH   5  13
HETATM   13  N   UNL     1     -12.390  13.181  69.300  1.00  0.00    -0.087 NA 
HETATM   14  H   UNL     1     -13.409  13.147  69.324  1.00  0.00     0.000 HD 
BRANCH  13  15
HETATM   15  C   UNL     1     -11.752  11.997  69.733  1.00  0.00    -0.319 A  
HETATM   16  C   UNL     1     -12.335  11.274  70.752  1.00  0.00    -0.495 A  
HETATM   17  C   UNL     1     -11.689  10.124  71.135  1.00  0.00    -0.366 A  
HETATM   18  N   UNL     1     -10.557   9.683  70.560  1.00  0.00    -0.284 NA 
HETATM   19  C   UNL     1     -10.046  10.442  69.579  1.00  0.00    -0.219 A  
HETATM   20  N   UNL     1     -10.621  11.578  69.154  1.00  0.00    -0.180 NA 
BRANCH  19  21
HETATM   21  N   UNL     1      -8.857   9.983  69.010  1.00  0.00    -0.149 NA 
HETATM   22  H   UNL     1      -8.024  10.155  69.573  1.00  0.00     0.000 HD 
BRANCH  21  23
HETATM   23  C   UNL     1      -8.611   9.325  67.798  1.00  0.00    -0.117 A  
HETATM   24  C   UNL     1      -8.442   7.940  67.693  1.00  0.00    -0.127 A  
HETATM   25  C   UNL     1      -8.242   7.310  66.466  1.00  0.00    -0.117 A  
HETATM   26  C   UNL     1      -8.186   8.072  65.299  1.00  0.00    -0.148 A  
HETATM   27  C   UNL     1      -8.023   7.417  64.037  1.00  0.00    -0.091 C  
HETATM   28  C   UNL     1      -8.296   9.459  65.379  1.00  0.00    -0.143 A  
HETATM   29  C   UNL     1      -8.501  10.080  66.618  1.00  0.00    -0.126 A  
HETATM   30  N   UNL     1      -7.905   6.875  63.015  1.00  0.00    -0.113 NA 
ENDBRANCH  21  23
ENDBRANCH  19  21
ENDBRANCH  13  15
ENDBRANCH   5  13
TORSDOF 5
ENDMDL
MODEL       94
REMARK 921   NORMALIZED FREE ENERGY PREDICTED BY IDOCK:   -5.68 KCAL/MOL
REMARK 922        TOTAL FREE ENERGY PREDICTED BY IDOCK:   -8.12 KCAL/MOL
REMARK 923 INTER-LIGAND FREE ENERGY PREDICTED BY IDOCK:   -7.41 KCAL/MOL
REMARK 924 INTRA-LIGAND FREE ENERGY PREDICTED BY IDOCK:   -0.70 KCAL/MOL
REMARK 927      BINDING AFFINITY PREDICTED BY RF-SCORE:    0.00 PKD
ROOT
HETATM    1  C   UNL     1     -12.329  13.961  70.918  1.00  0.00    -0.451 C  
HETATM    2  C   UNL     1     -11.790  13.895  69.516  1.00  0.00    -0.383 A  
HETATM    3  C   UNL     1     -11.333  15.110  68.961  1.00  0.00    -0.307 A  
HETATM    4  C   UNL     1     -10.821  15.201  67.665  1.00  0.00    -0.295 A  
HETATM    5  C   UNL     1     -11.805  12.731  68.718  1.00  0.00    -0.307 A  
HETATM    6  C   UNL     1     -10.716  14.025  66.924  1.00  0.00    -0.285 A  
HETATM    7  C   UNL     1     -10.963  11.553  66.606  1.00  0.00    -0.349 C  
HETATM    8  C   UNL     1     -11.179  12.791  67.441  1.00  0.00    -0.337 A  
ENDROOT
BRANCH   4   9
HETATM    9  C   UNL     1     -10.494  16.545  67.156  1.00  0.00    -0.300 C  
HETATM   10  C   UNL     1      -9.289  16.983  66.768  1.00  0.00    -0.268 C  
HETATM   11  C   UNL     1      -9.097  18.328  66.338  1.00  0.00    -0.249 C  
HETATM   12  N   UNL     1      -8.951  19.427  66.000  1.00  0.00    -0.437 NA 
ENDBRANCH   4   9
BRANCH   5  13
HETATM   13  N   UNL     1     -12.507  11.558  69.103  1.00  0.00    -0.217 NA 
HETATM   14  H   UNL     1     -13.421  11.447  68.664  1.00  0.00     0.000 HD 
BRANCH  13  15
HETATM   15  C   UNL     1     -12.150  10.518  69.991  1.00  0.00    -0.274 A  
HETATM   16  C   UNL     1     -12.818  10.428  71.194  1.00  0.00    -0.511 A  
HETATM   17  C   UNL     1     -12.449   9.397  72.024  1.00  0.00    -0.365 A  
HETATM   18  N   UNL     1     -11.506   8.493  71.709  1.00  0.00    -0.288 NA 
HETATM   19  C   UNL     1     -10.897   8.649  70.524  1.00  0.00    -0.228 A  
HETATM   20  N   UNL     1     -11.203   9.632  69.664  1.00  0.00    -0.189 NA 
BRANCH  19  21
HETATM   21  N   UNL     1      -9.902   7.716  70.224  1.00  0.00    -0.180 NA 
HETATM   22  H   UNL     1      -9.321   7.961  69.422  1.00  0.00     0.000 HD 
BRANCH  21  23
HETATM   23  C   UNL     1      -9.566   6.501  70.834  1.00  0.00    -0.175 A  
HETATM   24  C   UNL     1     -10.410   5.384  70.843  1.00  0.00    -0.312 A  
HETATM   25  C   UNL     1     -10.028   4.174  71.420  1.00  0.00    -0.223 A  
HETATM   26  C   UNL     1      -8.779   4.063  72.031  1.00  0.00    -0.124 A  
HETATM   27  C   UNL     1      -8.375   2.807  72.586  1.00  0.00    -0.070 C  
HETATM   28  C   UNL     1      -7.941   5.175  72.086  1.00  0.00    -0.112 A  
HETATM   29  C   UNL     1      -8.334   6.384  71.498  1.00  0.00    -0.125 A  
HETATM   30  N   UNL     1      -8.049   1.780  73.021  1.00  0.00    -0.051 NA 
ENDBRANCH  21  23
ENDBRANCH  19  21
ENDBRANCH  13  15
ENDBRANCH   5  13
TORSDOF 5
ENDMDL
MODEL       95
REMARK 921   NORMALIZED FREE ENERGY PREDICTED BY IDOCK:   -5.66 KCAL/MOL
REMARK 922        TOTAL FREE ENERGY PREDICTED BY IDOCK:   -8.10 KCAL/MOL
REMARK 923 INTER-LIGAND FREE ENERGY PREDICTED BY IDOCK:   -7.45 KCAL/MOL
REMARK 924 INTRA-LIGAND FREE ENERGY PREDICTED BY IDOCK:   -0.65 KCAL/MOL
REMARK 927      BINDING AFFINITY PREDICTED BY RF-SCORE:    0.00 PKD
ROOT
HETATM    1  C   UNL     1     -11.093  16.191  64.843  1.00  0.00    -0.336 C  
HETATM    2  C   UNL     1     -10.914  16.078  66.331  1.00  0.00    -0.070 A  
HETATM    3  C   UNL     1     -10.001  16.976  66.924  1.00  0.00    -0.289 A  
HETATM    4  C   UNL     1      -9.723  16.975  68.293  1.00  0.00    -0.275 A  
HETATM    5  C   UNL     1     -11.523  15.083  67.127  1.00  0.00    -0.297 A  
HETATM    6  C   UNL     1     -10.424  16.078  69.097  1.00  0.00    -0.251 A  
HETATM    7  C   UNL     1     -12.107  14.264  69.482  1.00  0.00    -0.376 C  
HETATM    8  C   UNL     1     -11.335  15.151  68.536  1.00  0.00    -0.321 A  
ENDROOT
BRANCH   4   9
HETATM    9  C   UNL     1      -8.660  17.876  68.772  1.00  0.00    -0.208 C  
HETATM   10  C   UNL     1      -8.049  18.838  68.067  1.00  0.00    -0.308 C  
HETATM   11  C   UNL     1      -6.996  19.612  68.636  1.00  0.00    -0.326 C  
HETATM   12  N   UNL     1      -6.134  20.228  69.107  1.00  0.00    -0.320 NA 
ENDBRANCH   4   9
BRANCH   5  13
HETATM   13  N   UNL     1     -12.217  13.980  66.562  1.00  0.00    -0.459 NA 
HETATM   14  H   UNL     1     -13.168  13.855  66.907  1.00  0.00     0.000 HD 
BRANCH  13  15
HETATM   15  C   UNL     1     -11.809  13.027  65.601  1.00  0.00    -0.399 A  
HETATM   16  C   UNL     1     -12.505  12.958  64.412  1.00  0.00    -0.447 A  
HETATM   17  C   UNL     1     -12.070  12.026  63.502  1.00  0.00    -0.526 A  
HETATM   18  N   UNL     1     -11.016  11.219  63.712  1.00  0.00    -0.369 NA 
HETATM   19  C   UNL     1     -10.393  11.341  64.894  1.00  0.00    -0.304 A  
HETATM   20  N   UNL     1     -10.763  12.226  65.832  1.00  0.00    -0.251 NA 
BRANCH  19  21
HETATM   21  N   UNL     1      -9.316  10.478  65.107  1.00  0.00    -0.198 NA 
HETATM   22  H   UNL     1      -8.534  10.613  64.467  1.00  0.00     0.000 HD 
BRANCH  21  23
HETATM   23  C   UNL     1      -9.127   9.458  66.048  1.00  0.00    -0.183 A  
HETATM   24  C   UNL     1      -9.119   9.678  67.430  1.00  0.00    -0.144 A  
HETATM   25  C   UNL     1      -8.972   8.635  68.344  1.00  0.00    -0.142 A  
HETATM   26  C   UNL     1      -8.805   7.329  67.882  1.00  0.00    -0.128 A  
HETATM   27  C   UNL     1      -8.696   6.257  68.823  1.00  0.00    -0.121 C  
HETATM   28  C   UNL     1      -8.752   7.088  66.510  1.00  0.00    -0.138 A  
HETATM   29  C   UNL     1      -8.906   8.144  65.602  1.00  0.00    -0.160 A  
HETATM   30  N   UNL     1      -8.623   5.391  69.594  1.00  0.00    -0.102 NA 
ENDBRANCH  21  23
ENDBRANCH  19  21
ENDBRANCH  13  15
ENDBRANCH   5  13
TORSDOF 5
ENDMDL
MODEL       96
REMARK 921   NORMALIZED FREE ENERGY PREDICTED BY IDOCK:   -5.65 KCAL/MOL
REMARK 922        TOTAL FREE ENERGY PREDICTED BY IDOCK:   -8.08 KCAL/MOL
REMARK 923 INTER-LIGAND FREE ENERGY PREDICTED BY IDOCK:   -7.19 KCAL/MOL
REMARK 924 INTRA-LIGAND FREE ENERGY PREDICTED BY IDOCK:   -0.89 KCAL/MOL
REMARK 927      BINDING AFFINITY PREDICTED BY RF-SCORE:    0.00 PKD
ROOT
HETATM    1  C   UNL     1      -8.786  10.874  62.644  1.00  0.00    -0.333 C  
HETATM    2  C   UNL     1      -8.819  10.132  63.951  1.00  0.00    -0.248 A  
HETATM    3  C   UNL     1      -7.843   9.128  64.127  1.00  0.00    -0.128 A  
HETATM    4  C   UNL     1      -7.764   8.349  65.284  1.00  0.00    -0.098 A  
HETATM    5  C   UNL     1      -9.808  10.320  64.941  1.00  0.00    -0.336 A  
HETATM    6  C   UNL     1      -8.660   8.625  66.316  1.00  0.00    -0.151 A  
HETATM    7  C   UNL     1     -10.546   9.901  67.357  1.00  0.00    -0.338 C  
HETATM    8  C   UNL     1      -9.663   9.613  66.168  1.00  0.00    -0.317 A  
ENDROOT
BRANCH   4   9
HETATM    9  C   UNL     1      -6.782   7.249  65.298  1.00  0.00    -0.048 C  
HETATM   10  C   UNL     1      -7.051   5.938  65.367  1.00  0.00    -0.065 C  
HETATM   11  C   UNL     1      -6.003   4.974  65.422  1.00  0.00    -0.025 C  
HETATM   12  N   UNL     1      -5.141   4.200  65.475  1.00  0.00    -0.008 NA 
ENDBRANCH   4   9
BRANCH   5  13
HETATM   13  N   UNL     1     -10.974  11.097  64.710  1.00  0.00    -0.212 NA 
HETATM   14  H   UNL     1     -11.808  10.554  64.485  1.00  0.00     0.000 HD 
BRANCH  13  15
HETATM   15  C   UNL     1     -11.173  12.496  64.741  1.00  0.00    -0.306 A  
HETATM   16  C   UNL     1     -11.812  13.089  63.673  1.00  0.00    -0.580 A  
HETATM   17  C   UNL     1     -11.994  14.449  63.747  1.00  0.00     0.042 A  
HETATM   18  N   UNL     1     -11.603  15.194  64.795  1.00  0.00    -0.395 NA 
HETATM   19  C   UNL     1     -10.984  14.547  65.793  1.00  0.00    -0.319 A  
HETATM   20  N   UNL     1     -10.768  13.222  65.789  1.00  0.00    -0.274 NA 
BRANCH  19  21
HETATM   21  N   UNL     1     -10.561  15.339  66.862  1.00  0.00    -0.298 NA 
HETATM   22  H   UNL     1     -10.755  14.945  67.783  1.00  0.00     0.000 HD 
BRANCH  21  23
HETATM   23  C   UNL     1      -9.917  16.583  66.888  1.00  0.00    -0.271 A  
HETATM   24  C   UNL     1     -10.536  17.762  67.316  1.00  0.00    -0.356 A  
HETATM   25  C   UNL     1      -9.854  18.977  67.371  1.00  0.00    -0.386 A  
HETATM   26  C   UNL     1      -8.519  19.040  66.971  1.00  0.00    -0.300 A  
HETATM   27  C   UNL     1      -7.812  20.279  67.068  1.00  0.00    -0.329 C  
HETATM   28  C   UNL     1      -7.894  17.892  66.486  1.00  0.00    -0.298 A  
HETATM   29  C   UNL     1      -8.588  16.677  66.440  1.00  0.00    -0.345 A  
HETATM   30  N   UNL     1      -7.240  21.287  67.165  1.00  0.00    -0.471 NA 
ENDBRANCH  21  23
ENDBRANCH  19  21
ENDBRANCH  13  15
ENDBRANCH   5  13
TORSDOF 5
ENDMDL
MODEL       97
REMARK 921   NORMALIZED FREE ENERGY PREDICTED BY IDOCK:   -5.63 KCAL/MOL
REMARK 922        TOTAL FREE ENERGY PREDICTED BY IDOCK:   -8.06 KCAL/MOL
REMARK 923 INTER-LIGAND FREE ENERGY PREDICTED BY IDOCK:   -7.53 KCAL/MOL
REMARK 924 INTRA-LIGAND FREE ENERGY PREDICTED BY IDOCK:   -0.53 KCAL/MOL
REMARK 927      BINDING AFFINITY PREDICTED BY RF-SCORE:    0.00 PKD
ROOT
HETATM    1  C   UNL     1      -7.836  13.589  67.777  1.00  0.00    -0.167 C  
HETATM    2  C   UNL     1      -9.336  13.653  67.702  1.00  0.00    -0.215 A  
HETATM    3  C   UNL     1      -9.998  14.205  68.821  1.00  0.00    -0.184 A  
HETATM    4  C   UNL     1     -11.388  14.314  68.896  1.00  0.00    -0.302 A  
HETATM    5  C   UNL     1     -10.099  13.117  66.641  1.00  0.00    -0.264 A  
HETATM    6  C   UNL     1     -12.133  13.903  67.792  1.00  0.00    -0.328 A  
HETATM    7  C   UNL     1     -12.375  12.978  65.477  1.00  0.00    -0.527 C  
HETATM    8  C   UNL     1     -11.506  13.329  66.659  1.00  0.00    -0.384 A  
ENDROOT
BRANCH   4   9
HETATM    9  C   UNL     1     -11.965  14.791  70.166  1.00  0.00    -0.367 C  
HETATM   10  C   UNL     1     -11.343  14.858  71.351  1.00  0.00    -0.246 C  
HETATM   11  C   UNL     1     -12.032  15.296  72.520  1.00  0.00    -0.424 C  
HETATM   12  N   UNL     1     -12.606  15.644  73.465  1.00  0.00    -0.492 NA 
ENDBRANCH   4   9
BRANCH   5  13
HETATM   13  N   UNL     1      -9.524  12.298  65.634  1.00  0.00    -0.420 NA 
HETATM   14  H   UNL     1      -9.170  12.807  64.824  1.00  0.00     0.000 HD 
BRANCH  13  15
HETATM   15  C   UNL     1      -9.359  10.896  65.565  1.00  0.00    -0.206 A  
HETATM   16  C   UNL     1      -8.374  10.393  64.741  1.00  0.00    -0.157 A  
HETATM   17  C   UNL     1      -8.240   9.026  64.712  1.00  0.00    -0.160 A  
HETATM   18  N   UNL     1      -8.995   8.190  65.445  1.00  0.00    -0.047 NA 
HETATM   19  C   UNL     1      -9.935   8.753  66.218  1.00  0.00    -0.245 A  
HETATM   20  N   UNL     1     -10.126  10.079  66.296  1.00  0.00    -0.245 NA 
BRANCH  19  21
HETATM   21  N   UNL     1     -10.727   7.870  66.955  1.00  0.00    -0.449 NA 
HETATM   22  H   UNL     1     -11.731   8.020  66.855  1.00  0.00     0.000 HD 
BRANCH  21  23
HETATM   23  C   UNL     1     -10.380   6.814  67.807  1.00  0.00    -0.198 A  
HETATM   24  C   UNL     1     -10.961   6.616  69.065  1.00  0.00    -0.332 A  
HETATM   25  C   UNL     1     -10.625   5.531  69.871  1.00  0.00    -0.387 A  
HETATM   26  C   UNL     1      -9.667   4.615  69.435  1.00  0.00    -0.272 A  
HETATM   27  C   UNL     1      -9.356   3.479  70.248  1.00  0.00    -0.172 C  
HETATM   28  C   UNL     1      -9.031   4.818  68.212  1.00  0.00    -0.132 A  
HETATM   29  C   UNL     1      -9.380   5.911  67.408  1.00  0.00    -0.111 A  
HETATM   30  N   UNL     1      -9.120   2.552  70.908  1.00  0.00    -0.100 NA 
ENDBRANCH  21  23
ENDBRANCH  19  21
ENDBRANCH  13  15
ENDBRANCH   5  13
TORSDOF 5
ENDMDL
MODEL       98
REMARK 921   NORMALIZED FREE ENERGY PREDICTED BY IDOCK:   -5.63 KCAL/MOL
REMARK 922        TOTAL FREE ENERGY PREDICTED BY IDOCK:   -8.05 KCAL/MOL
REMARK 923 INTER-LIGAND FREE ENERGY PREDICTED BY IDOCK:   -7.15 KCAL/MOL
REMARK 924 INTRA-LIGAND FREE ENERGY PREDICTED BY IDOCK:   -0.90 KCAL/MOL
REMARK 927      BINDING AFFINITY PREDICTED BY RF-SCORE:    0.00 PKD
ROOT
HETATM    1  C   UNL     1      -8.244   9.341  70.861  1.00  0.00    -0.179 C  
HETATM    2  C   UNL     1      -9.586   8.954  71.420  1.00  0.00    -0.359 A  
HETATM    3  C   UNL     1      -9.652   7.716  72.095  1.00  0.00    -0.207 A  
HETATM    4  C   UNL     1     -10.835   7.224  72.651  1.00  0.00    -0.331 A  
HETATM    5  C   UNL     1     -10.768   9.703  71.226  1.00  0.00    -0.247 A  
HETATM    6  C   UNL     1     -11.973   8.025  72.572  1.00  0.00    -0.384 A  
HETATM    7  C   UNL     1     -13.202  10.105  71.912  1.00  0.00    -0.557 C  
HETATM    8  C   UNL     1     -11.948   9.265  71.889  1.00  0.00    -0.433 A  
ENDROOT
BRANCH   4   9
HETATM    9  C   UNL     1     -10.805   5.863  73.218  1.00  0.00    -0.291 C  
HETATM   10  C   UNL     1      -9.715   5.124  73.465  1.00  0.00    -0.159 C  
HETATM   11  C   UNL     1      -9.826   3.797  73.973  1.00  0.00    -0.115 C  
HETATM   12  N   UNL     1      -9.929   2.715  74.377  1.00  0.00    -0.107 NA 
ENDBRANCH   4   9
BRANCH   5  13
HETATM   13  N   UNL     1     -10.832  10.796  70.323  1.00  0.00    -0.454 NA 
HETATM   14  H   UNL     1     -10.967  11.705  70.765  1.00  0.00     0.000 HD 
BRANCH  13  15
HETATM   15  C   UNL     1     -10.741  10.836  68.913  1.00  0.00    -0.222 A  
HETATM   16  C   UNL     1     -10.922  12.047  68.279  1.00  0.00    -0.275 A  
HETATM   17  C   UNL     1     -10.815  12.045  66.910  1.00  0.00    -0.259 A  
HETATM   18  N   UNL     1     -10.530  10.946  66.191  1.00  0.00    -0.246 NA 
HETATM   19  C   UNL     1     -10.372   9.804  66.876  1.00  0.00    -0.234 A  
HETATM   20  N   UNL     1     -10.465   9.730  68.213  1.00  0.00    -0.205 NA 
BRANCH  19  21
HETATM   21  N   UNL     1     -10.101   8.667  66.112  1.00  0.00    -0.441 NA 
HETATM   22  H   UNL     1     -10.022   8.841  65.110  1.00  0.00     0.000 HD 
BRANCH  21  23
HETATM   23  C   UNL     1      -9.920   7.329  66.485  1.00  0.00    -0.112 A  
HETATM   24  C   UNL     1     -10.882   6.586  67.179  1.00  0.00    -0.472 A  
HETATM   25  C   UNL     1     -10.689   5.243  67.498  1.00  0.00    -0.063 A  
HETATM   26  C   UNL     1      -9.498   4.611  67.140  1.00  0.00    -0.171 A  
HETATM   27  C   UNL     1      -9.322   3.221  67.432  1.00  0.00    -0.201 C  
HETATM   28  C   UNL     1      -8.500   5.341  66.498  1.00  0.00    -0.112 A  
HETATM   29  C   UNL     1      -8.707   6.690  66.179  1.00  0.00    -0.154 A  
HETATM   30  N   UNL     1      -9.194   2.089  67.661  1.00  0.00    -0.164 NA 
ENDBRANCH  21  23
ENDBRANCH  19  21
ENDBRANCH  13  15
ENDBRANCH   5  13
TORSDOF 5
ENDMDL
MODEL       99
REMARK 921   NORMALIZED FREE ENERGY PREDICTED BY IDOCK:   -5.62 KCAL/MOL
REMARK 922        TOTAL FREE ENERGY PREDICTED BY IDOCK:   -8.05 KCAL/MOL
REMARK 923 INTER-LIGAND FREE ENERGY PREDICTED BY IDOCK:   -7.61 KCAL/MOL
REMARK 924 INTRA-LIGAND FREE ENERGY PREDICTED BY IDOCK:   -0.44 KCAL/MOL
REMARK 927      BINDING AFFINITY PREDICTED BY RF-SCORE:    0.00 PKD
ROOT
HETATM    1  C   UNL     1      -9.796  11.256  64.908  1.00  0.00    -0.310 C  
HETATM    2  C   UNL     1      -9.705  10.234  66.007  1.00  0.00    -0.274 A  
HETATM    3  C   UNL     1      -8.843   9.140  65.778  1.00  0.00    -0.210 A  
HETATM    4  C   UNL     1      -8.671   8.109  66.705  1.00  0.00    -0.152 A  
HETATM    5  C   UNL     1     -10.488  10.265  67.182  1.00  0.00    -0.254 A  
HETATM    6  C   UNL     1      -9.347   8.208  67.920  1.00  0.00    -0.145 A  
HETATM    7  C   UNL     1     -10.868   9.356  69.545  1.00  0.00    -0.231 C  
HETATM    8  C   UNL     1     -10.232   9.282  68.179  1.00  0.00    -0.246 A  
ENDROOT
BRANCH   4   9
HETATM    9  C   UNL     1      -7.842   6.960  66.298  1.00  0.00    -0.101 C  
HETATM   10  C   UNL     1      -8.251   5.879  65.619  1.00  0.00    -0.134 C  
HETATM   11  C   UNL     1      -7.355   4.810  65.329  1.00  0.00    -0.072 C  
HETATM   12  N   UNL     1      -6.618   3.942  65.107  1.00  0.00    -0.045 NA 
ENDBRANCH   4   9
BRANCH   5  13
HETATM   13  N   UNL     1     -11.573  11.168  67.346  1.00  0.00    -0.537 NA 
HETATM   14  H   UNL     1     -12.493  10.757  67.191  1.00  0.00     0.000 HD 
BRANCH  13  15
HETATM   15  C   UNL     1     -11.590  12.539  67.686  1.00  0.00    -0.355 A  
HETATM   16  C   UNL     1     -12.129  12.904  68.902  1.00  0.00    -0.182 A  
HETATM   17  C   UNL     1     -12.116  14.245  69.199  1.00  0.00    -0.302 A  
HETATM   18  N   UNL     1     -11.599  15.181  68.384  1.00  0.00    -0.332 NA 
HETATM   19  C   UNL     1     -11.098  14.750  67.217  1.00  0.00    -0.332 A  
HETATM   20  N   UNL     1     -11.078  13.457  66.859  1.00  0.00    -0.287 NA 
BRANCH  19  21
HETATM   21  N   UNL     1     -10.588  15.737  66.372  1.00  0.00    -0.309 NA 
HETATM   22  H   UNL     1     -10.834  15.620  65.389  1.00  0.00     0.000 HD 
BRANCH  21  23
HETATM   23  C   UNL     1      -9.797  16.861  66.642  1.00  0.00    -0.287 A  
HETATM   24  C   UNL     1      -8.430  16.929  66.349  1.00  0.00    -0.325 A  
HETATM   25  C   UNL     1      -7.679  18.078  66.590  1.00  0.00    -0.268 A  
HETATM   26  C   UNL     1      -8.289  19.196  67.160  1.00  0.00    -0.300 A  
HETATM   27  C   UNL     1      -7.524  20.388  67.367  1.00  0.00    -0.322 C  
HETATM   28  C   UNL     1      -9.635  19.137  67.514  1.00  0.00    -0.373 A  
HETATM   29  C   UNL     1     -10.381  17.978  67.262  1.00  0.00    -0.387 A  
HETATM   30  N   UNL     1      -6.898  21.356  67.518  1.00  0.00    -0.538 NA 
ENDBRANCH  21  23
ENDBRANCH  19  21
ENDBRANCH  13  15
ENDBRANCH   5  13
TORSDOF 5
ENDMDL
MODEL      100
REMARK 921   NORMALIZED FREE ENERGY PREDICTED BY IDOCK:   -5.60 KCAL/MOL
REMARK 922        TOTAL FREE ENERGY PREDICTED BY IDOCK:   -8.02 KCAL/MOL
REMARK 923 INTER-LIGAND FREE ENERGY PREDICTED BY IDOCK:   -7.09 KCAL/MOL
REMARK 924 INTRA-LIGAND FREE ENERGY PREDICTED BY IDOCK:   -0.93 KCAL/MOL
REMARK 927      BINDING AFFINITY PREDICTED BY RF-SCORE:    0.00 PKD
ROOT
HETATM    1  C   UNL     1     -10.961   7.067  66.977  1.00  0.00    -0.357 C  
HETATM    2  C   UNL     1     -10.023   7.370  68.113  1.00  0.00    -0.190 A  
HETATM    3  C   UNL     1     -10.141   6.554  69.259  1.00  0.00    -0.192 A  
HETATM    4  C   UNL     1      -9.347   6.730  70.395  1.00  0.00    -0.163 A  
HETATM    5  C   UNL     1      -9.124   8.458  68.127  1.00  0.00    -0.138 A  
HETATM    6  C   UNL     1      -8.369   7.723  70.356  1.00  0.00    -0.123 A  
HETATM    7  C   UNL     1      -7.103   9.572  69.238  1.00  0.00    -0.058 C  
HETATM    8  C   UNL     1      -8.232   8.571  69.231  1.00  0.00    -0.115 A  
ENDROOT
BRANCH   4   9
HETATM    9  C   UNL     1      -9.650   5.897  71.572  1.00  0.00    -0.175 C  
HETATM   10  C   UNL     1     -10.651   6.080  72.445  1.00  0.00    -0.254 C  
HETATM   11  C   UNL     1     -10.806   5.226  73.576  1.00  0.00    -0.304 C  
HETATM   12  N   UNL     1     -10.916   4.531  74.497  1.00  0.00    -0.204 NA 
ENDBRANCH   4   9
BRANCH   5  13
HETATM   13  N   UNL     1      -9.156   9.480  67.141  1.00  0.00    -0.133 NA 
HETATM   14  H   UNL     1      -8.530   9.327  66.351  1.00  0.00     0.000 HD 
BRANCH  13  15
HETATM   15  C   UNL     1      -9.911  10.673  67.072  1.00  0.00    -0.185 A  
HETATM   16  C   UNL     1     -11.066  10.761  67.819  1.00  0.00    -0.381 A  
HETATM   17  C   UNL     1     -11.765  11.940  67.731  1.00  0.00    -0.292 A  
HETATM   18  N   UNL     1     -11.366  12.984  66.984  1.00  0.00    -0.286 NA 
HETATM   19  C   UNL     1     -10.235  12.822  66.282  1.00  0.00    -0.253 A  
HETATM   20  N   UNL     1      -9.503  11.699  66.316  1.00  0.00    -0.213 NA 
BRANCH  19  21
HETATM   21  N   UNL     1      -9.848  13.907  65.492  1.00  0.00    -0.515 NA 
HETATM   22  H   UNL     1      -9.547  13.657  64.550  1.00  0.00     0.000 HD 
BRANCH  21  23
HETATM   23  C   UNL     1      -9.803  15.279  65.771  1.00  0.00    -0.361 A  
HETATM   24  C   UNL     1     -10.731  16.198  65.269  1.00  0.00    -0.386 A  
HETATM   25  C   UNL     1     -10.685  17.551  65.600  1.00  0.00    -0.089 A  
HETATM   26  C   UNL     1      -9.677  18.023  66.441  1.00  0.00    -0.324 A  
HETATM   27  C   UNL     1      -9.659  19.405  66.812  1.00  0.00    -0.346 C  
HETATM   28  C   UNL     1      -8.707  17.140  66.911  1.00  0.00    -0.254 A  
HETATM   29  C   UNL     1      -8.766  15.782  66.574  1.00  0.00    -0.354 A  
HETATM   30  N   UNL     1      -9.660  20.526  67.120  1.00  0.00    -0.441 NA 
ENDBRANCH  21  23
ENDBRANCH  19  21
ENDBRANCH  13  15
ENDBRANCH   5  13
TORSDOF 5
ENDMDL
MODEL      101
REMARK 921   NORMALIZED FREE ENERGY PREDICTED BY IDOCK:   -5.55 KCAL/MOL
REMARK 922        TOTAL FREE ENERGY PREDICTED BY IDOCK:   -7.95 KCAL/MOL
REMARK 923 INTER-LIGAND FREE ENERGY PREDICTED BY IDOCK:   -6.88 KCAL/MOL
REMARK 924 INTRA-LIGAND FREE ENERGY PREDICTED BY IDOCK:   -1.07 KCAL/MOL
REMARK 927      BINDING AFFINITY PREDICTED BY RF-SCORE:    0.00 PKD
ROOT
HETATM    1  C   UNL     1     -10.640   8.483  67.396  1.00  0.00    -0.304 C  
HETATM    2  C   UNL     1      -9.266   9.057  67.601  1.00  0.00    -0.150 A  
HETATM    3  C   UNL     1      -8.762   9.028  68.919  1.00  0.00    -0.136 A  
HETATM    4  C   UNL     1      -7.508   9.539  69.258  1.00  0.00    -0.078 A  
HETATM    5  C   UNL     1      -8.516   9.692  66.586  1.00  0.00    -0.123 A  
HETATM    6  C   UNL     1      -6.714  10.048  68.231  1.00  0.00    -0.055 A  
HETATM    7  C   UNL     1      -6.245  10.607  65.836  1.00  0.00    -0.134 C  
HETATM    8  C   UNL     1      -7.192  10.109  66.900  1.00  0.00    -0.092 A  
ENDROOT
BRANCH   4   9
HETATM    9  C   UNL     1      -7.148   9.564  70.687  1.00  0.00    -0.128 C  
HETATM   10  C   UNL     1      -7.117   8.517  71.523  1.00  0.00    -0.096 C  
HETATM   11  C   UNL     1      -6.797   8.685  72.902  1.00  0.00     0.031 C  
HETATM   12  N   UNL     1      -6.545   8.835  74.023  1.00  0.00    -0.310 NA 
ENDBRANCH   4   9
BRANCH   5  13
HETATM   13  N   UNL     1      -9.073  10.013  65.320  1.00  0.00    -0.183 NA 
HETATM   14  H   UNL     1      -8.883   9.330  64.587  1.00  0.00     0.000 HD 
BRANCH  13  15
HETATM   15  C   UNL     1      -9.848  11.120  64.906  1.00  0.00    -0.266 A  
HETATM   16  C   UNL     1     -10.593  11.002  63.752  1.00  0.00    -0.365 A  
HETATM   17  C   UNL     1     -11.340  12.097  63.390  1.00  0.00    -0.411 A  
HETATM   18  N   UNL     1     -11.385  13.234  64.106  1.00  0.00    -0.386 NA 
HETATM   19  C   UNL     1     -10.630  13.275  65.214  1.00  0.00    -0.315 A  
HETATM   20  N   UNL     1      -9.874  12.247  65.627  1.00  0.00    -0.248 NA 
BRANCH  19  21
HETATM   21  N   UNL     1     -10.668  14.472  65.932  1.00  0.00    -0.295 NA 
HETATM   22  H   UNL     1     -10.379  15.294  65.400  1.00  0.00     0.000 HD 
BRANCH  21  23
HETATM   23  C   UNL     1     -11.034  14.738  67.258  1.00  0.00    -0.318 A  
HETATM   24  C   UNL     1     -11.856  13.895  68.014  1.00  0.00    -0.411 A  
HETATM   25  C   UNL     1     -12.167  14.165  69.345  1.00  0.00    -0.329 A  
HETATM   26  C   UNL     1     -11.667  15.318  69.952  1.00  0.00    -0.349 A  
HETATM   27  C   UNL     1     -11.955  15.570  71.331  1.00  0.00    -0.394 C  
HETATM   28  C   UNL     1     -10.892  16.204  69.207  1.00  0.00    -0.310 A  
HETATM   29  C   UNL     1     -10.583  15.919  67.871  1.00  0.00    -0.300 A  
HETATM   30  N   UNL     1     -12.181  15.759  72.455  1.00  0.00    -0.423 NA 
ENDBRANCH  21  23
ENDBRANCH  19  21
ENDBRANCH  13  15
ENDBRANCH   5  13
TORSDOF 5
ENDMDL
MODEL      102
REMARK 921   NORMALIZED FREE ENERGY PREDICTED BY IDOCK:   -5.55 KCAL/MOL
REMARK 922        TOTAL FREE ENERGY PREDICTED BY IDOCK:   -7.95 KCAL/MOL
REMARK 923 INTER-LIGAND FREE ENERGY PREDICTED BY IDOCK:   -7.12 KCAL/MOL
REMARK 924 INTRA-LIGAND FREE ENERGY PREDICTED BY IDOCK:   -0.83 KCAL/MOL
REMARK 927      BINDING AFFINITY PREDICTED BY RF-SCORE:    0.00 PKD
ROOT
HETATM    1  C   UNL     1     -10.864  11.251  68.924  1.00  0.00    -0.253 C  
HETATM    2  C   UNL     1     -10.422  10.800  67.559  1.00  0.00    -0.260 A  
HETATM    3  C   UNL     1      -9.451   9.776  67.520  1.00  0.00    -0.170 A  
HETATM    4  C   UNL     1      -8.937   9.270  66.324  1.00  0.00    -0.193 A  
HETATM    5  C   UNL     1     -10.847  11.399  66.353  1.00  0.00    -0.271 A  
HETATM    6  C   UNL     1      -9.454   9.772  65.131  1.00  0.00    -0.338 A  
HETATM    7  C   UNL     1     -10.978  11.247  63.800  1.00  0.00    -0.381 C  
HETATM    8  C   UNL     1     -10.416  10.810  65.131  1.00  0.00    -0.299 A  
ENDROOT
BRANCH   4   9
HETATM    9  C   UNL     1      -7.838   8.292  66.416  1.00  0.00    -0.095 C  
HETATM   10  C   UNL     1      -7.147   7.966  67.518  1.00  0.00    -0.083 C  
HETATM   11  C   UNL     1      -6.070   7.036  67.462  1.00  0.00    -0.036 C  
HETATM   12  N   UNL     1      -5.189   6.284  67.402  1.00  0.00    -0.005 NA 
ENDBRANCH   4   9
BRANCH   5  13
HETATM   13  N   UNL     1     -11.589  12.609  66.328  1.00  0.00    -0.364 NA 
HETATM   14  H   UNL     1     -12.547  12.526  66.670  1.00  0.00     0.000 HD 
BRANCH  13  15
HETATM   15  C   UNL     1     -11.224  13.909  65.910  1.00  0.00    -0.297 A  
HETATM   16  C   UNL     1     -12.166  14.675  65.257  1.00  0.00    -0.249 A  
HETATM   17  C   UNL     1     -11.774  15.935  64.877  1.00  0.00     0.057 A  
HETATM   18  N   UNL     1     -10.554  16.439  65.128  1.00  0.00    -0.663 NA 
HETATM   19  C   UNL     1      -9.690  15.633  65.763  1.00  0.00    -0.345 A  
HETATM   20  N   UNL     1     -10.002  14.390  66.161  1.00  0.00    -0.298 NA 
BRANCH  19  21
HETATM   21  N   UNL     1      -8.419  16.163  65.993  1.00  0.00    -0.261 NA 
HETATM   22  H   UNL     1      -7.701  15.833  65.348  1.00  0.00     0.000 HD 
BRANCH  21  23
HETATM   23  C   UNL     1      -7.960  17.069  66.957  1.00  0.00    -0.203 A  
HETATM   24  C   UNL     1      -7.639  16.701  68.269  1.00  0.00    -0.181 A  
HETATM   25  C   UNL     1      -7.143  17.619  69.193  1.00  0.00    -0.189 A  
HETATM   26  C   UNL     1      -6.976  18.953  68.822  1.00  0.00    -0.332 A  
HETATM   27  C   UNL     1      -6.428  19.883  69.762  1.00  0.00    -0.356 C  
HETATM   28  C   UNL     1      -7.342  19.360  67.540  1.00  0.00    -0.261 A  
HETATM   29  C   UNL     1      -7.834  18.427  66.618  1.00  0.00    -0.269 A  
HETATM   30  N   UNL     1      -5.968  20.628  70.526  1.00  0.00    -0.522 NA 
ENDBRANCH  21  23
ENDBRANCH  19  21
ENDBRANCH  13  15
ENDBRANCH   5  13
TORSDOF 5
ENDMDL
MODEL      103
REMARK 921   NORMALIZED FREE ENERGY PREDICTED BY IDOCK:   -5.47 KCAL/MOL
REMARK 922        TOTAL FREE ENERGY PREDICTED BY IDOCK:   -7.85 KCAL/MOL
REMARK 923 INTER-LIGAND FREE ENERGY PREDICTED BY IDOCK:   -8.08 KCAL/MOL
REMARK 924 INTRA-LIGAND FREE ENERGY PREDICTED BY IDOCK:    0.23 KCAL/MOL
REMARK 927      BINDING AFFINITY PREDICTED BY RF-SCORE:    0.00 PKD
ROOT
HETATM    1  C   UNL     1      -8.241  12.849  67.335  1.00  0.00    -0.187 C  
HETATM    2  C   UNL     1      -9.038  13.964  66.717  1.00  0.00    -0.238 A  
HETATM    3  C   UNL     1      -8.550  15.273  66.922  1.00  0.00    -0.289 A  
HETATM    4  C   UNL     1      -9.196  16.405  66.419  1.00  0.00    -0.335 A  
HETATM    5  C   UNL     1     -10.264  13.779  66.042  1.00  0.00    -0.308 A  
HETATM    6  C   UNL     1     -10.336  16.211  65.642  1.00  0.00    -0.405 A  
HETATM    7  C   UNL     1     -12.058  14.784  64.515  1.00  0.00    -0.460 C  
HETATM    8  C   UNL     1     -10.864  14.915  65.428  1.00  0.00    -0.379 A  
ENDROOT
BRANCH   4   9
HETATM    9  C   UNL     1      -8.659  17.722  66.806  1.00  0.00    -0.272 C  
HETATM   10  C   UNL     1      -7.424  17.982  67.256  1.00  0.00    -0.213 C  
HETATM   11  C   UNL     1      -7.044  19.299  67.645  1.00  0.00    -0.225 C  
HETATM   12  N   UNL     1      -6.749  20.373  67.967  1.00  0.00    -0.293 NA 
ENDBRANCH   4   9
BRANCH   5  13
HETATM   13  N   UNL     1     -10.953  12.538  66.050  1.00  0.00    -0.274 NA 
HETATM   14  H   UNL     1     -11.731  12.480  65.393  1.00  0.00     0.000 HD 
BRANCH  13  15
HETATM   15  C   UNL     1     -10.742  11.369  66.815  1.00  0.00    -0.271 A  
HETATM   16  C   UNL     1     -10.478  10.190  66.150  1.00  0.00    -0.173 A  
HETATM   17  C   UNL     1     -10.268   9.080  66.931  1.00  0.00    -0.269 A  
HETATM   18  N   UNL     1     -10.291   9.103  68.275  1.00  0.00    -0.207 NA 
HETATM   19  C   UNL     1     -10.559  10.284  68.850  1.00  0.00    -0.219 A  
HETATM   20  N   UNL     1     -10.777  11.409  68.152  1.00  0.00    -0.191 NA 
BRANCH  19  21
HETATM   21  N   UNL     1     -10.605  10.286  70.245  1.00  0.00    -0.419 NA 
HETATM   22  H   UNL     1     -10.623  11.214  70.667  1.00  0.00     0.000 HD 
BRANCH  21  23
HETATM   23  C   UNL     1     -10.629   9.230  71.166  1.00  0.00    -0.332 A  
HETATM   24  C   UNL     1     -11.809   8.712  71.712  1.00  0.00    -0.404 A  
HETATM   25  C   UNL     1     -11.804   7.632  72.593  1.00  0.00    -0.269 A  
HETATM   26  C   UNL     1     -10.592   7.051  72.968  1.00  0.00    -0.323 A  
HETATM   27  C   UNL     1     -10.594   5.917  73.840  1.00  0.00    -0.228 C  
HETATM   28  C   UNL     1      -9.398   7.582  72.484  1.00  0.00    -0.200 A  
HETATM   29  C   UNL     1      -9.417   8.666  71.596  1.00  0.00    -0.339 A  
HETATM   30  N   UNL     1     -10.606   4.986  74.536  1.00  0.00    -0.360 NA 
ENDBRANCH  21  23
ENDBRANCH  19  21
ENDBRANCH  13  15
ENDBRANCH   5  13
TORSDOF 5
ENDMDL
MODEL      104
REMARK 921   NORMALIZED FREE ENERGY PREDICTED BY IDOCK:   -5.47 KCAL/MOL
REMARK 922        TOTAL FREE ENERGY PREDICTED BY IDOCK:   -7.84 KCAL/MOL
REMARK 923 INTER-LIGAND FREE ENERGY PREDICTED BY IDOCK:   -6.89 KCAL/MOL
REMARK 924 INTRA-LIGAND FREE ENERGY PREDICTED BY IDOCK:   -0.95 KCAL/MOL
REMARK 927      BINDING AFFINITY PREDICTED BY RF-SCORE:    0.00 PKD
ROOT
HETATM    1  C   UNL     1      -7.020   9.487  64.018  1.00  0.00    -0.105 C  
HETATM    2  C   UNL     1      -7.951   8.783  64.966  1.00  0.00    -0.132 A  
HETATM    3  C   UNL     1      -8.067   7.385  64.809  1.00  0.00    -0.104 A  
HETATM    4  C   UNL     1      -8.906   6.604  65.608  1.00  0.00    -0.050 A  
HETATM    5  C   UNL     1      -8.763   9.444  65.913  1.00  0.00    -0.154 A  
HETATM    6  C   UNL     1      -9.609   7.242  66.629  1.00  0.00    -0.236 A  
HETATM    7  C   UNL     1     -10.263   9.247  67.979  1.00  0.00    -0.255 C  
HETATM    8  C   UNL     1      -9.530   8.644  66.806  1.00  0.00    -0.250 A  
ENDROOT
BRANCH   4   9
HETATM    9  C   UNL     1      -9.036   5.176  65.265  1.00  0.00    -0.144 C  
HETATM   10  C   UNL     1      -9.025   4.144  66.120  1.00  0.00    -0.126 C  
HETATM   11  C   UNL     1      -9.111   2.801  65.652  1.00  0.00    -0.133 C  
HETATM   12  N   UNL     1      -9.171   1.712  65.259  1.00  0.00    -0.099 NA 
ENDBRANCH   4   9
BRANCH   5  13
HETATM   13  N   UNL     1      -8.913  10.856  65.929  1.00  0.00    -0.187 NA 
HETATM   14  H   UNL     1      -8.159  11.358  66.398  1.00  0.00     0.000 HD 
BRANCH  13  15
HETATM   15  C   UNL     1      -9.931  11.683  65.403  1.00  0.00    -0.250 A  
HETATM   16  C   UNL     1     -10.629  11.240  64.300  1.00  0.00    -0.422 A  
HETATM   17  C   UNL     1     -11.618  12.068  63.826  1.00  0.00    -0.476 A  
HETATM   18  N   UNL     1     -11.931  13.247  64.392  1.00  0.00    -0.386 NA 
HETATM   19  C   UNL     1     -11.205  13.613  65.458  1.00  0.00    -0.293 A  
HETATM   20  N   UNL     1     -10.223  12.857  65.974  1.00  0.00    -0.279 NA 
BRANCH  19  21
HETATM   21  N   UNL     1     -11.526  14.851  66.018  1.00  0.00    -0.318 NA 
HETATM   22  H   UNL     1     -12.512  15.102  65.951  1.00  0.00     0.000 HD 
BRANCH  21  23
HETATM   23  C   UNL     1     -10.725  15.809  66.655  1.00  0.00    -0.287 A  
HETATM   24  C   UNL     1     -10.928  16.226  67.975  1.00  0.00    -0.328 A  
HETATM   25  C   UNL     1     -10.087  17.149  68.595  1.00  0.00    -0.329 A  
HETATM   26  C   UNL     1      -9.019  17.697  67.886  1.00  0.00    -0.250 A  
HETATM   27  C   UNL     1      -8.134  18.612  68.540  1.00  0.00    -0.341 C  
HETATM   28  C   UNL     1      -8.826  17.342  66.552  1.00  0.00    -0.290 A  
HETATM   29  C   UNL     1      -9.675  16.410  65.941  1.00  0.00    -0.327 A  
HETATM   30  N   UNL     1      -7.411  19.343  69.083  1.00  0.00    -0.345 NA 
ENDBRANCH  21  23
ENDBRANCH  19  21
ENDBRANCH  13  15
ENDBRANCH   5  13
TORSDOF 5
ENDMDL
MODEL      105
REMARK 921   NORMALIZED FREE ENERGY PREDICTED BY IDOCK:   -5.46 KCAL/MOL
REMARK 922        TOTAL FREE ENERGY PREDICTED BY IDOCK:   -7.84 KCAL/MOL
REMARK 923 INTER-LIGAND FREE ENERGY PREDICTED BY IDOCK:   -6.98 KCAL/MOL
REMARK 924 INTRA-LIGAND FREE ENERGY PREDICTED BY IDOCK:   -0.86 KCAL/MOL
REMARK 927      BINDING AFFINITY PREDICTED BY RF-SCORE:    0.00 PKD
ROOT
HETATM    1  C   UNL     1     -13.843   8.926  72.246  1.00  0.00    -0.536 C  
HETATM    2  C   UNL     1     -12.766   9.443  71.333  1.00  0.00    -0.425 A  
HETATM    3  C   UNL     1     -12.759  10.835  71.095  1.00  0.00    -0.532 A  
HETATM    4  C   UNL     1     -11.827  11.452  70.258  1.00  0.00    -0.438 A  
HETATM    5  C   UNL     1     -11.846   8.619  70.648  1.00  0.00    -0.102 A  
HETATM    6  C   UNL     1     -10.839  10.652  69.685  1.00  0.00    -0.318 A  
HETATM    7  C   UNL     1      -9.679   8.468  69.293  1.00  0.00    -0.173 C  
HETATM    8  C   UNL     1     -10.823   9.251  69.888  1.00  0.00    -0.252 A  
ENDROOT
BRANCH   4   9
HETATM    9  C   UNL     1     -12.001  12.891  69.991  1.00  0.00    -0.380 C  
HETATM   10  C   UNL     1     -11.429  13.596  69.005  1.00  0.00    -0.346 C  
HETATM   11  C   UNL     1     -11.643  15.000  68.885  1.00  0.00    -0.326 C  
HETATM   12  N   UNL     1     -11.818  16.143  68.803  1.00  0.00    -0.260 NA 
ENDBRANCH   4   9
BRANCH   5  13
HETATM   13  N   UNL     1     -11.977   7.205  70.613  1.00  0.00    -0.506 NA 
HETATM   14  H   UNL     1     -12.702   6.862  69.983  1.00  0.00     0.000 HD 
BRANCH  13  15
HETATM   15  C   UNL     1     -11.272   6.195  71.305  1.00  0.00    -0.287 A  
HETATM   16  C   UNL     1     -11.397   6.131  72.676  1.00  0.00    -0.298 A  
HETATM   17  C   UNL     1     -10.703   5.128  73.309  1.00  0.00    -0.266 A  
HETATM   18  N   UNL     1      -9.948   4.226  72.660  1.00  0.00    -0.149 NA 
HETATM   19  C   UNL     1      -9.871   4.355  71.327  1.00  0.00    -0.190 A  
HETATM   20  N   UNL     1     -10.518   5.310  70.642  1.00  0.00    -0.257 NA 
BRANCH  19  21
HETATM   21  N   UNL     1      -9.062   3.425  70.671  1.00  0.00    -0.102 NA 
HETATM   22  H   UNL     1      -8.619   2.741  71.285  1.00  0.00     0.000 HD 
BRANCH  21  23
HETATM   23  C   UNL     1      -8.754   3.269  69.313  1.00  0.00    -0.083 A  
HETATM   24  C   UNL     1      -7.850   4.089  68.630  1.00  0.00    -0.068 A  
HETATM   25  C   UNL     1      -7.531   3.882  67.289  1.00  0.00    -0.072 A  
HETATM   26  C   UNL     1      -8.139   2.841  66.586  1.00  0.00    -0.082 A  
HETATM   27  C   UNL     1      -7.778   2.606  65.222  1.00  0.00    -0.077 C  
HETATM   28  C   UNL     1      -9.086   2.043  67.226  1.00  0.00    -0.153 A  
HETATM   29  C   UNL     1      -9.394   2.259  68.576  1.00  0.00    -0.250 A  
HETATM   30  N   UNL     1      -7.468   2.412  64.118  1.00  0.00    -0.058 NA 
ENDBRANCH  21  23
ENDBRANCH  19  21
ENDBRANCH  13  15
ENDBRANCH   5  13
TORSDOF 5
ENDMDL
MODEL      106
REMARK 921   NORMALIZED FREE ENERGY PREDICTED BY IDOCK:   -5.46 KCAL/MOL
REMARK 922        TOTAL FREE ENERGY PREDICTED BY IDOCK:   -7.84 KCAL/MOL
REMARK 923 INTER-LIGAND FREE ENERGY PREDICTED BY IDOCK:   -7.27 KCAL/MOL
REMARK 924 INTRA-LIGAND FREE ENERGY PREDICTED BY IDOCK:   -0.57 KCAL/MOL
REMARK 927      BINDING AFFINITY PREDICTED BY RF-SCORE:    0.00 PKD
ROOT
HETATM    1  C   UNL     1      -6.759   7.533  67.285  1.00  0.00    -0.067 C  
HETATM    2  C   UNL     1      -8.091   6.835  67.267  1.00  0.00    -0.118 A  
HETATM    3  C   UNL     1      -8.297   5.902  66.228  1.00  0.00    -0.117 A  
HETATM    4  C   UNL     1      -9.491   5.192  66.079  1.00  0.00    -0.170 A  
HETATM    5  C   UNL     1      -9.148   7.127  68.156  1.00  0.00    -0.133 A  
HETATM    6  C   UNL     1     -10.486   5.386  67.035  1.00  0.00    -0.319 A  
HETATM    7  C   UNL     1     -11.415   6.423  69.117  1.00  0.00    -0.265 C  
HETATM    8  C   UNL     1     -10.321   6.325  68.082  1.00  0.00    -0.236 A  
ENDROOT
BRANCH   4   9
HETATM    9  C   UNL     1      -9.631   4.342  64.883  1.00  0.00    -0.176 C  
HETATM   10  C   UNL     1     -10.756   3.765  64.439  1.00  0.00    -0.180 C  
HETATM   11  C   UNL     1     -10.747   2.922  63.290  1.00  0.00    -0.235 C  
HETATM   12  N   UNL     1     -10.726   2.231  62.359  1.00  0.00    -0.128 NA 
ENDBRANCH   4   9
BRANCH   5  13
HETATM   13  N   UNL     1      -9.114   8.245  69.032  1.00  0.00    -0.147 NA 
HETATM   14  H   UNL     1      -8.810   8.030  69.982  1.00  0.00     0.000 HD 
BRANCH  13  15
HETATM   15  C   UNL     1      -9.431   9.604  68.809  1.00  0.00    -0.148 A  
HETATM   16  C   UNL     1      -8.556  10.366  68.064  1.00  0.00    -0.123 A  
HETATM   17  C   UNL     1      -8.907  11.678  67.861  1.00  0.00    -0.155 A  
HETATM   18  N   UNL     1     -10.042  12.224  68.330  1.00  0.00    -0.218 NA 
HETATM   19  C   UNL     1     -10.840  11.422  69.050  1.00  0.00    -0.219 A  
HETATM   20  N   UNL     1     -10.562  10.131  69.291  1.00  0.00    -0.215 NA 
BRANCH  19  21
HETATM   21  N   UNL     1     -12.003  12.011  69.551  1.00  0.00    -0.301 NA 
HETATM   22  H   UNL     1     -12.864  11.689  69.109  1.00  0.00     0.000 HD 
BRANCH  21  23
HETATM   23  C   UNL     1     -12.190  12.968  70.557  1.00  0.00    -0.313 A  
HETATM   24  C   UNL     1     -13.121  12.826  71.591  1.00  0.00    -0.428 A  
HETATM   25  C   UNL     1     -13.253  13.776  72.603  1.00  0.00    -0.571 A  
HETATM   26  C   UNL     1     -12.453  14.919  72.586  1.00  0.00    -0.436 A  
HETATM   27  C   UNL     1     -12.562  15.871  73.649  1.00  0.00    -0.591 C  
HETATM   28  C   UNL     1     -11.556  15.114  71.537  1.00  0.00    -0.443 A  
HETATM   29  C   UNL     1     -11.430  14.149  70.529  1.00  0.00    -0.108 A  
HETATM   30  N   UNL     1     -12.647  16.632  74.524  1.00  0.00    -0.711 NA 
ENDBRANCH  21  23
ENDBRANCH  19  21
ENDBRANCH  13  15
ENDBRANCH   5  13
TORSDOF 5
ENDMDL
MODEL      107
REMARK 921   NORMALIZED FREE ENERGY PREDICTED BY IDOCK:   -5.44 KCAL/MOL
REMARK 922        TOTAL FREE ENERGY PREDICTED BY IDOCK:   -7.81 KCAL/MOL
REMARK 923 INTER-LIGAND FREE ENERGY PREDICTED BY IDOCK:   -7.19 KCAL/MOL
REMARK 924 INTRA-LIGAND FREE ENERGY PREDICTED BY IDOCK:   -0.62 KCAL/MOL
REMARK 927      BINDING AFFINITY PREDICTED BY RF-SCORE:    0.00 PKD
ROOT
HETATM    1  C   UNL     1      -8.341  11.690  68.009  1.00  0.00    -0.148 C  
HETATM    2  C   UNL     1      -8.811  10.296  68.322  1.00  0.00    -0.126 A  
HETATM    3  C   UNL     1      -8.660   9.868  69.659  1.00  0.00    -0.207 A  
HETATM    4  C   UNL     1      -9.039   8.594  70.089  1.00  0.00    -0.163 A  
HETATM    5  C   UNL     1      -9.295   9.389  67.354  1.00  0.00    -0.126 A  
HETATM    6  C   UNL     1      -9.636   7.745  69.159  1.00  0.00    -0.155 A  
HETATM    7  C   UNL     1     -10.512   7.187  66.880  1.00  0.00    -0.364 C  
HETATM    8  C   UNL     1      -9.790   8.134  67.806  1.00  0.00    -0.209 A  
ENDROOT
BRANCH   4   9
HETATM    9  C   UNL     1      -8.714   8.221  71.478  1.00  0.00    -0.208 C  
HETATM   10  C   UNL     1      -8.923   7.031  72.056  1.00  0.00    -0.138 C  
HETATM   11  C   UNL     1      -8.606   6.814  73.428  1.00  0.00    -0.122 C  
HETATM   12  N   UNL     1      -8.354   6.652  74.548  1.00  0.00    -0.135 NA 
ENDBRANCH   4   9
BRANCH   5  13
HETATM   13  N   UNL     1      -9.204   9.649  65.961  1.00  0.00    -0.169 NA 
HETATM   14  H   UNL     1      -8.531   9.065  65.463  1.00  0.00     0.000 HD 
BRANCH  13  15
HETATM   15  C   UNL     1      -9.890  10.580  65.148  1.00  0.00    -0.297 A  
HETATM   16  C   UNL     1      -9.846  10.411  63.780  1.00  0.00    -0.308 A  
HETATM   17  C   UNL     1     -10.534  11.330  63.027  1.00  0.00    -0.117 A  
HETATM   18  N   UNL     1     -11.239  12.345  63.557  1.00  0.00    -0.464 NA 
HETATM   19  C   UNL     1     -11.230  12.447  64.894  1.00  0.00    -0.311 A  
HETATM   20  N   UNL     1     -10.579  11.588  65.693  1.00  0.00    -0.267 NA 
BRANCH  19  21
HETATM   21  N   UNL     1     -11.947  13.521  65.428  1.00  0.00    -0.358 NA 
HETATM   22  H   UNL     1     -12.951  13.489  65.250  1.00  0.00     0.000 HD 
BRANCH  21  23
HETATM   23  C   UNL     1     -11.523  14.634  66.165  1.00  0.00    -0.339 A  
HETATM   24  C   UNL     1     -11.767  14.789  67.534  1.00  0.00    -0.370 A  
HETATM   25  C   UNL     1     -11.294  15.889  68.249  1.00  0.00    -0.342 A  
HETATM   26  C   UNL     1     -10.571  16.883  67.590  1.00  0.00    -0.325 A  
HETATM   27  C   UNL     1     -10.052  17.989  68.335  1.00  0.00    -0.387 C  
HETATM   28  C   UNL     1     -10.362  16.783  66.215  1.00  0.00    -0.316 A  
HETATM   29  C   UNL     1     -10.838  15.671  65.509  1.00  0.00    -0.356 A  
HETATM   30  N   UNL     1      -9.622  18.876  68.951  1.00  0.00    -0.364 NA 
ENDBRANCH  21  23
ENDBRANCH  19  21
ENDBRANCH  13  15
ENDBRANCH   5  13
TORSDOF 5
ENDMDL
MODEL      108
REMARK 921   NORMALIZED FREE ENERGY PREDICTED BY IDOCK:   -5.42 KCAL/MOL
REMARK 922        TOTAL FREE ENERGY PREDICTED BY IDOCK:   -7.78 KCAL/MOL
REMARK 923 INTER-LIGAND FREE ENERGY PREDICTED BY IDOCK:   -7.04 KCAL/MOL
REMARK 924 INTRA-LIGAND FREE ENERGY PREDICTED BY IDOCK:   -0.74 KCAL/MOL
REMARK 927      BINDING AFFINITY PREDICTED BY RF-SCORE:    0.00 PKD
ROOT
HETATM    1  C   UNL     1     -12.235  14.149  67.174  1.00  0.00    -0.348 C  
HETATM    2  C   UNL     1     -10.745  14.059  67.354  1.00  0.00    -0.285 A  
HETATM    3  C   UNL     1      -9.989  15.154  66.881  1.00  0.00    -0.243 A  
HETATM    4  C   UNL     1      -8.595  15.200  66.968  1.00  0.00    -0.265 A  
HETATM    5  C   UNL     1     -10.078  12.927  67.870  1.00  0.00    -0.232 A  
HETATM    6  C   UNL     1      -7.948  14.138  67.597  1.00  0.00    -0.187 A  
HETATM    7  C   UNL     1      -7.905  11.942  68.801  1.00  0.00    -0.052 C  
HETATM    8  C   UNL     1      -8.672  13.016  68.068  1.00  0.00    -0.187 A  
ENDROOT
BRANCH   4   9
HETATM    9  C   UNL     1      -7.912  16.338  66.327  1.00  0.00    -0.208 C  
HETATM   10  C   UNL     1      -8.123  17.638  66.570  1.00  0.00    -0.306 C  
HETATM   11  C   UNL     1      -7.426  18.646  65.843  1.00  0.00    -0.180 C  
HETATM   12  N   UNL     1      -6.860  19.457  65.237  1.00  0.00    -0.420 NA 
ENDBRANCH   4   9
BRANCH   5  13
HETATM   13  N   UNL     1     -10.743  11.692  68.092  1.00  0.00    -0.203 NA 
HETATM   14  H   UNL     1     -10.768  11.071  67.283  1.00  0.00     0.000 HD 
BRANCH  13  15
HETATM   15  C   UNL     1     -11.376  11.178  69.247  1.00  0.00    -0.281 A  
HETATM   16  C   UNL     1     -12.053  12.056  70.067  1.00  0.00    -0.355 A  
HETATM   17  C   UNL     1     -12.663  11.515  71.172  1.00  0.00    -0.356 A  
HETATM   18  N   UNL     1     -12.641  10.203  71.464  1.00  0.00    -0.400 NA 
HETATM   19  C   UNL     1     -11.958   9.413  70.622  1.00  0.00    -0.170 A  
HETATM   20  N   UNL     1     -11.336   9.871  69.525  1.00  0.00    -0.173 NA 
BRANCH  19  21
HETATM   21  N   UNL     1     -11.924   8.057  70.953  1.00  0.00    -0.438 NA 
HETATM   22  H   UNL     1     -12.563   7.788  71.702  1.00  0.00     0.000 HD 
BRANCH  21  23
HETATM   23  C   UNL     1     -11.162   7.002  70.434  1.00  0.00    -0.299 A  
HETATM   24  C   UNL     1     -11.270   6.552  69.113  1.00  0.00    -0.367 A  
HETATM   25  C   UNL     1     -10.467   5.529  68.613  1.00  0.00    -0.240 A  
HETATM   26  C   UNL     1      -9.536   4.909  69.448  1.00  0.00    -0.239 A  
HETATM   27  C   UNL     1      -8.685   3.888  68.919  1.00  0.00    -0.094 C  
HETATM   28  C   UNL     1      -9.447   5.298  70.783  1.00  0.00    -0.221 A  
HETATM   29  C   UNL     1     -10.256   6.331  71.273  1.00  0.00    -0.238 A  
HETATM   30  N   UNL     1      -7.988   3.069  68.478  1.00  0.00    -0.057 NA 
ENDBRANCH  21  23
ENDBRANCH  19  21
ENDBRANCH  13  15
ENDBRANCH   5  13
TORSDOF 5
ENDMDL
MODEL      109
REMARK 921   NORMALIZED FREE ENERGY PREDICTED BY IDOCK:   -5.42 KCAL/MOL
REMARK 922        TOTAL FREE ENERGY PREDICTED BY IDOCK:   -7.78 KCAL/MOL
REMARK 923 INTER-LIGAND FREE ENERGY PREDICTED BY IDOCK:   -7.20 KCAL/MOL
REMARK 924 INTRA-LIGAND FREE ENERGY PREDICTED BY IDOCK:   -0.59 KCAL/MOL
REMARK 927      BINDING AFFINITY PREDICTED BY RF-SCORE:    0.00 PKD
ROOT
HETATM    1  C   UNL     1     -10.638   9.211  68.074  1.00  0.00    -0.253 C  
HETATM    2  C   UNL     1     -11.262   9.286  69.440  1.00  0.00     0.030 A  
HETATM    3  C   UNL     1     -11.017   8.196  70.303  1.00  0.00    -0.240 A  
HETATM    4  C   UNL     1     -11.546   8.124  71.594  1.00  0.00    -0.325 A  
HETATM    5  C   UNL     1     -12.134  10.317  69.855  1.00  0.00    -0.108 A  
HETATM    6  C   UNL     1     -12.299   9.204  72.049  1.00  0.00    -0.448 A  
HETATM    7  C   UNL     1     -13.340  11.469  71.798  1.00  0.00    -0.356 C  
HETATM    8  C   UNL     1     -12.579  10.307  71.206  1.00  0.00    -0.522 A  
ENDROOT
BRANCH   4   9
HETATM    9  C   UNL     1     -11.322   6.879  72.351  1.00  0.00    -0.308 C  
HETATM   10  C   UNL     1     -10.178   6.187  72.433  1.00  0.00    -0.212 C  
HETATM   11  C   UNL     1     -10.107   4.965  73.163  1.00  0.00    -0.161 C  
HETATM   12  N   UNL     1     -10.065   3.967  73.752  1.00  0.00    -0.125 NA 
ENDBRANCH   4   9
BRANCH   5  13
HETATM   13  N   UNL     1     -12.650  11.283  68.951  1.00  0.00    -0.327 NA 
HETATM   14  H   UNL     1     -13.655  11.218  68.789  1.00  0.00     0.000 HD 
BRANCH  13  15
HETATM   15  C   UNL     1     -12.004  12.318  68.238  1.00  0.00    -0.200 A  
HETATM   16  C   UNL     1     -12.017  13.588  68.774  1.00  0.00    -0.374 A  
HETATM   17  C   UNL     1     -11.370  14.564  68.055  1.00  0.00    -0.306 A  
HETATM   18  N   UNL     1     -10.730  14.329  66.896  1.00  0.00    -0.288 NA 
HETATM   19  C   UNL     1     -10.765  13.070  66.435  1.00  0.00    -0.282 A  
HETATM   20  N   UNL     1     -11.380  12.068  67.081  1.00  0.00    -0.315 NA 
BRANCH  19  21
HETATM   21  N   UNL     1     -10.118  12.849  65.218  1.00  0.00    -0.401 NA 
HETATM   22  H   UNL     1     -10.020  13.679  64.634  1.00  0.00     0.000 HD 
BRANCH  21  23
HETATM   23  C   UNL     1      -9.579  11.681  64.661  1.00  0.00    -0.127 A  
HETATM   24  C   UNL     1      -8.784  10.781  65.380  1.00  0.00    -0.190 A  
HETATM   25  C   UNL     1      -8.299   9.606  64.809  1.00  0.00    -0.156 A  
HETATM   26  C   UNL     1      -8.589   9.312  63.477  1.00  0.00    -0.201 A  
HETATM   27  C   UNL     1      -8.125   8.084  62.908  1.00  0.00    -0.126 C  
HETATM   28  C   UNL     1      -9.332  10.218  62.721  1.00  0.00    -0.340 A  
HETATM   29  C   UNL     1      -9.817  11.394  63.307  1.00  0.00    -0.428 A  
HETATM   30  N   UNL     1      -7.756   7.078  62.458  1.00  0.00    -0.109 NA 
ENDBRANCH  21  23
ENDBRANCH  19  21
ENDBRANCH  13  15
ENDBRANCH   5  13
TORSDOF 5
ENDMDL
MODEL      110
REMARK 921   NORMALIZED FREE ENERGY PREDICTED BY IDOCK:   -5.40 KCAL/MOL
REMARK 922        TOTAL FREE ENERGY PREDICTED BY IDOCK:   -7.76 KCAL/MOL
REMARK 923 INTER-LIGAND FREE ENERGY PREDICTED BY IDOCK:   -6.78 KCAL/MOL
REMARK 924 INTRA-LIGAND FREE ENERGY PREDICTED BY IDOCK:   -0.98 KCAL/MOL
REMARK 927      BINDING AFFINITY PREDICTED BY RF-SCORE:    0.00 PKD
ROOT
HETATM    1  C   UNL     1      -7.810  10.087  69.643  1.00  0.00    -0.171 C  
HETATM    2  C   UNL     1      -8.439  11.149  68.784  1.00  0.00    -0.134 A  
HETATM    3  C   UNL     1      -7.656  12.295  68.528  1.00  0.00    -0.118 A  
HETATM    4  C   UNL     1      -8.117  13.366  67.759  1.00  0.00    -0.173 A  
HETATM    5  C   UNL     1      -9.769  11.098  68.313  1.00  0.00    -0.188 A  
HETATM    6  C   UNL     1      -9.383  13.257  67.186  1.00  0.00    -0.240 A  
HETATM    7  C   UNL     1     -11.530  12.055  66.718  1.00  0.00    -0.410 C  
HETATM    8  C   UNL     1     -10.203  12.130  67.434  1.00  0.00    -0.211 A  
ENDROOT
BRANCH   4   9
HETATM    9  C   UNL     1      -7.256  14.559  67.669  1.00  0.00    -0.206 C  
HETATM   10  C   UNL     1      -6.960  15.409  68.662  1.00  0.00    -0.111 C  
HETATM   11  C   UNL     1      -6.149  16.558  68.431  1.00  0.00    -0.127 C  
HETATM   12  N   UNL     1      -5.496  17.494  68.228  1.00  0.00    -0.145 NA 
ENDBRANCH   4   9
BRANCH   5  13
HETATM   13  N   UNL     1     -10.697  10.125  68.767  1.00  0.00    -0.210 NA 
HETATM   14  H   UNL     1     -10.848   9.349  68.123  1.00  0.00     0.000 HD 
BRANCH  13  15
HETATM   15  C   UNL     1     -11.447  10.050  69.963  1.00  0.00    -0.248 A  
HETATM   16  C   UNL     1     -12.198  11.146  70.333  1.00  0.00    -0.457 A  
HETATM   17  C   UNL     1     -12.920  11.029  71.496  1.00  0.00    -0.448 A  
HETATM   18  N   UNL     1     -12.935   9.917  72.251  1.00  0.00    -0.362 NA 
HETATM   19  C   UNL     1     -12.176   8.895  71.829  1.00  0.00    -0.359 A  
HETATM   20  N   UNL     1     -11.443   8.938  70.706  1.00  0.00    -0.277 NA 
BRANCH  19  21
HETATM   21  N   UNL     1     -12.184   7.756  72.637  1.00  0.00    -0.581 NA 
HETATM   22  H   UNL     1     -13.103   7.499  72.997  1.00  0.00     0.000 HD 
BRANCH  21  23
HETATM   23  C   UNL     1     -11.145   6.907  73.040  1.00  0.00    -0.232 A  
HETATM   24  C   UNL     1     -11.229   5.511  72.994  1.00  0.00    -0.346 A  
HETATM   25  C   UNL     1     -10.162   4.693  73.360  1.00  0.00    -0.217 A  
HETATM   26  C   UNL     1      -8.972   5.268  73.808  1.00  0.00    -0.123 A  
HETATM   27  C   UNL     1      -7.865   4.426  74.144  1.00  0.00    -0.092 C  
HETATM   28  C   UNL     1      -8.879   6.654  73.918  1.00  0.00    -0.164 A  
HETATM   29  C   UNL     1      -9.957   7.465  73.543  1.00  0.00    -0.377 A  
HETATM   30  N   UNL     1      -6.966   3.735  74.400  1.00  0.00    -0.050 NA 
ENDBRANCH  21  23
ENDBRANCH  19  21
ENDBRANCH  13  15
ENDBRANCH   5  13
TORSDOF 5
ENDMDL
MODEL      111
REMARK 921   NORMALIZED FREE ENERGY PREDICTED BY IDOCK:   -5.38 KCAL/MOL
REMARK 922        TOTAL FREE ENERGY PREDICTED BY IDOCK:   -7.74 KCAL/MOL
REMARK 923 INTER-LIGAND FREE ENERGY PREDICTED BY IDOCK:   -6.77 KCAL/MOL
REMARK 924 INTRA-LIGAND FREE ENERGY PREDICTED BY IDOCK:   -0.97 KCAL/MOL
REMARK 927      BINDING AFFINITY PREDICTED BY RF-SCORE:    0.00 PKD
ROOT
HETATM    1  C   UNL     1     -12.096  10.842  69.363  1.00  0.00    -0.362 C  
HETATM    2  C   UNL     1     -10.816  10.131  69.021  1.00  0.00    -0.257 A  
HETATM    3  C   UNL     1      -9.924   9.895  70.090  1.00  0.00    -0.291 A  
HETATM    4  C   UNL     1      -8.693   9.259  69.917  1.00  0.00    -0.189 A  
HETATM    5  C   UNL     1     -10.432   9.783  67.708  1.00  0.00    -0.246 A  
HETATM    6  C   UNL     1      -8.373   8.800  68.641  1.00  0.00    -0.128 A  
HETATM    7  C   UNL     1      -8.850   8.439  66.209  1.00  0.00    -0.190 C  
HETATM    8  C   UNL     1      -9.235   9.032  67.542  1.00  0.00    -0.152 A  
ENDROOT
BRANCH   4   9
HETATM    9  C   UNL     1      -7.797   9.184  71.085  1.00  0.00    -0.119 C  
HETATM   10  C   UNL     1      -7.611   8.125  71.884  1.00  0.00    -0.115 C  
HETATM   11  C   UNL     1      -6.748   8.199  73.015  1.00  0.00    -0.095 C  
HETATM   12  N   UNL     1      -6.050   8.275  73.938  1.00  0.00    -0.103 NA 
ENDBRANCH   4   9
BRANCH   5  13
HETATM   13  N   UNL     1     -11.138  10.243  66.565  1.00  0.00     0.091 NA 
HETATM   14  H   UNL     1     -11.863   9.609  66.230  1.00  0.00     0.000 HD 
BRANCH  13  15
HETATM   15  C   UNL     1     -11.006  11.434  65.815  1.00  0.00    -0.194 A  
HETATM   16  C   UNL     1     -10.749  11.331  64.464  1.00  0.00    -0.390 A  
HETATM   17  C   UNL     1     -10.638  12.511  63.770  1.00  0.00    -0.436 A  
HETATM   18  N   UNL     1     -10.784  13.721  64.336  1.00  0.00    -0.382 NA 
HETATM   19  C   UNL     1     -11.027  13.741  65.655  1.00  0.00    -0.288 A  
HETATM   20  N   UNL     1     -11.146  12.630  66.398  1.00  0.00    -0.276 NA 
BRANCH  19  21
HETATM   21  N   UNL     1     -11.151  15.006  66.232  1.00  0.00    -0.343 NA 
HETATM   22  H   UNL     1     -12.095  15.392  66.206  1.00  0.00     0.000 HD 
BRANCH  21  23
HETATM   23  C   UNL     1     -10.201  15.837  66.841  1.00  0.00    -0.280 A  
HETATM   24  C   UNL     1     -10.521  16.785  67.819  1.00  0.00    -0.335 A  
HETATM   25  C   UNL     1      -9.547  17.566  68.438  1.00  0.00    -0.303 A  
HETATM   26  C   UNL     1      -8.209  17.425  68.067  1.00  0.00    -0.229 A  
HETATM   27  C   UNL     1      -7.208  18.200  68.734  1.00  0.00    -0.279 C  
HETATM   28  C   UNL     1      -7.868  16.529  67.056  1.00  0.00    -0.241 A  
HETATM   29  C   UNL     1      -8.856  15.746  66.445  1.00  0.00    -0.371 A  
HETATM   30  N   UNL     1      -6.399  18.822  69.292  1.00  0.00    -0.265 NA 
ENDBRANCH  21  23
ENDBRANCH  19  21
ENDBRANCH  13  15
ENDBRANCH   5  13
TORSDOF 5
ENDMDL
MODEL      112
REMARK 921   NORMALIZED FREE ENERGY PREDICTED BY IDOCK:   -5.38 KCAL/MOL
REMARK 922        TOTAL FREE ENERGY PREDICTED BY IDOCK:   -7.74 KCAL/MOL
REMARK 923 INTER-LIGAND FREE ENERGY PREDICTED BY IDOCK:   -6.85 KCAL/MOL
REMARK 924 INTRA-LIGAND FREE ENERGY PREDICTED BY IDOCK:   -0.88 KCAL/MOL
REMARK 927      BINDING AFFINITY PREDICTED BY RF-SCORE:    0.00 PKD
ROOT
HETATM    1  C   UNL     1      -9.283   8.774  66.152  1.00  0.00    -0.273 C  
HETATM    2  C   UNL     1      -8.809   9.370  67.448  1.00  0.00    -0.135 A  
HETATM    3  C   UNL     1      -8.987   8.580  68.604  1.00  0.00    -0.139 A  
HETATM    4  C   UNL     1      -8.607   9.012  69.878  1.00  0.00    -0.143 A  
HETATM    5  C   UNL     1      -8.298  10.680  67.575  1.00  0.00    -0.115 A  
HETATM    6  C   UNL     1      -7.983  10.253  69.983  1.00  0.00    -0.021 A  
HETATM    7  C   UNL     1      -7.053  12.376  69.035  1.00  0.00    -0.041 C  
HETATM    8  C   UNL     1      -7.802  11.080  68.848  1.00  0.00    -0.138 A  
ENDROOT
BRANCH   4   9
HETATM    9  C   UNL     1      -8.959   8.150  71.020  1.00  0.00    -0.173 C  
HETATM   10  C   UNL     1      -8.848   8.459  72.320  1.00  0.00    -0.289 C  
HETATM   11  C   UNL     1      -9.180   7.513  73.332  1.00  0.00    -0.228 C  
HETATM   12  N   UNL     1      -9.443   6.731  74.147  1.00  0.00    -0.217 NA 
ENDBRANCH   4   9
BRANCH   5  13
HETATM   13  N   UNL     1      -8.360  11.624  66.516  1.00  0.00    -0.274 NA 
HETATM   14  H   UNL     1      -7.552  11.617  65.893  1.00  0.00     0.000 HD 
BRANCH  13  15
HETATM   15  C   UNL     1      -9.354  12.571  66.180  1.00  0.00    -0.134 A  
HETATM   16  C   UNL     1     -10.235  12.263  65.166  1.00  0.00    -0.305 A  
HETATM   17  C   UNL     1     -11.192  13.206  64.878  1.00  0.00    -0.310 A  
HETATM   18  N   UNL     1     -11.308  14.370  65.539  1.00  0.00    -0.326 NA 
HETATM   19  C   UNL     1     -10.411  14.602  66.509  1.00  0.00    -0.290 A  
HETATM   20  N   UNL     1      -9.448  13.729  66.844  1.00  0.00    -0.253 NA 
BRANCH  19  21
HETATM   21  N   UNL     1     -10.530  15.827  67.168  1.00  0.00    -0.303 NA 
HETATM   22  H   UNL     1     -11.390  15.936  67.705  1.00  0.00     0.000 HD 
BRANCH  21  23
HETATM   23  C   UNL     1      -9.670  16.932  67.218  1.00  0.00    -0.251 A  
HETATM   24  C   UNL     1      -8.594  17.111  66.342  1.00  0.00    -0.300 A  
HETATM   25  C   UNL     1      -7.782  18.243  66.389  1.00  0.00    -0.289 A  
HETATM   26  C   UNL     1      -8.024  19.228  67.347  1.00  0.00    -0.292 A  
HETATM   27  C   UNL     1      -7.215  20.408  67.365  1.00  0.00    -0.310 C  
HETATM   28  C   UNL     1      -9.054  19.049  68.269  1.00  0.00    -0.371 A  
HETATM   29  C   UNL     1      -9.865  17.909  68.209  1.00  0.00    -0.348 A  
HETATM   30  N   UNL     1      -6.562  21.369  67.363  1.00  0.00    -0.585 NA 
ENDBRANCH  21  23
ENDBRANCH  19  21
ENDBRANCH  13  15
ENDBRANCH   5  13
TORSDOF 5
ENDMDL
MODEL      113
REMARK 921   NORMALIZED FREE ENERGY PREDICTED BY IDOCK:   -5.38 KCAL/MOL
REMARK 922        TOTAL FREE ENERGY PREDICTED BY IDOCK:   -7.73 KCAL/MOL
REMARK 923 INTER-LIGAND FREE ENERGY PREDICTED BY IDOCK:   -6.86 KCAL/MOL
REMARK 924 INTRA-LIGAND FREE ENERGY PREDICTED BY IDOCK:   -0.87 KCAL/MOL
REMARK 927      BINDING AFFINITY PREDICTED BY RF-SCORE:    0.00 PKD
ROOT
HETATM    1  C   UNL     1      -8.691  10.989  66.971  1.00  0.00    -0.141 C  
HETATM    2  C   UNL     1      -9.727  11.851  67.638  1.00  0.00    -0.186 A  
HETATM    3  C   UNL     1      -9.946  13.124  67.068  1.00  0.00    -0.244 A  
HETATM    4  C   UNL     1     -10.867  14.035  67.591  1.00  0.00    -0.270 A  
HETATM    5  C   UNL     1     -10.404  11.497  68.826  1.00  0.00    -0.196 A  
HETATM    6  C   UNL     1     -11.628  13.633  68.687  1.00  0.00    -0.364 A  
HETATM    7  C   UNL     1     -12.339  11.982  70.431  1.00  0.00    -0.317 C  
HETATM    8  C   UNL     1     -11.425  12.370  69.295  1.00  0.00    -0.349 A  
ENDROOT
BRANCH   4   9
HETATM    9  C   UNL     1     -10.913  15.378  66.984  1.00  0.00    -0.306 C  
HETATM   10  C   UNL     1      -9.933  16.292  66.988  1.00  0.00    -0.255 C  
HETATM   11  C   UNL     1     -10.124  17.578  66.405  1.00  0.00    -0.345 C  
HETATM   12  N   UNL     1     -10.295  18.624  65.936  1.00  0.00    -0.588 NA 
ENDBRANCH   4   9
BRANCH   5  13
HETATM   13  N   UNL     1     -10.028  10.371  69.605  1.00  0.00    -0.372 NA 
HETATM   14  H   UNL     1      -9.315  10.562  70.310  1.00  0.00     0.000 HD 
BRANCH  13  15
HETATM   15  C   UNL     1     -10.476   9.031  69.569  1.00  0.00    -0.219 A  
HETATM   16  C   UNL     1     -10.787   8.413  70.761  1.00  0.00    -0.255 A  
HETATM   17  C   UNL     1     -11.229   7.115  70.682  1.00  0.00    -0.280 A  
HETATM   18  N   UNL     1     -11.381   6.454  69.521  1.00  0.00    -0.407 NA 
HETATM   19  C   UNL     1     -11.054   7.119  68.404  1.00  0.00     0.068 A  
HETATM   20  N   UNL     1     -10.614   8.386  68.405  1.00  0.00    -0.155 NA 
BRANCH  19  21
HETATM   21  N   UNL     1     -11.194   6.409  67.209  1.00  0.00    -0.689 NA 
HETATM   22  H   UNL     1     -12.082   6.559  66.731  1.00  0.00     0.000 HD 
BRANCH  21  23
HETATM   23  C   UNL     1     -10.324   5.528  66.555  1.00  0.00    -0.256 A  
HETATM   24  C   UNL     1      -8.992   5.334  66.939  1.00  0.00    -0.109 A  
HETATM   25  C   UNL     1      -8.163   4.416  66.296  1.00  0.00    -0.102 A  
HETATM   26  C   UNL     1      -8.655   3.676  65.220  1.00  0.00    -0.114 A  
HETATM   27  C   UNL     1      -7.814   2.705  64.589  1.00  0.00    -0.077 C  
HETATM   28  C   UNL     1      -9.960   3.889  64.780  1.00  0.00    -0.203 A  
HETATM   29  C   UNL     1     -10.785   4.811  65.438  1.00  0.00    -0.085 A  
HETATM   30  N   UNL     1      -7.128   1.909  64.092  1.00  0.00    -0.045 NA 
ENDBRANCH  21  23
ENDBRANCH  19  21
ENDBRANCH  13  15
ENDBRANCH   5  13
TORSDOF 5
ENDMDL
MODEL      114
REMARK 921   NORMALIZED FREE ENERGY PREDICTED BY IDOCK:   -5.31 KCAL/MOL
REMARK 922        TOTAL FREE ENERGY PREDICTED BY IDOCK:   -7.64 KCAL/MOL
REMARK 923 INTER-LIGAND FREE ENERGY PREDICTED BY IDOCK:   -6.72 KCAL/MOL
REMARK 924 INTRA-LIGAND FREE ENERGY PREDICTED BY IDOCK:   -0.91 KCAL/MOL
REMARK 927      BINDING AFFINITY PREDICTED BY RF-SCORE:    0.00 PKD
ROOT
HETATM    1  C   UNL     1      -7.273  13.581  67.808  1.00  0.00    -0.157 C  
HETATM    2  C   UNL     1      -8.315  14.438  67.145  1.00  0.00    -0.214 A  
HETATM    3  C   UNL     1      -8.014  15.811  67.022  1.00  0.00    -0.272 A  
HETATM    4  C   UNL     1      -8.895  16.727  66.441  1.00  0.00    -0.331 A  
HETATM    5  C   UNL     1      -9.582  13.966  66.736  1.00  0.00    -0.283 A  
HETATM    6  C   UNL     1     -10.091  16.237  65.920  1.00  0.00    -0.381 A  
HETATM    7  C   UNL     1     -11.713  14.405  65.385  1.00  0.00    -0.362 C  
HETATM    8  C   UNL     1     -10.434  14.868  66.039  1.00  0.00    -0.326 A  
ENDROOT
BRANCH   4   9
HETATM    9  C   UNL     1      -8.521  18.152  66.486  1.00  0.00    -0.283 C  
HETATM   10  C   UNL     1      -7.410  18.671  67.026  1.00  0.00    -0.221 C  
HETATM   11  C   UNL     1      -7.189  20.079  67.046  1.00  0.00    -0.241 C  
HETATM   12  N   UNL     1      -7.026  21.226  67.066  1.00  0.00    -0.483 NA 
ENDBRANCH   4   9
BRANCH   5  13
HETATM   13  N   UNL     1     -10.060  12.676  67.087  1.00  0.00    -0.221 NA 
HETATM   14  H   UNL     1      -9.922  11.963  66.370  1.00  0.00     0.000 HD 
BRANCH  13  15
HETATM   15  C   UNL     1     -10.693  12.214  68.262  1.00  0.00    -0.223 A  
HETATM   16  C   UNL     1     -11.901  12.775  68.619  1.00  0.00    -0.341 A  
HETATM   17  C   UNL     1     -12.489  12.290  69.762  1.00  0.00     0.126 A  
HETATM   18  N   UNL     1     -11.956  11.309  70.511  1.00  0.00    -0.364 NA 
HETATM   19  C   UNL     1     -10.777  10.816  70.104  1.00  0.00     0.013 A  
HETATM   20  N   UNL     1     -10.144  11.242  69.000  1.00  0.00    -0.172 NA 
BRANCH  19  21
HETATM   21  N   UNL     1     -10.225   9.816  70.906  1.00  0.00    -0.338 NA 
HETATM   22  H   UNL     1      -9.817  10.151  71.779  1.00  0.00     0.000 HD 
BRANCH  21  23
HETATM   23  C   UNL     1     -10.135   8.430  70.718  1.00  0.00    -0.193 A  
HETATM   24  C   UNL     1     -11.184   7.547  70.993  1.00  0.00    -0.281 A  
HETATM   25  C   UNL     1     -11.079   6.177  70.754  1.00  0.00    -0.375 A  
HETATM   26  C   UNL     1      -9.891   5.654  70.244  1.00  0.00    -0.254 A  
HETATM   27  C   UNL     1      -9.802   4.254  69.961  1.00  0.00    -0.205 C  
HETATM   28  C   UNL     1      -8.810   6.503  70.014  1.00  0.00    -0.144 A  
HETATM   29  C   UNL     1      -8.930   7.878  70.254  1.00  0.00    -0.151 A  
HETATM   30  N   UNL     1      -9.743   3.118  69.720  1.00  0.00    -0.048 NA 
ENDBRANCH  21  23
ENDBRANCH  19  21
ENDBRANCH  13  15
ENDBRANCH   5  13
TORSDOF 5
ENDMDL
MODEL      115
REMARK 921   NORMALIZED FREE ENERGY PREDICTED BY IDOCK:   -5.26 KCAL/MOL
REMARK 922        TOTAL FREE ENERGY PREDICTED BY IDOCK:   -7.58 KCAL/MOL
REMARK 923 INTER-LIGAND FREE ENERGY PREDICTED BY IDOCK:   -7.44 KCAL/MOL
REMARK 924 INTRA-LIGAND FREE ENERGY PREDICTED BY IDOCK:   -0.14 KCAL/MOL
REMARK 927      BINDING AFFINITY PREDICTED BY RF-SCORE:    0.00 PKD
ROOT
HETATM    1  C   UNL     1      -8.500   9.535  70.441  1.00  0.00    -0.238 C  
HETATM    2  C   UNL     1      -9.782   9.135  71.118  1.00  0.00    -0.360 A  
HETATM    3  C   UNL     1      -9.750   7.937  71.863  1.00  0.00    -0.231 A  
HETATM    4  C   UNL     1     -10.870   7.436  72.532  1.00  0.00    -0.327 A  
HETATM    5  C   UNL     1     -11.003   9.829  70.971  1.00  0.00    -0.332 A  
HETATM    6  C   UNL     1     -12.041   8.191  72.493  1.00  0.00    -0.377 A  
HETATM    7  C   UNL     1     -13.395  10.184  71.813  1.00  0.00    -0.485 C  
HETATM    8  C   UNL     1     -12.115   9.389  71.743  1.00  0.00    -0.454 A  
ENDROOT
BRANCH   4   9
HETATM    9  C   UNL     1     -10.745   6.113  73.169  1.00  0.00    -0.283 C  
HETATM   10  C   UNL     1     -10.760   4.923  72.553  1.00  0.00    -0.258 C  
HETATM   11  C   UNL     1     -10.679   3.709  73.295  1.00  0.00    -0.198 C  
HETATM   12  N   UNL     1     -10.622   2.728  73.910  1.00  0.00    -0.157 NA 
ENDBRANCH   4   9
BRANCH   5  13
HETATM   13  N   UNL     1     -11.175  10.865  70.016  1.00  0.00    -0.390 NA 
HETATM   14  H   UNL     1     -11.740  11.651  70.339  1.00  0.00     0.000 HD 
BRANCH  13  15
HETATM   15  C   UNL     1     -10.696  10.991  68.692  1.00  0.00    -0.198 A  
HETATM   16  C   UNL     1     -10.891   9.938  67.823  1.00  0.00    -0.321 A  
HETATM   17  C   UNL     1     -10.420  10.105  66.544  1.00  0.00    -0.166 A  
HETATM   18  N   UNL     1      -9.812  11.226  66.118  1.00  0.00    -0.217 NA 
HETATM   19  C   UNL     1      -9.654  12.204  67.021  1.00  0.00    -0.205 A  
HETATM   20  N   UNL     1     -10.086  12.111  68.288  1.00  0.00    -0.206 NA 
BRANCH  19  21
HETATM   21  N   UNL     1      -8.999  13.351  66.569  1.00  0.00    -0.447 NA 
HETATM   22  H   UNL     1      -9.044  13.493  65.560  1.00  0.00     0.000 HD 
BRANCH  21  23
HETATM   23  C   UNL     1      -8.290  14.340  67.264  1.00  0.00    -0.204 A  
HETATM   24  C   UNL     1      -7.986  15.593  66.721  1.00  0.00    -0.246 A  
HETATM   25  C   UNL     1      -7.317  16.573  67.453  1.00  0.00    -0.176 A  
HETATM   26  C   UNL     1      -6.914  16.304  68.762  1.00  0.00    -0.159 A  
HETATM   27  C   UNL     1      -6.265  17.327  69.524  1.00  0.00    -0.251 C  
HETATM   28  C   UNL     1      -7.155  15.045  69.308  1.00  0.00    -0.170 A  
HETATM   29  C   UNL     1      -7.831  14.070  68.564  1.00  0.00    -0.140 A  
HETATM   30  N   UNL     1      -5.752  18.168  70.140  1.00  0.00    -0.244 NA 
ENDBRANCH  21  23
ENDBRANCH  19  21
ENDBRANCH  13  15
ENDBRANCH   5  13
TORSDOF 5
ENDMDL
MODEL      116
REMARK 921   NORMALIZED FREE ENERGY PREDICTED BY IDOCK:   -5.25 KCAL/MOL
REMARK 922        TOTAL FREE ENERGY PREDICTED BY IDOCK:   -7.57 KCAL/MOL
REMARK 923 INTER-LIGAND FREE ENERGY PREDICTED BY IDOCK:   -6.93 KCAL/MOL
REMARK 924 INTRA-LIGAND FREE ENERGY PREDICTED BY IDOCK:   -0.64 KCAL/MOL
REMARK 927      BINDING AFFINITY PREDICTED BY RF-SCORE:    0.00 PKD
ROOT
HETATM    1  C   UNL     1     -13.858   8.469  72.632  1.00  0.00    -0.217 C  
HETATM    2  C   UNL     1     -13.023   9.361  71.756  1.00  0.00    -0.484 A  
HETATM    3  C   UNL     1     -13.175  10.751  71.949  1.00  0.00    -0.524 A  
HETATM    4  C   UNL     1     -12.474  11.697  71.198  1.00  0.00    -0.412 A  
HETATM    5  C   UNL     1     -12.190   8.892  70.717  1.00  0.00    -0.049 A  
HETATM    6  C   UNL     1     -11.555  11.230  70.260  1.00  0.00    -0.366 A  
HETATM    7  C   UNL     1     -10.320   9.419  69.048  1.00  0.00    -0.224 C  
HETATM    8  C   UNL     1     -11.387   9.843  70.027  1.00  0.00    -0.303 A  
ENDROOT
BRANCH   4   9
HETATM    9  C   UNL     1     -12.812  13.116  71.406  1.00  0.00    -0.401 C  
HETATM   10  C   UNL     1     -13.219  13.682  72.551  1.00  0.00    -0.578 C  
HETATM   11  C   UNL     1     -13.563  15.064  72.607  1.00  0.00    -0.463 C  
HETATM   12  N   UNL     1     -13.849  16.187  72.638  1.00  0.00    -0.226 NA 
ENDBRANCH   4   9
BRANCH   5  13
HETATM   13  N   UNL     1     -12.211   7.541  70.280  1.00  0.00    -0.402 NA 
HETATM   14  H   UNL     1     -13.113   7.224  69.925  1.00  0.00     0.000 HD 
BRANCH  13  15
HETATM   15  C   UNL     1     -11.192   6.562  70.255  1.00  0.00    -0.374 A  
HETATM   16  C   UNL     1     -10.751   6.046  71.456  1.00  0.00    -0.309 A  
HETATM   17  C   UNL     1      -9.768   5.089  71.387  1.00  0.00    -0.171 A  
HETATM   18  N   UNL     1      -9.250   4.640  70.231  1.00  0.00    -0.121 NA 
HETATM   19  C   UNL     1      -9.725   5.193  69.105  1.00  0.00    -0.163 A  
HETATM   20  N   UNL     1     -10.682   6.133  69.095  1.00  0.00    -0.279 NA 
BRANCH  19  21
HETATM   21  N   UNL     1      -9.158   4.734  67.915  1.00  0.00    -0.112 NA 
HETATM   22  H   UNL     1      -9.140   3.719  67.819  1.00  0.00     0.000 HD 
BRANCH  21  23
HETATM   23  C   UNL     1      -8.610   5.429  66.828  1.00  0.00    -0.110 A  
HETATM   24  C   UNL     1      -8.822   5.063  65.494  1.00  0.00    -0.146 A  
HETATM   25  C   UNL     1      -8.298   5.800  64.434  1.00  0.00    -0.073 A  
HETATM   26  C   UNL     1      -7.520   6.929  64.694  1.00  0.00    -0.098 A  
HETATM   27  C   UNL     1      -7.020   7.707  63.602  1.00  0.00    -0.060 C  
HETATM   28  C   UNL     1      -7.246   7.284  66.013  1.00  0.00    -0.074 A  
HETATM   29  C   UNL     1      -7.781   6.537  67.070  1.00  0.00    -0.100 A  
HETATM   30  N   UNL     1      -6.630   8.341  62.709  1.00  0.00    -0.086 NA 
ENDBRANCH  21  23
ENDBRANCH  19  21
ENDBRANCH  13  15
ENDBRANCH   5  13
TORSDOF 5
ENDMDL
MODEL      117
REMARK 921   NORMALIZED FREE ENERGY PREDICTED BY IDOCK:   -5.25 KCAL/MOL
REMARK 922        TOTAL FREE ENERGY PREDICTED BY IDOCK:   -7.57 KCAL/MOL
REMARK 923 INTER-LIGAND FREE ENERGY PREDICTED BY IDOCK:   -6.88 KCAL/MOL
REMARK 924 INTRA-LIGAND FREE ENERGY PREDICTED BY IDOCK:   -0.69 KCAL/MOL
REMARK 927      BINDING AFFINITY PREDICTED BY RF-SCORE:    0.00 PKD
ROOT
HETATM    1  C   UNL     1     -12.171   8.882  72.009  1.00  0.00    -0.447 C  
HETATM    2  C   UNL     1     -11.978  10.071  71.110  1.00  0.00    -0.484 A  
HETATM    3  C   UNL     1     -12.502  11.298  71.570  1.00  0.00    -0.332 A  
HETATM    4  C   UNL     1     -12.409  12.481  70.833  1.00  0.00    -0.349 A  
HETATM    5  C   UNL     1     -11.399  10.003  69.823  1.00  0.00    -0.228 A  
HETATM    6  C   UNL     1     -11.722  12.439  69.621  1.00  0.00    -0.377 A  
HETATM    7  C   UNL     1     -10.404  11.276  67.837  1.00  0.00    -0.205 C  
HETATM    8  C   UNL     1     -11.197  11.223  69.119  1.00  0.00    -0.337 A  
ENDROOT
BRANCH   4   9
HETATM    9  C   UNL     1     -13.105  13.668  71.361  1.00  0.00    -0.396 C  
HETATM   10  C   UNL     1     -12.704  14.444  72.378  1.00  0.00    -0.400 C  
HETATM   11  C   UNL     1     -13.498  15.540  72.825  1.00  0.00    -0.557 C  
HETATM   12  N   UNL     1     -14.157  16.423  73.186  1.00  0.00    -0.029 NA 
ENDBRANCH   4   9
BRANCH   5  13
HETATM   13  N   UNL     1     -11.117   8.767  69.184  1.00  0.00    -0.426 NA 
HETATM   14  H   UNL     1     -11.932   8.297  68.790  1.00  0.00     0.000 HD 
BRANCH  13  15
HETATM   15  C   UNL     1      -9.896   8.079  69.002  1.00  0.00    -0.178 A  
HETATM   16  C   UNL     1      -9.045   7.960  70.080  1.00  0.00    -0.152 A  
HETATM   17  C   UNL     1      -7.874   7.275  69.864  1.00  0.00    -0.112 A  
HETATM   18  N   UNL     1      -7.547   6.720  68.685  1.00  0.00    -0.102 NA 
HETATM   19  C   UNL     1      -8.422   6.882  67.681  1.00  0.00    -0.122 A  
HETATM   20  N   UNL     1      -9.583   7.540  67.818  1.00  0.00    -0.140 NA 
BRANCH  19  21
HETATM   21  N   UNL     1      -8.055   6.321  66.457  1.00  0.00    -0.109 NA 
HETATM   22  H   UNL     1      -7.110   6.552  66.152  1.00  0.00     0.000 HD 
BRANCH  21  23
HETATM   23  C   UNL     1      -8.763   5.494  65.574  1.00  0.00    -0.154 A  
HETATM   24  C   UNL     1      -8.395   5.299  64.239  1.00  0.00    -0.134 A  
HETATM   25  C   UNL     1      -9.095   4.436  63.397  1.00  0.00    -0.133 A  
HETATM   26  C   UNL     1     -10.211   3.753  63.881  1.00  0.00    -0.225 A  
HETATM   27  C   UNL     1     -10.901   2.836  63.027  1.00  0.00    -0.210 C  
HETATM   28  C   UNL     1     -10.634   3.971  65.191  1.00  0.00    -0.073 A  
HETATM   29  C   UNL     1      -9.920   4.838  66.028  1.00  0.00    -0.255 A  
HETATM   30  N   UNL     1     -11.447   2.082  62.330  1.00  0.00    -0.208 NA 
ENDBRANCH  21  23
ENDBRANCH  19  21
ENDBRANCH  13  15
ENDBRANCH   5  13
TORSDOF 5
ENDMDL
MODEL      118
REMARK 921   NORMALIZED FREE ENERGY PREDICTED BY IDOCK:   -5.19 KCAL/MOL
REMARK 922        TOTAL FREE ENERGY PREDICTED BY IDOCK:   -7.48 KCAL/MOL
REMARK 923 INTER-LIGAND FREE ENERGY PREDICTED BY IDOCK:   -6.78 KCAL/MOL
REMARK 924 INTRA-LIGAND FREE ENERGY PREDICTED BY IDOCK:   -0.71 KCAL/MOL
REMARK 927      BINDING AFFINITY PREDICTED BY RF-SCORE:    0.00 PKD
ROOT
HETATM    1  C   UNL     1      -8.386  10.539  68.812  1.00  0.00    -0.136 C  
HETATM    2  C   UNL     1      -8.995  10.695  67.446  1.00  0.00    -0.138 A  
HETATM    3  C   UNL     1      -8.406   9.943  66.406  1.00  0.00    -0.125 A  
HETATM    4  C   UNL     1      -8.859  10.000  65.086  1.00  0.00    -0.207 A  
HETATM    5  C   UNL     1     -10.035  11.601  67.143  1.00  0.00    -0.199 A  
HETATM    6  C   UNL     1      -9.969  10.796  64.813  1.00  0.00    -0.382 A  
HETATM    7  C   UNL     1     -11.818  12.355  65.467  1.00  0.00    -0.469 C  
HETATM    8  C   UNL     1     -10.576  11.577  65.827  1.00  0.00    -0.315 A  
ENDROOT
BRANCH   4   9
HETATM    9  C   UNL     1      -8.083   9.266  64.069  1.00  0.00    -0.150 C  
HETATM   10  C   UNL     1      -7.194   8.288  64.293  1.00  0.00    -0.089 C  
HETATM   11  C   UNL     1      -6.472   7.690  63.220  1.00  0.00    -0.059 C  
HETATM   12  N   UNL     1      -5.884   7.219  62.339  1.00  0.00    -0.049 NA 
ENDBRANCH   4   9
BRANCH   5  13
HETATM   13  N   UNL     1     -10.474  12.586  68.067  1.00  0.00    -0.213 NA 
HETATM   14  H   UNL     1     -10.167  13.535  67.852  1.00  0.00     0.000 HD 
BRANCH  13  15
HETATM   15  C   UNL     1     -11.265  12.473  69.232  1.00  0.00    -0.194 A  
HETATM   16  C   UNL     1     -11.665  13.630  69.867  1.00  0.00    -0.346 A  
HETATM   17  C   UNL     1     -12.441  13.476  70.989  1.00  0.00    -0.369 A  
HETATM   18  N   UNL     1     -12.827  12.279  71.466  1.00  0.00    -0.340 NA 
HETATM   19  C   UNL     1     -12.394  11.200  70.799  1.00  0.00    -0.406 A  
HETATM   20  N   UNL     1     -11.632  11.273  69.697  1.00  0.00    -0.299 NA 
BRANCH  19  21
HETATM   21  N   UNL     1     -12.782   9.964  71.322  1.00  0.00    -0.355 NA 
HETATM   22  H   UNL     1     -13.726   9.947  71.707  1.00  0.00     0.000 HD 
BRANCH  21  23
HETATM   23  C   UNL     1     -12.098   8.745  71.407  1.00  0.00    -0.307 A  
HETATM   24  C   UNL     1     -11.855   8.081  72.615  1.00  0.00    -0.380 A  
HETATM   25  C   UNL     1     -11.209   6.847  72.663  1.00  0.00    -0.297 A  
HETATM   26  C   UNL     1     -10.766   6.252  71.482  1.00  0.00    -0.292 A  
HETATM   27  C   UNL     1     -10.141   4.966  71.532  1.00  0.00    -0.197 C  
HETATM   28  C   UNL     1     -10.944   6.917  70.270  1.00  0.00    -0.322 A  
HETATM   29  C   UNL     1     -11.599   8.155  70.234  1.00  0.00     0.011 A  
HETATM   30  N   UNL     1      -9.647   3.914  71.581  1.00  0.00    -0.152 NA 
ENDBRANCH  21  23
ENDBRANCH  19  21
ENDBRANCH  13  15
ENDBRANCH   5  13
TORSDOF 5
ENDMDL
MODEL      119
REMARK 921   NORMALIZED FREE ENERGY PREDICTED BY IDOCK:   -5.15 KCAL/MOL
REMARK 922        TOTAL FREE ENERGY PREDICTED BY IDOCK:   -7.44 KCAL/MOL
REMARK 923 INTER-LIGAND FREE ENERGY PREDICTED BY IDOCK:   -6.46 KCAL/MOL
REMARK 924 INTRA-LIGAND FREE ENERGY PREDICTED BY IDOCK:   -0.98 KCAL/MOL
REMARK 927      BINDING AFFINITY PREDICTED BY RF-SCORE:    0.00 PKD
ROOT
HETATM    1  C   UNL     1      -7.428   8.960  70.870  1.00  0.00    -0.110 C  
HETATM    2  C   UNL     1      -7.794   7.758  70.044  1.00  0.00    -0.103 A  
HETATM    3  C   UNL     1      -7.169   7.649  68.783  1.00  0.00    -0.082 A  
HETATM    4  C   UNL     1      -7.425   6.594  67.904  1.00  0.00    -0.098 A  
HETATM    5  C   UNL     1      -8.774   6.813  70.417  1.00  0.00    -0.151 A  
HETATM    6  C   UNL     1      -8.295   5.592  68.329  1.00  0.00    -0.098 A  
HETATM    7  C   UNL     1      -9.823   4.515  69.996  1.00  0.00    -0.296 C  
HETATM    8  C   UNL     1      -8.953   5.675  69.580  1.00  0.00    -0.129 A  
ENDROOT
BRANCH   4   9
HETATM    9  C   UNL     1      -6.807   6.658  66.568  1.00  0.00    -0.061 C  
HETATM   10  C   UNL     1      -7.075   5.862  65.524  1.00  0.00    -0.069 C  
HETATM   11  C   UNL     1      -6.368   5.998  64.294  1.00  0.00    -0.030 C  
HETATM   12  N   UNL     1      -5.779   6.112  63.301  1.00  0.00    -0.021 NA 
ENDBRANCH   4   9
BRANCH   5  13
HETATM   13  N   UNL     1      -9.641   7.015  71.523  1.00  0.00    -0.159 NA 
HETATM   14  H   UNL     1      -9.296   6.638  72.406  1.00  0.00     0.000 HD 
BRANCH  13  15
HETATM   15  C   UNL     1     -10.899   7.652  71.607  1.00  0.00    -0.227 A  
HETATM   16  C   UNL     1     -12.023   6.866  71.751  1.00  0.00    -0.372 A  
HETATM   17  C   UNL     1     -13.225   7.524  71.839  1.00  0.00    -0.245 A  
HETATM   18  N   UNL     1     -13.340   8.863  71.809  1.00  0.00    -0.364 NA 
HETATM   19  C   UNL     1     -12.204   9.561  71.662  1.00  0.00    -0.398 A  
HETATM   20  N   UNL     1     -10.996   8.986  71.567  1.00  0.00    -0.321 NA 
BRANCH  19  21
HETATM   21  N   UNL     1     -12.345  10.949  71.608  1.00  0.00    -0.230 NA 
HETATM   22  H   UNL     1     -12.569  11.386  72.501  1.00  0.00     0.000 HD 
BRANCH  21  23
HETATM   23  C   UNL     1     -12.231  11.844  70.536  1.00  0.00    -0.336 A  
HETATM   24  C   UNL     1     -12.294  13.234  70.684  1.00  0.00    -0.416 A  
HETATM   25  C   UNL     1     -12.133  14.101  69.604  1.00  0.00    -0.400 A  
HETATM   26  C   UNL     1     -11.922  13.581  68.326  1.00  0.00    -0.377 A  
HETATM   27  C   UNL     1     -11.716  14.474  67.228  1.00  0.00    -0.406 C  
HETATM   28  C   UNL     1     -11.911  12.200  68.141  1.00  0.00    -0.362 A  
HETATM   29  C   UNL     1     -12.069  11.340  69.235  1.00  0.00    -0.372 A  
HETATM   30  N   UNL     1     -11.534  15.207  66.343  1.00  0.00    -0.231 NA 
ENDBRANCH  21  23
ENDBRANCH  19  21
ENDBRANCH  13  15
ENDBRANCH   5  13
TORSDOF 5
ENDMDL
MODEL      120
REMARK 921   NORMALIZED FREE ENERGY PREDICTED BY IDOCK:   -5.14 KCAL/MOL
REMARK 922        TOTAL FREE ENERGY PREDICTED BY IDOCK:   -7.42 KCAL/MOL
REMARK 923 INTER-LIGAND FREE ENERGY PREDICTED BY IDOCK:   -6.60 KCAL/MOL
REMARK 924 INTRA-LIGAND FREE ENERGY PREDICTED BY IDOCK:   -0.82 KCAL/MOL
REMARK 927      BINDING AFFINITY PREDICTED BY RF-SCORE:    0.00 PKD
ROOT
HETATM    1  C   UNL     1     -10.197   9.491  67.936  1.00  0.00    -0.251 C  
HETATM    2  C   UNL     1      -9.474  10.799  67.769  1.00  0.00    -0.165 A  
HETATM    3  C   UNL     1     -10.104  11.766  66.955  1.00  0.00    -0.232 A  
HETATM    4  C   UNL     1      -9.541  13.018  66.700  1.00  0.00    -0.259 A  
HETATM    5  C   UNL     1      -8.190  11.064  68.293  1.00  0.00    -0.130 A  
HETATM    6  C   UNL     1      -8.333  13.327  67.325  1.00  0.00    -0.182 A  
HETATM    7  C   UNL     1      -6.400  12.815  68.832  1.00  0.00    -0.086 C  
HETATM    8  C   UNL     1      -7.665  12.377  68.134  1.00  0.00    -0.139 A  
ENDROOT
BRANCH   4   9
HETATM    9  C   UNL     1     -10.233  13.891  65.735  1.00  0.00    -0.331 C  
HETATM   10  C   UNL     1     -10.271  15.230  65.751  1.00  0.00    -0.372 C  
HETATM   11  C   UNL     1     -11.021  15.957  64.782  1.00  0.00    -0.375 C  
HETATM   12  N   UNL     1     -11.643  16.537  63.994  1.00  0.00    -1.124 NA 
ENDBRANCH   4   9
BRANCH   5  13
HETATM   13  N   UNL     1      -7.382  10.048  68.869  1.00  0.00    -0.076 NA 
HETATM   14  H   UNL     1      -6.813   9.528  68.200  1.00  0.00     0.000 HD 
BRANCH  13  15
HETATM   15  C   UNL     1      -7.234   9.637  70.213  1.00  0.00    -0.135 A  
HETATM   16  C   UNL     1      -5.986   9.730  70.791  1.00  0.00    -0.086 A  
HETATM   17  C   UNL     1      -5.887   9.330  72.102  1.00  0.00    -0.014 A  
HETATM   18  N   UNL     1      -6.931   8.883  72.822  1.00  0.00    -0.327 NA 
HETATM   19  C   UNL     1      -8.111   8.816  72.189  1.00  0.00     0.048 A  
HETATM   20  N   UNL     1      -8.282   9.187  70.911  1.00  0.00    -0.202 NA 
BRANCH  19  21
HETATM   21  N   UNL     1      -9.179   8.327  72.944  1.00  0.00    -0.265 NA 
HETATM   22  H   UNL     1      -9.701   9.041  73.451  1.00  0.00     0.000 HD 
BRANCH  21  23
HETATM   23  C   UNL     1      -9.658   7.022  73.123  1.00  0.00    -0.166 A  
HETATM   24  C   UNL     1      -9.898   6.456  74.380  1.00  0.00    -0.338 A  
HETATM   25  C   UNL     1     -10.416   5.170  74.525  1.00  0.00    -0.254 A  
HETATM   26  C   UNL     1     -10.689   4.403  73.392  1.00  0.00    -0.315 A  
HETATM   27  C   UNL     1     -11.259   3.100  73.544  1.00  0.00    -0.185 C  
HETATM   28  C   UNL     1     -10.407   4.920  72.129  1.00  0.00    -0.263 A  
HETATM   29  C   UNL     1      -9.890   6.216  71.996  1.00  0.00    -0.174 A  
HETATM   30  N   UNL     1     -11.737   2.048  73.676  1.00  0.00    -0.205 NA 
ENDBRANCH  21  23
ENDBRANCH  19  21
ENDBRANCH  13  15
ENDBRANCH   5  13
TORSDOF 5
ENDMDL
MODEL      121
REMARK 921   NORMALIZED FREE ENERGY PREDICTED BY IDOCK:   -5.14 KCAL/MOL
REMARK 922        TOTAL FREE ENERGY PREDICTED BY IDOCK:   -7.42 KCAL/MOL
REMARK 923 INTER-LIGAND FREE ENERGY PREDICTED BY IDOCK:   -6.73 KCAL/MOL
REMARK 924 INTRA-LIGAND FREE ENERGY PREDICTED BY IDOCK:   -0.69 KCAL/MOL
REMARK 927      BINDING AFFINITY PREDICTED BY RF-SCORE:    0.00 PKD
ROOT
HETATM    1  C   UNL     1     -11.170   6.451  69.711  1.00  0.00    -0.484 C  
HETATM    2  C   UNL     1     -10.520   6.627  68.367  1.00  0.00    -0.248 A  
HETATM    3  C   UNL     1     -10.486   5.488  67.532  1.00  0.00    -0.269 A  
HETATM    4  C   UNL     1      -9.901   5.501  66.264  1.00  0.00    -0.173 A  
HETATM    5  C   UNL     1      -9.877   7.812  67.949  1.00  0.00    -0.160 A  
HETATM    6  C   UNL     1      -9.382   6.709  65.800  1.00  0.00     0.131 A  
HETATM    7  C   UNL     1      -8.870   9.151  66.012  1.00  0.00    -0.200 C  
HETATM    8  C   UNL     1      -9.384   7.867  66.615  1.00  0.00    -0.244 A  
ENDROOT
BRANCH   4   9
HETATM    9  C   UNL     1      -9.817   4.219  65.541  1.00  0.00    -0.221 C  
HETATM   10  C   UNL     1     -10.407   3.917  64.376  1.00  0.00    -0.242 C  
HETATM   11  C   UNL     1     -10.284   2.618  63.805  1.00  0.00    -0.152 C  
HETATM   12  N   UNL     1     -10.185   1.554  63.354  1.00  0.00    -0.123 NA 
ENDBRANCH   4   9
BRANCH   5  13
HETATM   13  N   UNL     1      -9.621   8.889  68.838  1.00  0.00    -0.158 NA 
HETATM   14  H   UNL     1      -8.914   8.696  69.546  1.00  0.00     0.000 HD 
BRANCH  13  15
HETATM   15  C   UNL     1     -10.183  10.185  68.906  1.00  0.00    -0.199 A  
HETATM   16  C   UNL     1     -11.523  10.302  69.206  1.00  0.00    -0.223 A  
HETATM   17  C   UNL     1     -12.027  11.578  69.272  1.00  0.00    -0.330 A  
HETATM   18  N   UNL     1     -11.282  12.680  69.080  1.00  0.00    -0.258 NA 
HETATM   19  C   UNL     1      -9.988  12.486  68.787  1.00  0.00    -0.015 A  
HETATM   20  N   UNL     1      -9.428  11.270  68.703  1.00  0.00    -0.189 NA 
BRANCH  19  21
HETATM   21  N   UNL     1      -9.234  13.641  68.566  1.00  0.00    -0.327 NA 
HETATM   22  H   UNL     1      -8.261  13.573  68.864  1.00  0.00     0.000 HD 
BRANCH  21  23
HETATM   23  C   UNL     1      -9.586  14.876  68.006  1.00  0.00    -0.207 A  
HETATM   24  C   UNL     1      -9.974  15.984  68.767  1.00  0.00    -0.224 A  
HETATM   25  C   UNL     1     -10.276  17.213  68.182  1.00  0.00    -0.332 A  
HETATM   26  C   UNL     1     -10.213  17.353  66.796  1.00  0.00    -0.318 A  
HETATM   27  C   UNL     1     -10.483  18.627  66.203  1.00  0.00    -0.430 C  
HETATM   28  C   UNL     1      -9.884  16.251  66.009  1.00  0.00    -0.371 A  
HETATM   29  C   UNL     1      -9.578  15.022  66.609  1.00  0.00    -0.281 A  
HETATM   30  N   UNL     1     -10.689  19.670  65.732  1.00  0.00    -0.482 NA 
ENDBRANCH  21  23
ENDBRANCH  19  21
ENDBRANCH  13  15
ENDBRANCH   5  13
TORSDOF 5
ENDMDL
MODEL      122
REMARK 921   NORMALIZED FREE ENERGY PREDICTED BY IDOCK:   -5.14 KCAL/MOL
REMARK 922        TOTAL FREE ENERGY PREDICTED BY IDOCK:   -7.42 KCAL/MOL
REMARK 923 INTER-LIGAND FREE ENERGY PREDICTED BY IDOCK:   -6.88 KCAL/MOL
REMARK 924 INTRA-LIGAND FREE ENERGY PREDICTED BY IDOCK:   -0.54 KCAL/MOL
REMARK 927      BINDING AFFINITY PREDICTED BY RF-SCORE:    0.00 PKD
ROOT
HETATM    1  C   UNL     1      -9.670  10.569  65.964  1.00  0.00    -0.257 C  
HETATM    2  C   UNL     1      -8.740  11.351  66.850  1.00  0.00    -0.165 A  
HETATM    3  C   UNL     1      -8.751  12.753  66.689  1.00  0.00    -0.065 A  
HETATM    4  C   UNL     1      -7.930  13.603  67.434  1.00  0.00    -0.177 A  
HETATM    5  C   UNL     1      -7.816  10.762  67.741  1.00  0.00    -0.109 A  
HETATM    6  C   UNL     1      -7.111  13.029  68.405  1.00  0.00    -0.103 A  
HETATM    7  C   UNL     1      -6.206  11.090  69.704  1.00  0.00    -0.095 C  
HETATM    8  C   UNL     1      -7.062  11.626  68.584  1.00  0.00    -0.099 A  
ENDROOT
BRANCH   4   9
HETATM    9  C   UNL     1      -7.942  15.036  67.087  1.00  0.00    -0.238 C  
HETATM   10  C   UNL     1      -8.928  15.910  67.331  1.00  0.00    -0.203 C  
HETATM   11  C   UNL     1      -8.835  17.264  66.898  1.00  0.00    -0.240 C  
HETATM   12  N   UNL     1      -8.752  18.361  66.532  1.00  0.00    -0.285 NA 
ENDBRANCH   4   9
BRANCH   5  13
HETATM   13  N   UNL     1      -7.549   9.367  67.743  1.00  0.00    -0.088 NA 
HETATM   14  H   UNL     1      -6.693   9.099  67.258  1.00  0.00     0.000 HD 
BRANCH  13  15
HETATM   15  C   UNL     1      -8.270   8.290  68.304  1.00  0.00    -0.128 A  
HETATM   16  C   UNL     1      -7.851   7.006  68.026  1.00  0.00    -0.114 A  
HETATM   17  C   UNL     1      -8.572   5.988  68.600  1.00  0.00    -0.112 A  
HETATM   18  N   UNL     1      -9.625   6.190  69.410  1.00  0.00    -0.137 NA 
HETATM   19  C   UNL     1      -9.977   7.466  69.630  1.00  0.00    -0.182 A  
HETATM   20  N   UNL     1      -9.321   8.510  69.102  1.00  0.00    -0.153 NA 
BRANCH  19  21
HETATM   21  N   UNL     1     -11.088   7.658  70.453  1.00  0.00    -0.261 NA 
HETATM   22  H   UNL     1     -11.499   6.798  70.816  1.00  0.00     0.000 HD 
BRANCH  21  23
HETATM   23  C   UNL     1     -11.736   8.830  70.866  1.00  0.00    -0.258 A  
HETATM   24  C   UNL     1     -12.684   8.864  71.894  1.00  0.00    -0.436 A  
HETATM   25  C   UNL     1     -13.279  10.053  72.312  1.00  0.00    -0.401 A  
HETATM   26  C   UNL     1     -12.945  11.252  71.681  1.00  0.00    -0.537 A  
HETATM   27  C   UNL     1     -13.527  12.476  72.140  1.00  0.00    -0.422 C  
HETATM   28  C   UNL     1     -12.046  11.240  70.616  1.00  0.00    -0.480 A  
HETATM   29  C   UNL     1     -11.452  10.039  70.209  1.00  0.00    -0.372 A  
HETATM   30  N   UNL     1     -13.993  13.467  72.529  1.00  0.00    -0.766 NA 
ENDBRANCH  21  23
ENDBRANCH  19  21
ENDBRANCH  13  15
ENDBRANCH   5  13
TORSDOF 5
ENDMDL
MODEL      123
REMARK 921   NORMALIZED FREE ENERGY PREDICTED BY IDOCK:   -5.13 KCAL/MOL
REMARK 922        TOTAL FREE ENERGY PREDICTED BY IDOCK:   -7.41 KCAL/MOL
REMARK 923 INTER-LIGAND FREE ENERGY PREDICTED BY IDOCK:   -6.49 KCAL/MOL
REMARK 924 INTRA-LIGAND FREE ENERGY PREDICTED BY IDOCK:   -0.92 KCAL/MOL
REMARK 927      BINDING AFFINITY PREDICTED BY RF-SCORE:    0.00 PKD
ROOT
HETATM    1  C   UNL     1     -11.848  12.955  66.979  1.00  0.00    -0.437 C  
HETATM    2  C   UNL     1     -10.415  13.393  67.095  1.00  0.00    -0.249 A  
HETATM    3  C   UNL     1     -10.158  14.764  66.879  1.00  0.00    -0.246 A  
HETATM    4  C   UNL     1      -8.873  15.309  66.940  1.00  0.00    -0.281 A  
HETATM    5  C   UNL     1      -9.333  12.510  67.309  1.00  0.00    -0.190 A  
HETATM    6  C   UNL     1      -7.822  14.458  67.280  1.00  0.00    -0.188 A  
HETATM    7  C   UNL     1      -6.863  12.236  67.923  1.00  0.00    -0.093 C  
HETATM    8  C   UNL     1      -8.039  13.074  67.488  1.00  0.00    -0.179 A  
ENDROOT
BRANCH   4   9
HETATM    9  C   UNL     1      -8.718  16.727  66.572  1.00  0.00    -0.310 C  
HETATM   10  C   UNL     1      -7.568  17.367  66.317  1.00  0.00    -0.348 C  
HETATM   11  C   UNL     1      -7.551  18.760  66.018  1.00  0.00    -0.220 C  
HETATM   12  N   UNL     1      -7.550  19.896  65.786  1.00  0.00    -0.334 NA 
ENDBRANCH   4   9
BRANCH   5  13
HETATM   13  N   UNL     1      -9.483  11.099  67.246  1.00  0.00    -0.164 NA 
HETATM   14  H   UNL     1      -9.234  10.686  66.348  1.00  0.00     0.000 HD 
BRANCH  13  15
HETATM   15  C   UNL     1      -9.920  10.173  68.220  1.00  0.00    -0.148 A  
HETATM   16  C   UNL     1      -9.896  10.555  69.544  1.00  0.00    -0.170 A  
HETATM   17  C   UNL     1     -10.338   9.629  70.458  1.00  0.00    -0.295 A  
HETATM   18  N   UNL     1     -10.796   8.412  70.117  1.00  0.00    -0.240 NA 
HETATM   19  C   UNL     1     -10.784   8.110  68.811  1.00  0.00    -0.040 A  
HETATM   20  N   UNL     1     -10.364   8.962  67.863  1.00  0.00    -0.222 NA 
BRANCH  19  21
HETATM   21  N   UNL     1     -11.238   6.833  68.476  1.00  0.00    -0.542 NA 
HETATM   22  H   UNL     1     -12.232   6.680  68.648  1.00  0.00     0.000 HD 
BRANCH  21  23
HETATM   23  C   UNL     1     -10.563   5.725  67.946  1.00  0.00    -0.231 A  
HETATM   24  C   UNL     1     -10.594   5.381  66.590  1.00  0.00    -0.359 A  
HETATM   25  C   UNL     1      -9.876   4.299  66.086  1.00  0.00    -0.232 A  
HETATM   26  C   UNL     1      -9.114   3.511  66.950  1.00  0.00    -0.184 A  
HETATM   27  C   UNL     1      -8.346   2.426  66.422  1.00  0.00    -0.093 C  
HETATM   28  C   UNL     1      -9.110   3.797  68.314  1.00  0.00    -0.193 A  
HETATM   29  C   UNL     1      -9.832   4.890  68.808  1.00  0.00    -0.231 A  
HETATM   30  N   UNL     1      -7.713   1.555  65.982  1.00  0.00    -0.065 NA 
ENDBRANCH  21  23
ENDBRANCH  19  21
ENDBRANCH  13  15
ENDBRANCH   5  13
TORSDOF 5
ENDMDL
MODEL      124
REMARK 921   NORMALIZED FREE ENERGY PREDICTED BY IDOCK:   -5.12 KCAL/MOL
REMARK 922        TOTAL FREE ENERGY PREDICTED BY IDOCK:   -7.40 KCAL/MOL
REMARK 923 INTER-LIGAND FREE ENERGY PREDICTED BY IDOCK:   -6.62 KCAL/MOL
REMARK 924 INTRA-LIGAND FREE ENERGY PREDICTED BY IDOCK:   -0.78 KCAL/MOL
REMARK 927      BINDING AFFINITY PREDICTED BY RF-SCORE:    0.00 PKD
ROOT
HETATM    1  C   UNL     1      -9.079   9.175  65.595  1.00  0.00    -0.273 C  
HETATM    2  C   UNL     1      -8.878  10.438  66.385  1.00  0.00    -0.159 A  
HETATM    3  C   UNL     1      -9.703  11.531  66.043  1.00  0.00    -0.253 A  
HETATM    4  C   UNL     1      -9.616  12.770  66.683  1.00  0.00    -0.255 A  
HETATM    5  C   UNL     1      -7.869  10.608  67.359  1.00  0.00    -0.110 A  
HETATM    6  C   UNL     1      -8.708  12.896  67.733  1.00  0.00    -0.188 A  
HETATM    7  C   UNL     1      -6.951  12.020  69.288  1.00  0.00    -0.028 C  
HETATM    8  C   UNL     1      -7.853  11.827  68.094  1.00  0.00    -0.135 A  
ENDROOT
BRANCH   4   9
HETATM    9  C   UNL     1     -10.442  13.868  66.152  1.00  0.00    -0.297 C  
HETATM   10  C   UNL     1     -10.534  14.254  64.872  1.00  0.00    -0.454 C  
HETATM   11  C   UNL     1     -11.337  15.369  64.495  1.00  0.00    -0.313 C  
HETATM   12  N   UNL     1     -11.986  16.284  64.201  1.00  0.00    -0.807 NA 
ENDBRANCH   4   9
BRANCH   5  13
HETATM   13  N   UNL     1      -6.830   9.659  67.547  1.00  0.00    -0.081 NA 
HETATM   14  H   UNL     1      -5.896  10.003  67.323  1.00  0.00     0.000 HD 
BRANCH  13  15
HETATM   15  C   UNL     1      -6.872   8.319  67.993  1.00  0.00    -0.066 A  
HETATM   16  C   UNL     1      -5.831   7.482  67.650  1.00  0.00    -0.036 A  
HETATM   17  C   UNL     1      -5.906   6.190  68.111  1.00  0.00    -0.012 A  
HETATM   18  N   UNL     1      -6.913   5.733  68.875  1.00  0.00    -0.065 NA 
HETATM   19  C   UNL     1      -7.891   6.604  69.163  1.00  0.00    -0.111 A  
HETATM   20  N   UNL     1      -7.887   7.879  68.745  1.00  0.00    -0.116 NA 
BRANCH  19  21
HETATM   21  N   UNL     1      -8.942   6.105  69.936  1.00  0.00    -0.139 NA 
HETATM   22  H   UNL     1      -8.936   5.092  70.054  1.00  0.00     0.000 HD 
BRANCH  21  23
HETATM   23  C   UNL     1     -10.002   6.759  70.578  1.00  0.00    -0.183 A  
HETATM   24  C   UNL     1      -9.831   7.867  71.415  1.00  0.00    -0.203 A  
HETATM   25  C   UNL     1     -10.911   8.522  72.004  1.00  0.00    -0.405 A  
HETATM   26  C   UNL     1     -12.207   8.059  71.778  1.00  0.00    -0.352 A  
HETATM   27  C   UNL     1     -13.315   8.760  72.351  1.00  0.00    -0.399 C  
HETATM   28  C   UNL     1     -12.404   6.924  70.994  1.00  0.00    -0.401 A  
HETATM   29  C   UNL     1     -11.311   6.277  70.404  1.00  0.00    -0.440 A  
HETATM   30  N   UNL     1     -14.211   9.344  72.808  1.00  0.00    -0.339 NA 
ENDBRANCH  21  23
ENDBRANCH  19  21
ENDBRANCH  13  15
ENDBRANCH   5  13
TORSDOF 5
ENDMDL
MODEL      125
REMARK 921   NORMALIZED FREE ENERGY PREDICTED BY IDOCK:   -5.10 KCAL/MOL
REMARK 922        TOTAL FREE ENERGY PREDICTED BY IDOCK:   -7.38 KCAL/MOL
REMARK 923 INTER-LIGAND FREE ENERGY PREDICTED BY IDOCK:   -6.62 KCAL/MOL
REMARK 924 INTRA-LIGAND FREE ENERGY PREDICTED BY IDOCK:   -0.76 KCAL/MOL
REMARK 927      BINDING AFFINITY PREDICTED BY RF-SCORE:    0.00 PKD
ROOT
HETATM    1  C   UNL     1      -8.573   9.293  68.238  1.00  0.00    -0.125 C  
HETATM    2  C   UNL     1      -9.735  10.227  68.435  1.00  0.00    -0.165 A  
HETATM    3  C   UNL     1     -10.118  10.998  67.316  1.00  0.00    -0.222 A  
HETATM    4  C   UNL     1     -11.169  11.917  67.359  1.00  0.00    -0.366 A  
HETATM    5  C   UNL     1     -10.380  10.435  69.674  1.00  0.00    -0.226 A  
HETATM    6  C   UNL     1     -11.889  12.026  68.547  1.00  0.00    -0.369 A  
HETATM    7  C   UNL     1     -12.399  11.401  70.918  1.00  0.00    -0.483 C  
HETATM    8  C   UNL     1     -11.524  11.281  69.694  1.00  0.00    -0.380 A  
ENDROOT
BRANCH   4   9
HETATM    9  C   UNL     1     -11.390  12.752  66.164  1.00  0.00    -0.371 C  
HETATM   10  C   UNL     1     -12.181  13.830  66.077  1.00  0.00    -0.495 C  
HETATM   11  C   UNL     1     -12.346  14.524  64.843  1.00  0.00    -0.370 C  
HETATM   12  N   UNL     1     -12.481  15.074  63.831  1.00  0.00    -0.744 NA 
ENDBRANCH   4   9
BRANCH   5  13
HETATM   13  N   UNL     1      -9.867   9.916  70.892  1.00  0.00    -0.258 NA 
HETATM   14  H   UNL     1      -9.304  10.575  71.430  1.00  0.00     0.000 HD 
BRANCH  13  15
HETATM   15  C   UNL     1     -10.005   8.640  71.484  1.00  0.00    -0.274 A  
HETATM   16  C   UNL     1     -11.076   8.421  72.323  1.00  0.00    -0.438 A  
HETATM   17  C   UNL     1     -11.180   7.165  72.869  1.00  0.00    -0.262 A  
HETATM   18  N   UNL     1     -10.314   6.170  72.610  1.00  0.00    -0.190 NA 
HETATM   19  C   UNL     1      -9.295   6.460  71.788  1.00  0.00    -0.150 A  
HETATM   20  N   UNL     1      -9.128   7.665  71.220  1.00  0.00    -0.137 NA 
BRANCH  19  21
HETATM   21  N   UNL     1      -8.391   5.423  71.549  1.00  0.00    -0.121 NA 
HETATM   22  H   UNL     1      -7.860   5.127  72.368  1.00  0.00     0.000 HD 
BRANCH  21  23
HETATM   23  C   UNL     1      -8.087   4.720  70.376  1.00  0.00    -0.083 A  
HETATM   24  C   UNL     1      -8.266   5.249  69.092  1.00  0.00    -0.092 A  
HETATM   25  C   UNL     1      -7.913   4.540  67.945  1.00  0.00    -0.088 A  
HETATM   26  C   UNL     1      -7.384   3.254  68.062  1.00  0.00    -0.054 A  
HETATM   27  C   UNL     1      -6.985   2.547  66.884  1.00  0.00    -0.048 C  
HETATM   28  C   UNL     1      -7.248   2.680  69.325  1.00  0.00    -0.044 A  
HETATM   29  C   UNL     1      -7.602   3.405  70.471  1.00  0.00    -0.040 A  
HETATM   30  N   UNL     1      -6.649   1.985  65.923  1.00  0.00    -0.024 NA 
ENDBRANCH  21  23
ENDBRANCH  19  21
ENDBRANCH  13  15
ENDBRANCH   5  13
TORSDOF 5
ENDMDL
MODEL      126
REMARK 921   NORMALIZED FREE ENERGY PREDICTED BY IDOCK:   -5.07 KCAL/MOL
REMARK 922        TOTAL FREE ENERGY PREDICTED BY IDOCK:   -7.34 KCAL/MOL
REMARK 923 INTER-LIGAND FREE ENERGY PREDICTED BY IDOCK:   -6.57 KCAL/MOL
REMARK 924 INTRA-LIGAND FREE ENERGY PREDICTED BY IDOCK:   -0.77 KCAL/MOL
REMARK 927      BINDING AFFINITY PREDICTED BY RF-SCORE:    0.00 PKD
ROOT
HETATM    1  C   UNL     1      -7.860  15.362  68.244  1.00  0.00    -0.123 C  
HETATM    2  C   UNL     1      -9.291  14.903  68.299  1.00  0.00    -0.195 A  
HETATM    3  C   UNL     1     -10.075  15.416  69.355  1.00  0.00    -0.269 A  
HETATM    4  C   UNL     1     -11.414  15.066  69.539  1.00  0.00    -0.317 A  
HETATM    5  C   UNL     1      -9.847  13.940  67.428  1.00  0.00    -0.237 A  
HETATM    6  C   UNL     1     -11.998  14.215  68.601  1.00  0.00    -0.373 A  
HETATM    7  C   UNL     1     -11.962  12.815  66.525  1.00  0.00    -0.428 C  
HETATM    8  C   UNL     1     -11.239  13.668  67.538  1.00  0.00    -0.316 A  
ENDROOT
BRANCH   4   9
HETATM    9  C   UNL     1     -12.089  15.568  70.749  1.00  0.00    -0.435 C  
HETATM   10  C   UNL     1     -11.556  15.680  71.974  1.00  0.00    -0.540 C  
HETATM   11  C   UNL     1     -12.334  16.138  73.076  1.00  0.00    -0.525 C  
HETATM   12  N   UNL     1     -12.981  16.503  73.967  1.00  0.00    -0.594 NA 
ENDBRANCH   4   9
BRANCH   5  13
HETATM   13  N   UNL     1      -9.049  13.176  66.537  1.00  0.00    -0.422 NA 
HETATM   14  H   UNL     1      -8.897  13.608  65.625  1.00  0.00     0.000 HD 
BRANCH  13  15
HETATM   15  C   UNL     1      -8.429  11.916  66.700  1.00  0.00    -0.143 A  
HETATM   16  C   UNL     1      -7.792  11.650  67.894  1.00  0.00    -0.129 A  
HETATM   17  C   UNL     1      -7.212  10.411  68.016  1.00  0.00    -0.084 A  
HETATM   18  N   UNL     1      -7.256   9.474  67.054  1.00  0.00    -0.086 NA 
HETATM   19  C   UNL     1      -7.889   9.807  65.919  1.00  0.00    -0.108 A  
HETATM   20  N   UNL     1      -8.476  10.998  65.728  1.00  0.00    -0.153 NA 
BRANCH  19  21
HETATM   21  N   UNL     1      -7.904   8.831  64.921  1.00  0.00    -0.113 NA 
HETATM   22  H   UNL     1      -7.744   9.188  63.979  1.00  0.00     0.000 HD 
BRANCH  21  23
HETATM   23  C   UNL     1      -8.101   7.446  64.991  1.00  0.00    -0.122 A  
HETATM   24  C   UNL     1      -8.888   6.829  65.970  1.00  0.00    -0.150 A  
HETATM   25  C   UNL     1      -9.100   5.451  65.988  1.00  0.00    -0.159 A  
HETATM   26  C   UNL     1      -8.499   4.647  65.019  1.00  0.00    -0.133 A  
HETATM   27  C   UNL     1      -8.754   3.238  65.016  1.00  0.00    -0.115 C  
HETATM   28  C   UNL     1      -7.665   5.227  64.066  1.00  0.00    -0.084 A  
HETATM   29  C   UNL     1      -7.463   6.614  64.056  1.00  0.00    -0.093 A  
HETATM   30  N   UNL     1      -8.977   2.098  65.012  1.00  0.00    -0.121 NA 
ENDBRANCH  21  23
ENDBRANCH  19  21
ENDBRANCH  13  15
ENDBRANCH   5  13
TORSDOF 5
ENDMDL
MODEL      127
REMARK 921   NORMALIZED FREE ENERGY PREDICTED BY IDOCK:   -5.05 KCAL/MOL
REMARK 922        TOTAL FREE ENERGY PREDICTED BY IDOCK:   -7.31 KCAL/MOL
REMARK 923 INTER-LIGAND FREE ENERGY PREDICTED BY IDOCK:   -6.48 KCAL/MOL
REMARK 924 INTRA-LIGAND FREE ENERGY PREDICTED BY IDOCK:   -0.84 KCAL/MOL
REMARK 927      BINDING AFFINITY PREDICTED BY RF-SCORE:    0.00 PKD
ROOT
HETATM    1  C   UNL     1     -10.850   7.070  66.939  1.00  0.00    -0.350 C  
HETATM    2  C   UNL     1      -9.374   7.264  67.149  1.00  0.00    -0.170 A  
HETATM    3  C   UNL     1      -8.846   6.790  68.370  1.00  0.00    -0.122 A  
HETATM    4  C   UNL     1      -7.496   6.916  68.706  1.00  0.00    -0.099 A  
HETATM    5  C   UNL     1      -8.532   7.960  66.254  1.00  0.00    -0.135 A  
HETATM    6  C   UNL     1      -6.642   7.487  67.764  1.00  0.00    -0.061 A  
HETATM    7  C   UNL     1      -6.139   8.525  65.541  1.00  0.00    -0.048 C  
HETATM    8  C   UNL     1      -7.138   7.988  66.536  1.00  0.00    -0.075 A  
ENDROOT
BRANCH   4   9
HETATM    9  C   UNL     1      -7.091   6.497  70.060  1.00  0.00    -0.074 C  
HETATM   10  C   UNL     1      -7.904   6.198  71.082  1.00  0.00    -0.111 C  
HETATM   11  C   UNL     1      -7.382   5.851  72.362  1.00  0.00    -0.091 C  
HETATM   12  N   UNL     1      -6.945   5.580  73.401  1.00  0.00    -0.083 NA 
ENDBRANCH   4   9
BRANCH   5  13
HETATM   13  N   UNL     1      -9.044   8.706  65.159  1.00  0.00    -0.426 NA 
HETATM   14  H   UNL     1      -9.144   8.176  64.294  1.00  0.00     0.000 HD 
BRANCH  13  15
HETATM   15  C   UNL     1      -9.438  10.060  65.068  1.00  0.00    -0.277 A  
HETATM   16  C   UNL     1     -10.019  10.495  63.896  1.00  0.00    -0.348 A  
HETATM   17  C   UNL     1     -10.397  11.815  63.852  1.00  0.00    -0.385 A  
HETATM   18  N   UNL     1     -10.243  12.665  64.882  1.00  0.00    -0.288 NA 
HETATM   19  C   UNL     1      -9.665  12.171  65.986  1.00  0.00    -0.244 A  
HETATM   20  N   UNL     1      -9.268  10.894  66.100  1.00  0.00    -0.178 NA 
BRANCH  19  21
HETATM   21  N   UNL     1      -9.489  13.073  67.037  1.00  0.00    -0.229 NA 
HETATM   22  H   UNL     1      -9.172  12.650  67.909  1.00  0.00     0.000 HD 
BRANCH  21  23
HETATM   23  C   UNL     1      -9.675  14.461  67.100  1.00  0.00    -0.248 A  
HETATM   24  C   UNL     1      -8.864  15.377  66.421  1.00  0.00    -0.340 A  
HETATM   25  C   UNL     1      -9.101  16.750  66.468  1.00  0.00    -0.302 A  
HETATM   26  C   UNL     1     -10.163  17.243  67.226  1.00  0.00    -0.320 A  
HETATM   27  C   UNL     1     -10.428  18.649  67.238  1.00  0.00    -0.423 C  
HETATM   28  C   UNL     1     -10.952  16.357  67.958  1.00  0.00    -0.327 A  
HETATM   29  C   UNL     1     -10.707  14.980  67.899  1.00  0.00    -0.268 A  
HETATM   30  N   UNL     1     -10.645  19.791  67.230  1.00  0.00    -0.450 NA 
ENDBRANCH  21  23
ENDBRANCH  19  21
ENDBRANCH  13  15
ENDBRANCH   5  13
TORSDOF 5
ENDMDL
MODEL      128
REMARK 921   NORMALIZED FREE ENERGY PREDICTED BY IDOCK:   -5.05 KCAL/MOL
REMARK 922        TOTAL FREE ENERGY PREDICTED BY IDOCK:   -7.30 KCAL/MOL
REMARK 923 INTER-LIGAND FREE ENERGY PREDICTED BY IDOCK:   -6.32 KCAL/MOL
REMARK 924 INTRA-LIGAND FREE ENERGY PREDICTED BY IDOCK:   -0.98 KCAL/MOL
REMARK 927      BINDING AFFINITY PREDICTED BY RF-SCORE:    0.00 PKD
ROOT
HETATM    1  C   UNL     1     -10.550  11.172  66.092  1.00  0.00    -0.305 C  
HETATM    2  C   UNL     1      -9.598  12.201  66.635  1.00  0.00    -0.226 A  
HETATM    3  C   UNL     1     -10.132  13.487  66.872  1.00  0.00    -0.256 A  
HETATM    4  C   UNL     1      -9.361  14.544  67.362  1.00  0.00    -0.197 A  
HETATM    5  C   UNL     1      -8.217  11.978  66.825  1.00  0.00    -0.110 A  
HETATM    6  C   UNL     1      -8.026  14.285  67.672  1.00  0.00    -0.191 A  
HETATM    7  C   UNL     1      -6.023  12.795  67.863  1.00  0.00    -0.118 C  
HETATM    8  C   UNL     1      -7.453  13.013  67.432  1.00  0.00    -0.136 A  
ENDROOT
BRANCH   4   9
HETATM    9  C   UNL     1     -10.000  15.869  67.448  1.00  0.00    -0.239 C  
HETATM   10  C   UNL     1      -9.380  17.052  67.547  1.00  0.00    -0.233 C  
HETATM   11  C   UNL     1     -10.120  18.263  67.673  1.00  0.00    -0.356 C  
HETATM   12  N   UNL     1     -10.733  19.241  67.784  1.00  0.00    -0.411 NA 
ENDBRANCH   4   9
BRANCH   5  13
HETATM   13  N   UNL     1      -7.564  10.814  66.340  1.00  0.00    -0.137 NA 
HETATM   14  H   UNL     1      -7.195  10.898  65.393  1.00  0.00     0.000 HD 
BRANCH  13  15
HETATM   15  C   UNL     1      -7.340   9.559  66.949  1.00  0.00    -0.087 A  
HETATM   16  C   UNL     1      -6.530   8.651  66.299  1.00  0.00    -0.061 A  
HETATM   17  C   UNL     1      -6.330   7.447  66.930  1.00  0.00    -0.048 A  
HETATM   18  N   UNL     1      -6.861   7.140  68.126  1.00  0.00    -0.071 NA 
HETATM   19  C   UNL     1      -7.641   8.071  68.694  1.00  0.00    -0.100 A  
HETATM   20  N   UNL     1      -7.884   9.266  68.136  1.00  0.00    -0.095 NA 
BRANCH  19  21
HETATM   21  N   UNL     1      -8.205   7.725  69.924  1.00  0.00    -0.123 NA 
HETATM   22  H   UNL     1      -7.573   7.235  70.556  1.00  0.00     0.000 HD 
BRANCH  21  23
HETATM   23  C   UNL     1      -9.491   7.936  70.438  1.00  0.00    -0.163 A  
HETATM   24  C   UNL     1     -10.530   7.005  70.321  1.00  0.00    -0.227 A  
HETATM   25  C   UNL     1     -11.786   7.226  70.882  1.00  0.00    -0.351 A  
HETATM   26  C   UNL     1     -12.039   8.415  71.566  1.00  0.00    -0.342 A  
HETATM   27  C   UNL     1     -13.318   8.619  72.176  1.00  0.00    -0.396 C  
HETATM   28  C   UNL     1     -11.041   9.384  71.649  1.00  0.00    -0.409 A  
HETATM   29  C   UNL     1      -9.781   9.149  71.085  1.00  0.00    -0.360 A  
HETATM   30  N   UNL     1     -14.354   8.771  72.680  1.00  0.00    -0.574 NA 
ENDBRANCH  21  23
ENDBRANCH  19  21
ENDBRANCH  13  15
ENDBRANCH   5  13
TORSDOF 5
ENDMDL
MODEL      129
REMARK 921   NORMALIZED FREE ENERGY PREDICTED BY IDOCK:   -5.02 KCAL/MOL
REMARK 922        TOTAL FREE ENERGY PREDICTED BY IDOCK:   -7.26 KCAL/MOL
REMARK 923 INTER-LIGAND FREE ENERGY PREDICTED BY IDOCK:   -6.41 KCAL/MOL
REMARK 924 INTRA-LIGAND FREE ENERGY PREDICTED BY IDOCK:   -0.85 KCAL/MOL
REMARK 927      BINDING AFFINITY PREDICTED BY RF-SCORE:    0.00 PKD
ROOT
HETATM    1  C   UNL     1      -7.073  12.887  67.880  1.00  0.00    -0.127 C  
HETATM    2  C   UNL     1      -8.107  13.974  67.775  1.00  0.00    -0.170 A  
HETATM    3  C   UNL     1      -7.638  15.300  67.889  1.00  0.00    -0.152 A  
HETATM    4  C   UNL     1      -8.487  16.408  67.826  1.00  0.00    -0.172 A  
HETATM    5  C   UNL     1      -9.495  13.736  67.666  1.00  0.00    -0.217 A  
HETATM    6  C   UNL     1      -9.840  16.176  67.587  1.00  0.00    -0.236 A  
HETATM    7  C   UNL     1     -11.813  14.696  67.152  1.00  0.00    -0.367 C  
HETATM    8  C   UNL     1     -10.350  14.859  67.483  1.00  0.00    -0.239 A  
ENDROOT
BRANCH   4   9
HETATM    9  C   UNL     1      -7.895  17.733  68.085  1.00  0.00    -0.264 C  
HETATM   10  C   UNL     1      -8.044  18.835  67.337  1.00  0.00    -0.265 C  
HETATM   11  C   UNL     1      -7.375  20.048  67.673  1.00  0.00    -0.288 C  
HETATM   12  N   UNL     1      -6.818  21.026  67.951  1.00  0.00    -0.267 NA 
ENDBRANCH   4   9
BRANCH   5  13
HETATM   13  N   UNL     1     -10.057  12.443  67.835  1.00  0.00    -0.203 NA 
HETATM   14  H   UNL     1     -10.642  12.341  68.664  1.00  0.00     0.000 HD 
BRANCH  13  15
HETATM   15  C   UNL     1      -9.943  11.276  67.047  1.00  0.00    -0.198 A  
HETATM   16  C   UNL     1     -10.126  11.385  65.685  1.00  0.00    -0.293 A  
HETATM   17  C   UNL     1      -9.996  10.229  64.954  1.00  0.00    -0.323 A  
HETATM   18  N   UNL     1      -9.690   9.039  65.499  1.00  0.00    -0.128 NA 
HETATM   19  C   UNL     1      -9.532   9.010  66.830  1.00  0.00    -0.167 A  
HETATM   20  N   UNL     1      -9.647  10.098  67.607  1.00  0.00    -0.147 NA 
BRANCH  19  21
HETATM   21  N   UNL     1      -9.240   7.761  67.382  1.00  0.00    -0.135 NA 
HETATM   22  H   UNL     1      -8.640   7.174  66.804  1.00  0.00     0.000 HD 
BRANCH  21  23
HETATM   23  C   UNL     1      -9.630   7.177  68.594  1.00  0.00    -0.140 A  
HETATM   24  C   UNL     1      -8.777   7.048  69.696  1.00  0.00    -0.141 A  
HETATM   25  C   UNL     1      -9.207   6.502  70.904  1.00  0.00    -0.155 A  
HETATM   26  C   UNL     1     -10.520   6.045  71.028  1.00  0.00    -0.285 A  
HETATM   27  C   UNL     1     -10.970   5.523  72.282  1.00  0.00    -0.239 C  
HETATM   28  C   UNL     1     -11.375   6.110  69.929  1.00  0.00    -0.454 A  
HETATM   29  C   UNL     1     -10.932   6.665  68.722  1.00  0.00    -0.322 A  
HETATM   30  N   UNL     1     -11.330   5.115  73.309  1.00  0.00    -0.319 NA 
ENDBRANCH  21  23
ENDBRANCH  19  21
ENDBRANCH  13  15
ENDBRANCH   5  13
TORSDOF 5
ENDMDL
MODEL      130
REMARK 921   NORMALIZED FREE ENERGY PREDICTED BY IDOCK:   -4.97 KCAL/MOL
REMARK 922        TOTAL FREE ENERGY PREDICTED BY IDOCK:   -7.20 KCAL/MOL
REMARK 923 INTER-LIGAND FREE ENERGY PREDICTED BY IDOCK:   -6.55 KCAL/MOL
REMARK 924 INTRA-LIGAND FREE ENERGY PREDICTED BY IDOCK:   -0.65 KCAL/MOL
REMARK 927      BINDING AFFINITY PREDICTED BY RF-SCORE:    0.00 PKD
ROOT
HETATM    1  C   UNL     1      -7.335  14.788  69.422  1.00  0.00    -0.162 C  
HETATM    2  C   UNL     1      -7.913  15.434  68.193  1.00  0.00    -0.132 A  
HETATM    3  C   UNL     1      -7.127  16.433  67.580  1.00  0.00    -0.170 A  
HETATM    4  C   UNL     1      -7.544  17.127  66.441  1.00  0.00    -0.347 A  
HETATM    5  C   UNL     1      -9.206  15.166  67.693  1.00  0.00    -0.181 A  
HETATM    6  C   UNL     1      -8.765  16.769  65.873  1.00  0.00    -0.082 A  
HETATM    7  C   UNL     1     -10.860  15.402  65.752  1.00  0.00    -0.349 C  
HETATM    8  C   UNL     1      -9.588  15.784  66.469  1.00  0.00    -0.288 A  
ENDROOT
BRANCH   4   9
HETATM    9  C   UNL     1      -6.691  18.233  65.969  1.00  0.00    -0.301 C  
HETATM   10  C   UNL     1      -7.096  19.457  65.605  1.00  0.00    -0.292 C  
HETATM   11  C   UNL     1      -6.171  20.425  65.118  1.00  0.00    -0.266 C  
HETATM   12  N   UNL     1      -5.409  21.200  64.714  1.00  0.00    -0.216 NA 
ENDBRANCH   4   9
BRANCH   5  13
HETATM   13  N   UNL     1     -10.154  14.396  68.418  1.00  0.00    -0.237 NA 
HETATM   14  H   UNL     1     -10.672  14.917  69.126  1.00  0.00     0.000 HD 
BRANCH  13  15
HETATM   15  C   UNL     1     -10.500  13.029  68.323  1.00  0.00    -0.250 A  
HETATM   16  C   UNL     1     -11.601  12.684  67.569  1.00  0.00    -0.418 A  
HETATM   17  C   UNL     1     -11.897  11.344  67.494  1.00  0.00    -0.022 A  
HETATM   18  N   UNL     1     -11.166  10.389  68.093  1.00  0.00    -0.289 NA 
HETATM   19  C   UNL     1     -10.113  10.802  68.814  1.00  0.00    -0.191 A  
HETATM   20  N   UNL     1      -9.766  12.092  68.934  1.00  0.00     0.025 NA 
BRANCH  19  21
HETATM   21  N   UNL     1      -9.380   9.799  69.451  1.00  0.00    -0.189 NA 
HETATM   22  H   UNL     1      -8.374   9.844  69.291  1.00  0.00     0.000 HD 
BRANCH  21  23
HETATM   23  C   UNL     1      -9.790   8.740  70.272  1.00  0.00    -0.175 A  
HETATM   24  C   UNL     1      -9.718   7.396  69.889  1.00  0.00    -0.171 A  
HETATM   25  C   UNL     1     -10.092   6.362  70.745  1.00  0.00    -0.220 A  
HETATM   26  C   UNL     1     -10.575   6.661  72.020  1.00  0.00    -0.236 A  
HETATM   27  C   UNL     1     -10.919   5.595  72.911  1.00  0.00    -0.282 C  
HETATM   28  C   UNL     1     -10.710   7.993  72.408  1.00  0.00    -0.386 A  
HETATM   29  C   UNL     1     -10.326   9.023  71.539  1.00  0.00    -0.412 A  
HETATM   30  N   UNL     1     -11.182   4.723  73.633  1.00  0.00    -0.311 NA 
ENDBRANCH  21  23
ENDBRANCH  19  21
ENDBRANCH  13  15
ENDBRANCH   5  13
TORSDOF 5
ENDMDL
MODEL      131
REMARK 921   NORMALIZED FREE ENERGY PREDICTED BY IDOCK:   -4.96 KCAL/MOL
REMARK 922        TOTAL FREE ENERGY PREDICTED BY IDOCK:   -7.18 KCAL/MOL
REMARK 923 INTER-LIGAND FREE ENERGY PREDICTED BY IDOCK:   -6.37 KCAL/MOL
REMARK 924 INTRA-LIGAND FREE ENERGY PREDICTED BY IDOCK:   -0.81 KCAL/MOL
REMARK 927      BINDING AFFINITY PREDICTED BY RF-SCORE:    0.00 PKD
ROOT
HETATM    1  C   UNL     1     -10.909   6.556  68.814  1.00  0.00    -0.357 C  
HETATM    2  C   UNL     1      -9.976   6.214  67.686  1.00  0.00    -0.150 A  
HETATM    3  C   UNL     1     -10.417   5.219  66.786  1.00  0.00    -0.330 A  
HETATM    4  C   UNL     1      -9.648   4.790  65.702  1.00  0.00    -0.184 A  
HETATM    5  C   UNL     1      -8.679   6.754  67.541  1.00  0.00    -0.119 A  
HETATM    6  C   UNL     1      -8.423   5.418  65.485  1.00  0.00    -0.141 A  
HETATM    7  C   UNL     1      -6.640   7.091  66.029  1.00  0.00    -0.052 C  
HETATM    8  C   UNL     1      -7.941   6.408  66.375  1.00  0.00    -0.110 A  
ENDROOT
BRANCH   4   9
HETATM    9  C   UNL     1     -10.162   3.658  64.910  1.00  0.00    -0.060 C  
HETATM   10  C   UNL     1     -10.605   3.702  63.645  1.00  0.00    -0.279 C  
HETATM   11  C   UNL     1     -11.124   2.539  63.007  1.00  0.00    -0.185 C  
HETATM   12  N   UNL     1     -11.553   1.588  62.501  1.00  0.00    -0.246 NA 
ENDBRANCH   4   9
BRANCH   5  13
HETATM   13  N   UNL     1      -8.065   7.533  68.558  1.00  0.00    -0.123 NA 
HETATM   14  H   UNL     1      -7.593   6.990  69.281  1.00  0.00     0.000 HD 
BRANCH  13  15
HETATM   15  C   UNL     1      -7.998   8.933  68.735  1.00  0.00    -0.102 A  
HETATM   16  C   UNL     1      -6.774   9.499  69.020  1.00  0.00    -0.050 A  
HETATM   17  C   UNL     1      -6.750  10.863  69.174  1.00  0.00    -0.079 A  
HETATM   18  N   UNL     1      -7.837  11.643  69.045  1.00  0.00    -0.032 NA 
HETATM   19  C   UNL     1      -8.993  11.021  68.772  1.00  0.00    -0.149 A  
HETATM   20  N   UNL     1      -9.093   9.692  68.611  1.00  0.00    -0.131 NA 
BRANCH  19  21
HETATM   21  N   UNL     1     -10.117  11.843  68.665  1.00  0.00    -0.312 NA 
HETATM   22  H   UNL     1     -10.774  11.764  69.442  1.00  0.00     0.000 HD 
BRANCH  21  23
HETATM   23  C   UNL     1     -10.498  12.757  67.674  1.00  0.00    -0.220 A  
HETATM   24  C   UNL     1     -11.610  13.598  67.789  1.00  0.00    -0.373 A  
HETATM   25  C   UNL     1     -11.937  14.529  66.804  1.00  0.00    -0.364 A  
HETATM   26  C   UNL     1     -11.154  14.622  65.653  1.00  0.00    -0.338 A  
HETATM   27  C   UNL     1     -11.469  15.606  64.664  1.00  0.00    -0.303 C  
HETATM   28  C   UNL     1     -10.074  13.758  65.487  1.00  0.00    -0.303 A  
HETATM   29  C   UNL     1      -9.752  12.830  66.486  1.00  0.00    -0.255 A  
HETATM   30  N   UNL     1     -11.724  16.419  63.873  1.00  0.00    -1.024 NA 
ENDBRANCH  21  23
ENDBRANCH  19  21
ENDBRANCH  13  15
ENDBRANCH   5  13
TORSDOF 5
ENDMDL
MODEL      132
REMARK 921   NORMALIZED FREE ENERGY PREDICTED BY IDOCK:   -4.95 KCAL/MOL
REMARK 922        TOTAL FREE ENERGY PREDICTED BY IDOCK:   -7.18 KCAL/MOL
REMARK 923 INTER-LIGAND FREE ENERGY PREDICTED BY IDOCK:   -6.25 KCAL/MOL
REMARK 924 INTRA-LIGAND FREE ENERGY PREDICTED BY IDOCK:   -0.92 KCAL/MOL
REMARK 927      BINDING AFFINITY PREDICTED BY RF-SCORE:    0.00 PKD
ROOT
HETATM    1  C   UNL     1     -10.877  17.358  65.147  1.00  0.00     0.136 C  
HETATM    2  C   UNL     1     -10.467  16.874  66.510  1.00  0.00    -0.253 A  
HETATM    3  C   UNL     1      -9.484  17.636  67.178  1.00  0.00    -0.267 A  
HETATM    4  C   UNL     1      -8.998  17.296  68.443  1.00  0.00    -0.269 A  
HETATM    5  C   UNL     1     -10.934  15.678  67.098  1.00  0.00    -0.270 A  
HETATM    6  C   UNL     1      -9.555  16.187  69.077  1.00  0.00    -0.251 A  
HETATM    7  C   UNL     1     -11.136  14.250  69.214  1.00  0.00    -0.297 C  
HETATM    8  C   UNL     1     -10.531  15.390  68.432  1.00  0.00    -0.239 A  
ENDROOT
BRANCH   4   9
HETATM    9  C   UNL     1      -7.884  18.098  68.980  1.00  0.00    -0.107 C  
HETATM   10  C   UNL     1      -7.646  19.396  68.746  1.00  0.00    -0.398 C  
HETATM   11  C   UNL     1      -6.500  20.044  69.291  1.00  0.00    -0.324 C  
HETATM   12  N   UNL     1      -5.558  20.557  69.732  1.00  0.00    -0.328 NA 
ENDBRANCH   4   9
BRANCH   5  13
HETATM   13  N   UNL     1     -11.694  14.723  66.370  1.00  0.00    -0.313 NA 
HETATM   14  H   UNL     1     -12.688  14.940  66.295  1.00  0.00     0.000 HD 
BRANCH  13  15
HETATM   15  C   UNL     1     -11.304  13.524  65.734  1.00  0.00    -0.305 A  
HETATM   16  C   UNL     1     -12.117  13.014  64.743  1.00  0.00    -0.465 A  
HETATM   17  C   UNL     1     -11.696  11.853  64.142  1.00  0.00    -0.340 A  
HETATM   18  N   UNL     1     -10.551  11.226  64.461  1.00  0.00    -0.331 NA 
HETATM   19  C   UNL     1      -9.815  11.778  65.437  1.00  0.00    -0.233 A  
HETATM   20  N   UNL     1     -10.164  12.909  66.070  1.00  0.00    -0.279 NA 
BRANCH  19  21
HETATM   21  N   UNL     1      -8.641  11.101  65.773  1.00  0.00    -0.298 NA 
HETATM   22  H   UNL     1      -8.086  10.796  64.974  1.00  0.00     0.000 HD 
BRANCH  21  23
HETATM   23  C   UNL     1      -8.095  10.769  67.020  1.00  0.00    -0.124 A  
HETATM   24  C   UNL     1      -8.869  10.393  68.124  1.00  0.00    -0.132 A  
HETATM   25  C   UNL     1      -8.294  10.026  69.339  1.00  0.00    -0.169 A  
HETATM   26  C   UNL     1      -6.906  10.048  69.482  1.00  0.00    -0.071 A  
HETATM   27  C   UNL     1      -6.318   9.630  70.717  1.00  0.00    -0.097 C  
HETATM   28  C   UNL     1      -6.114  10.472  68.417  1.00  0.00    -0.047 A  
HETATM   29  C   UNL     1      -6.704  10.834  67.199  1.00  0.00    -0.084 A  
HETATM   30  N   UNL     1      -5.848   9.275  71.720  1.00  0.00    -0.098 NA 
ENDBRANCH  21  23
ENDBRANCH  19  21
ENDBRANCH  13  15
ENDBRANCH   5  13
TORSDOF 5
ENDMDL
MODEL      133
REMARK 921   NORMALIZED FREE ENERGY PREDICTED BY IDOCK:   -4.95 KCAL/MOL
REMARK 922        TOTAL FREE ENERGY PREDICTED BY IDOCK:   -7.17 KCAL/MOL
REMARK 923 INTER-LIGAND FREE ENERGY PREDICTED BY IDOCK:   -7.43 KCAL/MOL
REMARK 924 INTRA-LIGAND FREE ENERGY PREDICTED BY IDOCK:    0.26 KCAL/MOL
REMARK 927      BINDING AFFINITY PREDICTED BY RF-SCORE:    0.00 PKD
ROOT
HETATM    1  C   UNL     1     -11.128  10.053  67.212  1.00  0.00    -0.116 C  
HETATM    2  C   UNL     1     -10.241   9.875  66.011  1.00  0.00    -0.269 A  
HETATM    3  C   UNL     1      -9.430   8.720  65.995  1.00  0.00    -0.302 A  
HETATM    4  C   UNL     1      -8.548   8.434  64.950  1.00  0.00    -0.108 A  
HETATM    5  C   UNL     1     -10.114  10.826  64.975  1.00  0.00    -0.313 A  
HETATM    6  C   UNL     1      -8.519   9.308  63.865  1.00  0.00    -0.198 A  
HETATM    7  C   UNL     1      -9.274  11.341  62.612  1.00  0.00    -0.330 C  
HETATM    8  C   UNL     1      -9.307  10.485  63.854  1.00  0.00    -0.314 A  
ENDROOT
BRANCH   4   9
HETATM    9  C   UNL     1      -7.664   7.264  65.108  1.00  0.00    -0.113 C  
HETATM   10  C   UNL     1      -7.949   5.996  64.780  1.00  0.00    -0.127 C  
HETATM   11  C   UNL     1      -7.020   4.945  65.030  1.00  0.00    -0.061 C  
HETATM   12  N   UNL     1      -6.259   4.097  65.247  1.00  0.00    -0.027 NA 
ENDBRANCH   4   9
BRANCH   5  13
HETATM   13  N   UNL     1     -10.674  12.128  65.069  1.00  0.00    -0.286 NA 
HETATM   14  H   UNL     1     -11.340  12.357  64.331  1.00  0.00     0.000 HD 
BRANCH  13  15
HETATM   15  C   UNL     1     -10.465  13.157  66.014  1.00  0.00    -0.284 A  
HETATM   16  C   UNL     1      -9.889  14.334  65.583  1.00  0.00    -0.301 A  
HETATM   17  C   UNL     1      -9.713  15.313  66.530  1.00  0.00    -0.268 A  
HETATM   18  N   UNL     1     -10.085  15.177  67.814  1.00  0.00    -0.230 NA 
HETATM   19  C   UNL     1     -10.633  14.003  68.160  1.00  0.00    -0.248 A  
HETATM   20  N   UNL     1     -10.834  13.002  67.290  1.00  0.00    -0.250 NA 
BRANCH  19  21
HETATM   21  N   UNL     1     -10.991  13.870  69.503  1.00  0.00    -0.432 NA 
HETATM   22  H   UNL     1     -10.713  14.653  70.094  1.00  0.00     0.000 HD 
BRANCH  21  23
HETATM   23  C   UNL     1     -11.667  12.845  70.178  1.00  0.00    -0.159 A  
HETATM   24  C   UNL     1     -11.440  11.485  69.936  1.00  0.00    -0.340 A  
HETATM   25  C   UNL     1     -12.097  10.488  70.656  1.00  0.00    -0.452 A  
HETATM   26  C   UNL     1     -13.026  10.839  71.635  1.00  0.00    -0.581 A  
HETATM   27  C   UNL     1     -13.666   9.813  72.400  1.00  0.00    -0.179 C  
HETATM   28  C   UNL     1     -13.312  12.185  71.858  1.00  0.00    -0.421 A  
HETATM   29  C   UNL     1     -12.643  13.178  71.132  1.00  0.00    -0.403 A  
HETATM   30  N   UNL     1     -14.171   8.973  73.026  1.00  0.00    -0.323 NA 
ENDBRANCH  21  23
ENDBRANCH  19  21
ENDBRANCH  13  15
ENDBRANCH   5  13
TORSDOF 5
ENDMDL
MODEL      134
REMARK 921   NORMALIZED FREE ENERGY PREDICTED BY IDOCK:   -4.94 KCAL/MOL
REMARK 922        TOTAL FREE ENERGY PREDICTED BY IDOCK:   -7.16 KCAL/MOL
REMARK 923 INTER-LIGAND FREE ENERGY PREDICTED BY IDOCK:   -6.44 KCAL/MOL
REMARK 924 INTRA-LIGAND FREE ENERGY PREDICTED BY IDOCK:   -0.71 KCAL/MOL
REMARK 927      BINDING AFFINITY PREDICTED BY RF-SCORE:    0.00 PKD
ROOT
HETATM    1  C   UNL     1     -11.113  12.214  66.940  1.00  0.00    -0.348 C  
HETATM    2  C   UNL     1      -9.952  13.166  67.005  1.00  0.00    -0.244 A  
HETATM    3  C   UNL     1     -10.215  14.504  66.639  1.00  0.00    -0.276 A  
HETATM    4  C   UNL     1      -9.228  15.492  66.637  1.00  0.00    -0.299 A  
HETATM    5  C   UNL     1      -8.629  12.779  67.313  1.00  0.00    -0.197 A  
HETATM    6  C   UNL     1      -7.951  15.136  67.068  1.00  0.00    -0.223 A  
HETATM    7  C   UNL     1      -6.260  13.513  67.951  1.00  0.00    -0.154 C  
HETATM    8  C   UNL     1      -7.646  13.801  67.427  1.00  0.00    -0.153 A  
ENDROOT
BRANCH   4   9
HETATM    9  C   UNL     1      -9.597  16.820  66.115  1.00  0.00    -0.302 C  
HETATM   10  C   UNL     1     -10.169  17.819  66.801  1.00  0.00    -0.351 C  
HETATM   11  C   UNL     1     -10.522  19.043  66.163  1.00  0.00    -0.467 C  
HETATM   12  N   UNL     1     -10.813  20.031  65.630  1.00  0.00    -0.286 NA 
ENDBRANCH   4   9
BRANCH   5  13
HETATM   13  N   UNL     1      -8.241  11.416  67.407  1.00  0.00    -0.139 NA 
HETATM   14  H   UNL     1      -8.099  10.953  66.509  1.00  0.00     0.000 HD 
BRANCH  13  15
HETATM   15  C   UNL     1      -8.019  10.594  68.535  1.00  0.00    -0.122 A  
HETATM   16  C   UNL     1      -6.742  10.125  68.761  1.00  0.00    -0.053 A  
HETATM   17  C   UNL     1      -6.566   9.339  69.874  1.00  0.00    -0.049 A  
HETATM   18  N   UNL     1      -7.557   9.035  70.731  1.00  0.00    -0.107 NA 
HETATM   19  C   UNL     1      -8.772   9.523  70.441  1.00  0.00    -0.223 A  
HETATM   20  N   UNL     1      -9.018  10.295  69.372  1.00  0.00    -0.190 NA 
BRANCH  19  21
HETATM   21  N   UNL     1      -9.794   9.177  71.328  1.00  0.00    -0.299 NA 
HETATM   22  H   UNL     1     -10.334   9.967  71.679  1.00  0.00     0.000 HD 
BRANCH  21  23
HETATM   23  C   UNL     1     -10.205   7.930  71.817  1.00  0.00    -0.196 A  
HETATM   24  C   UNL     1     -11.002   7.041  71.087  1.00  0.00    -0.275 A  
HETATM   25  C   UNL     1     -11.358   5.789  71.584  1.00  0.00    -0.216 A  
HETATM   26  C   UNL     1     -10.931   5.402  72.855  1.00  0.00    -0.338 A  
HETATM   27  C   UNL     1     -11.264   4.100  73.345  1.00  0.00    -0.244 C  
HETATM   28  C   UNL     1     -10.183   6.289  73.627  1.00  0.00    -0.267 A  
HETATM   29  C   UNL     1      -9.828   7.544  73.114  1.00  0.00    -0.316 A  
HETATM   30  N   UNL     1     -11.526   3.034  73.728  1.00  0.00    -0.111 NA 
ENDBRANCH  21  23
ENDBRANCH  19  21
ENDBRANCH  13  15
ENDBRANCH   5  13
TORSDOF 5
ENDMDL
MODEL      135
REMARK 921   NORMALIZED FREE ENERGY PREDICTED BY IDOCK:   -4.93 KCAL/MOL
REMARK 922        TOTAL FREE ENERGY PREDICTED BY IDOCK:   -7.15 KCAL/MOL
REMARK 923 INTER-LIGAND FREE ENERGY PREDICTED BY IDOCK:   -6.51 KCAL/MOL
REMARK 924 INTRA-LIGAND FREE ENERGY PREDICTED BY IDOCK:   -0.64 KCAL/MOL
REMARK 927      BINDING AFFINITY PREDICTED BY RF-SCORE:    0.00 PKD
ROOT
HETATM    1  C   UNL     1      -6.194   8.859  68.679  1.00  0.00    -0.046 C  
HETATM    2  C   UNL     1      -7.369   8.473  67.824  1.00  0.00    -0.093 A  
HETATM    3  C   UNL     1      -7.789   7.128  67.904  1.00  0.00    -0.114 A  
HETATM    4  C   UNL     1      -8.857   6.626  67.156  1.00  0.00    -0.115 A  
HETATM    5  C   UNL     1      -7.995   9.341  66.903  1.00  0.00    -0.105 A  
HETATM    6  C   UNL     1      -9.557   7.517  66.344  1.00  0.00    -0.194 A  
HETATM    7  C   UNL     1     -10.009   9.785  65.384  1.00  0.00    -0.302 C  
HETATM    8  C   UNL     1      -9.155   8.869  66.226  1.00  0.00    -0.236 A  
ENDROOT
BRANCH   4   9
HETATM    9  C   UNL     1      -9.118   5.177  67.232  1.00  0.00    -0.113 C  
HETATM   10  C   UNL     1      -9.043   4.407  68.325  1.00  0.00    -0.165 C  
HETATM   11  C   UNL     1      -9.274   3.002  68.254  1.00  0.00    -0.189 C  
HETATM   12  N   UNL     1      -9.455   1.859  68.181  1.00  0.00    -0.191 NA 
ENDBRANCH   4   9
BRANCH   5  13
HETATM   13  N   UNL     1      -7.448  10.607  66.563  1.00  0.00    -0.127 NA 
HETATM   14  H   UNL     1      -6.739  10.579  65.830  1.00  0.00     0.000 HD 
BRANCH  13  15
HETATM   15  C   UNL     1      -7.722  11.898  67.069  1.00  0.00    -0.146 A  
HETATM   16  C   UNL     1      -6.663  12.751  67.291  1.00  0.00    -0.089 A  
HETATM   17  C   UNL     1      -6.973  14.000  67.773  1.00  0.00    -0.177 A  
HETATM   18  N   UNL     1      -8.230  14.412  68.010  1.00  0.00    -0.139 NA 
HETATM   19  C   UNL     1      -9.207  13.525  67.774  1.00  0.00    -0.213 A  
HETATM   20  N   UNL     1      -8.979  12.288  67.306  1.00  0.00    -0.180 NA 
BRANCH  19  21
HETATM   21  N   UNL     1     -10.505  13.960  68.049  1.00  0.00    -0.238 NA 
HETATM   22  H   UNL     1     -11.128  13.966  67.242  1.00  0.00     0.000 HD 
BRANCH  21  23
HETATM   23  C   UNL     1     -11.097  14.391  69.243  1.00  0.00    -0.271 A  
HETATM   24  C   UNL     1     -11.882  13.564  70.055  1.00  0.00    -0.371 A  
HETATM   25  C   UNL     1     -12.422  14.009  71.260  1.00  0.00    -0.448 A  
HETATM   26  C   UNL     1     -12.200  15.323  71.674  1.00  0.00    -0.433 A  
HETATM   27  C   UNL     1     -12.721  15.763  72.932  1.00  0.00    -0.468 C  
HETATM   28  C   UNL     1     -11.469  16.185  70.859  1.00  0.00    -0.421 A  
HETATM   29  C   UNL     1     -10.928  15.724  69.652  1.00  0.00    -0.306 A  
HETATM   30  N   UNL     1     -13.135  16.107  73.962  1.00  0.00    -0.626 NA 
ENDBRANCH  21  23
ENDBRANCH  19  21
ENDBRANCH  13  15
ENDBRANCH   5  13
TORSDOF 5
ENDMDL
MODEL      136
REMARK 921   NORMALIZED FREE ENERGY PREDICTED BY IDOCK:   -4.93 KCAL/MOL
REMARK 922        TOTAL FREE ENERGY PREDICTED BY IDOCK:   -7.15 KCAL/MOL
REMARK 923 INTER-LIGAND FREE ENERGY PREDICTED BY IDOCK:   -6.64 KCAL/MOL
REMARK 924 INTRA-LIGAND FREE ENERGY PREDICTED BY IDOCK:   -0.51 KCAL/MOL
REMARK 927      BINDING AFFINITY PREDICTED BY RF-SCORE:    0.00 PKD
ROOT
HETATM    1  C   UNL     1      -8.137  11.367  68.062  1.00  0.00    -0.134 C  
HETATM    2  C   UNL     1      -8.749  10.012  68.288  1.00  0.00    -0.119 A  
HETATM    3  C   UNL     1      -8.783   9.553  69.622  1.00  0.00    -0.189 A  
HETATM    4  C   UNL     1      -9.309   8.309  69.978  1.00  0.00    -0.162 A  
HETATM    5  C   UNL     1      -9.192   9.162  67.251  1.00  0.00    -0.133 A  
HETATM    6  C   UNL     1      -9.864   7.525  68.968  1.00  0.00    -0.170 A  
HETATM    7  C   UNL     1     -10.520   7.074  66.593  1.00  0.00    -0.209 C  
HETATM    8  C   UNL     1      -9.833   7.945  67.616  1.00  0.00    -0.212 A  
ENDROOT
BRANCH   4   9
HETATM    9  C   UNL     1      -9.173   7.890  71.385  1.00  0.00    -0.165 C  
HETATM   10  C   UNL     1      -8.073   7.400  71.971  1.00  0.00    -0.101 C  
HETATM   11  C   UNL     1      -8.087   6.985  73.334  1.00  0.00    -0.100 C  
HETATM   12  N   UNL     1      -8.114   6.642  74.442  1.00  0.00    -0.121 NA 
ENDBRANCH   4   9
BRANCH   5  13
HETATM   13  N   UNL     1      -8.924   9.434  65.883  1.00  0.00    -0.166 NA 
HETATM   14  H   UNL     1      -8.226   8.824  65.458  1.00  0.00     0.000 HD 
BRANCH  13  15
HETATM   15  C   UNL     1      -9.463  10.407  65.012  1.00  0.00    -0.253 A  
HETATM   16  C   UNL     1      -9.322  10.220  63.653  1.00  0.00    -0.338 A  
HETATM   17  C   UNL     1      -9.870  11.183  62.841  1.00  0.00    -0.289 A  
HETATM   18  N   UNL     1     -10.531  12.256  63.307  1.00  0.00    -0.364 NA 
HETATM   19  C   UNL     1     -10.624  12.373  64.640  1.00  0.00    -0.308 A  
HETATM   20  N   UNL     1     -10.112  11.473  65.494  1.00  0.00    -0.232 NA 
BRANCH  19  21
HETATM   21  N   UNL     1     -11.293  13.506  65.107  1.00  0.00    -0.296 NA 
HETATM   22  H   UNL     1     -11.710  14.082  64.376  1.00  0.00     0.000 HD 
BRANCH  21  23
HETATM   23  C   UNL     1     -11.489  13.988  66.408  1.00  0.00    -0.352 A  
HETATM   24  C   UNL     1     -11.206  15.303  66.793  1.00  0.00    -0.241 A  
HETATM   25  C   UNL     1     -11.453  15.764  68.085  1.00  0.00    -0.302 A  
HETATM   26  C   UNL     1     -11.979  14.895  69.041  1.00  0.00    -0.307 A  
HETATM   27  C   UNL     1     -12.270  15.384  70.354  1.00  0.00    -0.391 C  
HETATM   28  C   UNL     1     -12.218  13.565  68.701  1.00  0.00    -0.172 A  
HETATM   29  C   UNL     1     -11.970  13.114  67.398  1.00  0.00    -0.379 A  
HETATM   30  N   UNL     1     -12.518  15.793  71.413  1.00  0.00    -0.438 NA 
ENDBRANCH  21  23
ENDBRANCH  19  21
ENDBRANCH  13  15
ENDBRANCH   5  13
TORSDOF 5
ENDMDL
MODEL      137
REMARK 921   NORMALIZED FREE ENERGY PREDICTED BY IDOCK:   -4.89 KCAL/MOL
REMARK 922        TOTAL FREE ENERGY PREDICTED BY IDOCK:   -7.11 KCAL/MOL
REMARK 923 INTER-LIGAND FREE ENERGY PREDICTED BY IDOCK:   -8.41 KCAL/MOL
REMARK 924 INTRA-LIGAND FREE ENERGY PREDICTED BY IDOCK:    1.30 KCAL/MOL
REMARK 927      BINDING AFFINITY PREDICTED BY RF-SCORE:    0.00 PKD
ROOT
HETATM    1  C   UNL     1      -8.042  14.625  66.590  1.00  0.00     0.258 C  
HETATM    2  C   UNL     1      -8.397  16.059  66.872  1.00  0.00    -0.278 A  
HETATM    3  C   UNL     1      -7.631  16.713  67.861  1.00  0.00    -0.169 A  
HETATM    4  C   UNL     1      -7.858  18.039  68.236  1.00  0.00    -0.292 A  
HETATM    5  C   UNL     1      -9.487  16.735  66.280  1.00  0.00    -0.286 A  
HETATM    6  C   UNL     1      -8.851  18.745  67.559  1.00  0.00    -0.292 A  
HETATM    7  C   UNL     1     -10.652  18.971  65.834  1.00  0.00    -0.466 C  
HETATM    8  C   UNL     1      -9.650  18.118  66.572  1.00  0.00    -0.318 A  
ENDROOT
BRANCH   4   9
HETATM    9  C   UNL     1      -7.076  18.568  69.368  1.00  0.00    -0.089 C  
HETATM   10  C   UNL     1      -6.617  19.819  69.507  1.00  0.00    -0.388 C  
HETATM   11  C   UNL     1      -5.828  20.193  70.634  1.00  0.00    -0.337 C  
HETATM   12  N   UNL     1      -5.178  20.482  71.550  1.00  0.00    -0.461 NA 
ENDBRANCH   4   9
BRANCH   5  13
HETATM   13  N   UNL     1     -10.465  16.060  65.503  1.00  0.00    -0.393 NA 
HETATM   14  H   UNL     1     -10.840  16.604  64.727  1.00  0.00     0.000 HD 
BRANCH  13  15
HETATM   15  C   UNL     1     -11.005  14.759  65.625  1.00  0.00    -0.344 A  
HETATM   16  C   UNL     1     -12.156  14.461  64.926  1.00  0.00    -0.442 A  
HETATM   17  C   UNL     1     -12.642  13.184  65.063  1.00  0.00    -0.438 A  
HETATM   18  N   UNL     1     -12.048  12.241  65.814  1.00  0.00    -0.603 NA 
HETATM   19  C   UNL     1     -10.936  12.607  66.468  1.00  0.00    -0.269 A  
HETATM   20  N   UNL     1     -10.404  13.836  66.384  1.00  0.00    -0.284 NA 
BRANCH  19  21
HETATM   21  N   UNL     1     -10.345  11.623  67.263  1.00  0.00    -0.200 NA 
HETATM   22  H   UNL     1      -9.442  11.290  66.924  1.00  0.00     0.000 HD 
BRANCH  21  23
HETATM   23  C   UNL     1     -10.779  11.014  68.448  1.00  0.00    -0.203 A  
HETATM   24  C   UNL     1     -12.065  11.183  68.974  1.00  0.00    -0.315 A  
HETATM   25  C   UNL     1     -12.482  10.528  70.132  1.00  0.00    -0.297 A  
HETATM   26  C   UNL     1     -11.595   9.691  70.810  1.00  0.00    -0.395 A  
HETATM   27  C   UNL     1     -12.040   8.989  71.974  1.00  0.00    -0.370 C  
HETATM   28  C   UNL     1     -10.291   9.548  70.340  1.00  0.00    -0.334 A  
HETATM   29  C   UNL     1      -9.886  10.208  69.173  1.00  0.00    -0.225 A  
HETATM   30  N   UNL     1     -12.415   8.411  72.911  1.00  0.00    -0.176 NA 
ENDBRANCH  21  23
ENDBRANCH  19  21
ENDBRANCH  13  15
ENDBRANCH   5  13
TORSDOF 5
ENDMDL
MODEL      138
REMARK 921   NORMALIZED FREE ENERGY PREDICTED BY IDOCK:   -4.89 KCAL/MOL
REMARK 922        TOTAL FREE ENERGY PREDICTED BY IDOCK:   -7.10 KCAL/MOL
REMARK 923 INTER-LIGAND FREE ENERGY PREDICTED BY IDOCK:   -6.43 KCAL/MOL
REMARK 924 INTRA-LIGAND FREE ENERGY PREDICTED BY IDOCK:   -0.66 KCAL/MOL
REMARK 927      BINDING AFFINITY PREDICTED BY RF-SCORE:    0.00 PKD
ROOT
HETATM    1  C   UNL     1      -6.589  10.404  66.322  1.00  0.00    -0.107 C  
HETATM    2  C   UNL     1      -7.367   9.338  67.042  1.00  0.00    -0.091 A  
HETATM    3  C   UNL     1      -6.712   8.698  68.116  1.00  0.00    -0.065 A  
HETATM    4  C   UNL     1      -7.308   7.680  68.863  1.00  0.00    -0.090 A  
HETATM    5  C   UNL     1      -8.648   8.893  66.647  1.00  0.00    -0.123 A  
HETATM    6  C   UNL     1      -8.622   7.332  68.555  1.00  0.00    -0.124 A  
HETATM    7  C   UNL     1     -10.749   7.560  67.254  1.00  0.00    -0.365 C  
HETATM    8  C   UNL     1      -9.306   7.940  67.475  1.00  0.00    -0.166 A  
ENDROOT
BRANCH   4   9
HETATM    9  C   UNL     1      -6.477   7.004  69.876  1.00  0.00    -0.039 C  
HETATM   10  C   UNL     1      -6.878   6.566  71.078  1.00  0.00    -0.066 C  
HETATM   11  C   UNL     1      -5.958   5.970  71.988  1.00  0.00    -0.040 C  
HETATM   12  N   UNL     1      -5.198   5.495  72.724  1.00  0.00    -0.017 NA 
ENDBRANCH   4   9
BRANCH   5  13
HETATM   13  N   UNL     1      -9.240   9.284  65.417  1.00  0.00    -0.256 NA 
HETATM   14  H   UNL     1      -9.282   8.547  64.713  1.00  0.00     0.000 HD 
BRANCH  13  15
HETATM   15  C   UNL     1      -9.783  10.522  65.005  1.00  0.00    -0.292 A  
HETATM   16  C   UNL     1     -10.177  10.659  63.691  1.00  0.00    -0.236 A  
HETATM   17  C   UNL     1     -10.708  11.874  63.334  1.00  0.00    -0.413 A  
HETATM   18  N   UNL     1     -10.869  12.894  64.195  1.00  0.00    -0.393 NA 
HETATM   19  C   UNL     1     -10.458  12.688  65.454  1.00  0.00    -0.283 A  
HETATM   20  N   UNL     1      -9.928  11.529  65.874  1.00  0.00    -0.221 NA 
BRANCH  19  21
HETATM   21  N   UNL     1     -10.609  13.766  66.329  1.00  0.00    -0.286 NA 
HETATM   22  H   UNL     1     -10.243  14.651  65.976  1.00  0.00     0.000 HD 
BRANCH  21  23
HETATM   23  C   UNL     1     -11.177  13.841  67.607  1.00  0.00    -0.293 A  
HETATM   24  C   UNL     1     -11.753  12.745  68.259  1.00  0.00    -0.388 A  
HETATM   25  C   UNL     1     -12.271  12.841  69.550  1.00  0.00    -0.161 A  
HETATM   26  C   UNL     1     -12.240  14.066  70.218  1.00  0.00    -0.430 A  
HETATM   27  C   UNL     1     -12.735  14.151  71.558  1.00  0.00    -0.358 C  
HETATM   28  C   UNL     1     -11.723  15.187  69.571  1.00  0.00    -0.351 A  
HETATM   29  C   UNL     1     -11.202  15.077  68.276  1.00  0.00    -0.309 A  
HETATM   30  N   UNL     1     -13.125  14.207  72.651  1.00  0.00    -0.469 NA 
ENDBRANCH  21  23
ENDBRANCH  19  21
ENDBRANCH  13  15
ENDBRANCH   5  13
TORSDOF 5
ENDMDL
MODEL      139
REMARK 921   NORMALIZED FREE ENERGY PREDICTED BY IDOCK:   -4.88 KCAL/MOL
REMARK 922        TOTAL FREE ENERGY PREDICTED BY IDOCK:   -7.08 KCAL/MOL
REMARK 923 INTER-LIGAND FREE ENERGY PREDICTED BY IDOCK:   -6.27 KCAL/MOL
REMARK 924 INTRA-LIGAND FREE ENERGY PREDICTED BY IDOCK:   -0.81 KCAL/MOL
REMARK 927      BINDING AFFINITY PREDICTED BY RF-SCORE:    0.00 PKD
ROOT
HETATM    1  C   UNL     1     -11.645  14.459  66.059  1.00  0.00    -0.364 C  
HETATM    2  C   UNL     1     -10.198  14.647  66.421  1.00  0.00    -0.296 A  
HETATM    3  C   UNL     1      -9.609  15.872  66.038  1.00  0.00    -0.385 A  
HETATM    4  C   UNL     1      -8.271  16.177  66.295  1.00  0.00    -0.275 A  
HETATM    5  C   UNL     1      -9.398  13.651  67.023  1.00  0.00    -0.248 A  
HETATM    6  C   UNL     1      -7.516  15.245  67.005  1.00  0.00    -0.125 A  
HETATM    7  C   UNL     1      -7.209  13.077  68.220  1.00  0.00    -0.113 C  
HETATM    8  C   UNL     1      -8.068  13.999  67.392  1.00  0.00    -0.199 A  
ENDROOT
BRANCH   4   9
HETATM    9  C   UNL     1      -7.740  17.434  65.736  1.00  0.00     0.120 C  
HETATM   10  C   UNL     1      -7.493  18.567  66.406  1.00  0.00    -0.279 C  
HETATM   11  C   UNL     1      -7.024  19.733  65.734  1.00  0.00    -0.295 C  
HETATM   12  N   UNL     1      -6.652  20.678  65.175  1.00  0.00    -0.252 NA 
ENDBRANCH   4   9
BRANCH   5  13
HETATM   13  N   UNL     1      -9.841  12.310  67.169  1.00  0.00    -0.201 NA 
HETATM   14  H   UNL     1      -9.600  11.696  66.391  1.00  0.00     0.000 HD 
BRANCH  13  15
HETATM   15  C   UNL     1     -10.558  11.683  68.213  1.00  0.00    -0.205 A  
HETATM   16  C   UNL     1     -11.324  12.472  69.046  1.00  0.00    -0.342 A  
HETATM   17  C   UNL     1     -12.014  11.822  70.041  1.00  0.00    -0.344 A  
HETATM   18  N   UNL     1     -11.985  10.490  70.214  1.00  0.00    -0.301 NA 
HETATM   19  C   UNL     1     -11.215   9.790  69.369  1.00  0.00    -0.114 A  
HETATM   20  N   UNL     1     -10.512  10.357  68.376  1.00  0.00    -0.178 NA 
BRANCH  19  21
HETATM   21  N   UNL     1     -11.177   8.411  69.578  1.00  0.00    -0.439 NA 
HETATM   22  H   UNL     1     -11.735   7.867  68.920  1.00  0.00     0.000 HD 
BRANCH  21  23
HETATM   23  C   UNL     1     -10.503   7.644  70.539  1.00  0.00    -0.220 A  
HETATM   24  C   UNL     1      -9.193   7.908  70.954  1.00  0.00    -0.160 A  
HETATM   25  C   UNL     1      -8.566   7.153  71.943  1.00  0.00    -0.120 A  
HETATM   26  C   UNL     1      -9.243   6.086  72.533  1.00  0.00    -0.141 A  
HETATM   27  C   UNL     1      -8.610   5.340  73.578  1.00  0.00    -0.112 C  
HETATM   28  C   UNL     1     -10.528   5.765  72.100  1.00  0.00    -0.258 A  
HETATM   29  C   UNL     1     -11.150   6.534  71.107  1.00  0.00    -0.332 A  
HETATM   30  N   UNL     1      -8.094   4.749  74.436  1.00  0.00    -0.095 NA 
ENDBRANCH  21  23
ENDBRANCH  19  21
ENDBRANCH  13  15
ENDBRANCH   5  13
TORSDOF 5
ENDMDL
MODEL      140
REMARK 921   NORMALIZED FREE ENERGY PREDICTED BY IDOCK:   -4.85 KCAL/MOL
REMARK 922        TOTAL FREE ENERGY PREDICTED BY IDOCK:   -7.05 KCAL/MOL
REMARK 923 INTER-LIGAND FREE ENERGY PREDICTED BY IDOCK:   -6.99 KCAL/MOL
REMARK 924 INTRA-LIGAND FREE ENERGY PREDICTED BY IDOCK:   -0.06 KCAL/MOL
REMARK 927      BINDING AFFINITY PREDICTED BY RF-SCORE:    0.00 PKD
ROOT
HETATM    1  C   UNL     1     -10.569   9.500  68.579  1.00  0.00    -0.247 C  
HETATM    2  C   UNL     1     -10.645   8.347  69.540  1.00  0.00    -0.217 A  
HETATM    3  C   UNL     1      -9.819   7.237  69.257  1.00  0.00    -0.166 A  
HETATM    4  C   UNL     1      -9.797   6.091  70.054  1.00  0.00    -0.215 A  
HETATM    5  C   UNL     1     -11.545   8.281  70.627  1.00  0.00    -0.191 A  
HETATM    6  C   UNL     1     -10.591   6.082  71.200  1.00  0.00    -0.303 A  
HETATM    7  C   UNL     1     -12.215   7.112  72.804  1.00  0.00     0.296 C  
HETATM    8  C   UNL     1     -11.444   7.169  71.508  1.00  0.00    -0.298 A  
ENDROOT
BRANCH   4   9
HETATM    9  C   UNL     1      -8.988   4.952  69.585  1.00  0.00    -0.137 C  
HETATM   10  C   UNL     1      -8.592   4.717  68.327  1.00  0.00    -0.105 C  
HETATM   11  C   UNL     1      -7.849   3.546  67.995  1.00  0.00    -0.068 C  
HETATM   12  N   UNL     1      -7.254   2.585  67.737  1.00  0.00    -0.048 NA 
ENDBRANCH   4   9
BRANCH   5  13
HETATM   13  N   UNL     1     -12.594   9.222  70.799  1.00  0.00    -0.507 NA 
HETATM   14  H   UNL     1     -13.521   8.810  70.907  1.00  0.00     0.000 HD 
BRANCH  13  15
HETATM   15  C   UNL     1     -12.570  10.635  70.846  1.00  0.00    -0.407 A  
HETATM   16  C   UNL     1     -12.962  11.258  72.011  1.00  0.00    -0.379 A  
HETATM   17  C   UNL     1     -12.914  12.631  72.019  1.00  0.00    -0.274 A  
HETATM   18  N   UNL     1     -12.495  13.363  70.973  1.00  0.00    -0.371 NA 
HETATM   19  C   UNL     1     -12.134  12.687  69.872  1.00  0.00    -0.252 A  
HETATM   20  N   UNL     1     -12.158  11.348  69.792  1.00  0.00    -0.322 NA 
BRANCH  19  21
HETATM   21  N   UNL     1     -11.726  13.464  68.787  1.00  0.00    -0.318 NA 
HETATM   22  H   UNL     1     -11.775  14.471  68.945  1.00  0.00     0.000 HD 
BRANCH  21  23
HETATM   23  C   UNL     1     -11.259  13.099  67.517  1.00  0.00    -0.282 A  
HETATM   24  C   UNL     1      -9.924  12.775  67.251  1.00  0.00    -0.219 A  
HETATM   25  C   UNL     1      -9.499  12.372  65.987  1.00  0.00    -0.168 A  
HETATM   26  C   UNL     1     -10.416  12.304  64.938  1.00  0.00    -0.321 A  
HETATM   27  C   UNL     1      -9.984  11.851  63.651  1.00  0.00    -0.381 C  
HETATM   28  C   UNL     1     -11.741  12.675  65.160  1.00  0.00    -0.407 A  
HETATM   29  C   UNL     1     -12.157  13.074  66.437  1.00  0.00    -0.428 A  
HETATM   30  N   UNL     1      -9.627  11.467  62.614  1.00  0.00    -0.255 NA 
ENDBRANCH  21  23
ENDBRANCH  19  21
ENDBRANCH  13  15
ENDBRANCH   5  13
TORSDOF 5
ENDMDL
MODEL      141
REMARK 921   NORMALIZED FREE ENERGY PREDICTED BY IDOCK:   -4.80 KCAL/MOL
REMARK 922        TOTAL FREE ENERGY PREDICTED BY IDOCK:   -6.98 KCAL/MOL
REMARK 923 INTER-LIGAND FREE ENERGY PREDICTED BY IDOCK:   -6.30 KCAL/MOL
REMARK 924 INTRA-LIGAND FREE ENERGY PREDICTED BY IDOCK:   -0.68 KCAL/MOL
REMARK 927      BINDING AFFINITY PREDICTED BY RF-SCORE:    0.00 PKD
ROOT
HETATM    1  C   UNL     1      -7.258  14.759  69.512  1.00  0.00    -0.160 C  
HETATM    2  C   UNL     1      -7.976  15.339  68.325  1.00  0.00    -0.132 A  
HETATM    3  C   UNL     1      -7.260  16.282  67.557  1.00  0.00    -0.179 A  
HETATM    4  C   UNL     1      -7.807  16.912  66.436  1.00  0.00    -0.348 A  
HETATM    5  C   UNL     1      -9.324  15.065  68.006  1.00  0.00    -0.185 A  
HETATM    6  C   UNL     1      -9.094  16.543  66.047  1.00  0.00    -0.290 A  
HETATM    7  C   UNL     1     -11.203  15.213  66.273  1.00  0.00    -0.273 C  
HETATM    8  C   UNL     1      -9.848  15.613  66.802  1.00  0.00    -0.255 A  
ENDROOT
BRANCH   4   9
HETATM    9  C   UNL     1      -7.007  17.970  65.793  1.00  0.00    -0.266 C  
HETATM   10  C   UNL     1      -7.304  19.275  65.736  1.00  0.00    -0.260 C  
HETATM   11  C   UNL     1      -6.465  20.191  65.037  1.00  0.00    -0.289 C  
HETATM   12  N   UNL     1      -5.779  20.925  64.457  1.00  0.00    -0.235 NA 
ENDBRANCH   4   9
BRANCH   5  13
HETATM   13  N   UNL     1     -10.184  14.360  68.890  1.00  0.00    -0.267 NA 
HETATM   14  H   UNL     1     -10.482  14.893  69.707  1.00  0.00     0.000 HD 
BRANCH  13  15
HETATM   15  C   UNL     1     -10.695  13.044  68.827  1.00  0.00    -0.221 A  
HETATM   16  C   UNL     1     -11.698  12.690  69.705  1.00  0.00    -0.354 A  
HETATM   17  C   UNL     1     -12.175  11.405  69.604  1.00  0.00    -0.249 A  
HETATM   18  N   UNL     1     -11.728  10.518  68.699  1.00  0.00    -0.303 NA 
HETATM   19  C   UNL     1     -10.748  10.934  67.883  1.00  0.00    -0.231 A  
HETATM   20  N   UNL     1     -10.232  12.172  67.926  1.00  0.00    -0.193 NA 
BRANCH  19  21
HETATM   21  N   UNL     1     -10.278   9.992  66.966  1.00  0.00    -0.225 NA 
HETATM   22  H   UNL     1     -10.227  10.327  66.004  1.00  0.00     0.000 HD 
BRANCH  21  23
HETATM   23  C   UNL     1      -9.864   8.664  67.141  1.00  0.00    -0.207 A  
HETATM   24  C   UNL     1     -10.748   7.579  67.162  1.00  0.00    -0.379 A  
HETATM   25  C   UNL     1     -10.301   6.265  67.294  1.00  0.00    -0.270 A  
HETATM   26  C   UNL     1      -8.937   6.009  67.430  1.00  0.00    -0.108 A  
HETATM   27  C   UNL     1      -8.479   4.657  67.523  1.00  0.00    -0.104 C  
HETATM   28  C   UNL     1      -8.039   7.075  67.469  1.00  0.00    -0.113 A  
HETATM   29  C   UNL     1      -8.500   8.390  67.331  1.00  0.00    -0.124 A  
HETATM   30  N   UNL     1      -8.116   3.554  67.583  1.00  0.00    -0.081 NA 
ENDBRANCH  21  23
ENDBRANCH  19  21
ENDBRANCH  13  15
ENDBRANCH   5  13
TORSDOF 5
ENDMDL
MODEL      142
REMARK 921   NORMALIZED FREE ENERGY PREDICTED BY IDOCK:   -4.79 KCAL/MOL
REMARK 922        TOTAL FREE ENERGY PREDICTED BY IDOCK:   -6.97 KCAL/MOL
REMARK 923 INTER-LIGAND FREE ENERGY PREDICTED BY IDOCK:   -5.79 KCAL/MOL
REMARK 924 INTRA-LIGAND FREE ENERGY PREDICTED BY IDOCK:   -1.18 KCAL/MOL
REMARK 927      BINDING AFFINITY PREDICTED BY RF-SCORE:    0.00 PKD
ROOT
HETATM    1  C   UNL     1     -11.435  16.034  69.198  1.00  0.00    -0.347 C  
HETATM    2  C   UNL     1     -11.517  14.604  68.741  1.00  0.00    -0.322 A  
HETATM    3  C   UNL     1     -12.019  13.673  69.676  1.00  0.00    -0.402 A  
HETATM    4  C   UNL     1     -12.136  12.310  69.394  1.00  0.00    -0.234 A  
HETATM    5  C   UNL     1     -11.041  14.145  67.493  1.00  0.00    -0.291 A  
HETATM    6  C   UNL     1     -11.788  11.879  68.115  1.00  0.00    -0.338 A  
HETATM    7  C   UNL     1     -10.983  12.248  65.773  1.00  0.00    -0.338 C  
HETATM    8  C   UNL     1     -11.266  12.780  67.156  1.00  0.00    -0.336 A  
ENDROOT
BRANCH   4   9
HETATM    9  C   UNL     1     -12.555  11.422  70.494  1.00  0.00    -0.309 C  
HETATM   10  C   UNL     1     -12.610  10.083  70.464  1.00  0.00    -0.224 C  
HETATM   11  C   UNL     1     -13.081   9.341  71.586  1.00  0.00    -0.382 C  
HETATM   12  N   UNL     1     -13.476   8.749  72.501  1.00  0.00    -0.385 NA 
ENDBRANCH   4   9
BRANCH   5  13
HETATM   13  N   UNL     1     -10.269  14.965  66.628  1.00  0.00    -0.256 NA 
HETATM   14  H   UNL     1     -10.784  15.351  65.838  1.00  0.00     0.000 HD 
BRANCH  13  15
HETATM   15  C   UNL     1      -8.906  15.335  66.680  1.00  0.00    -0.293 A  
HETATM   16  C   UNL     1      -8.528  16.524  66.093  1.00  0.00    -0.320 A  
HETATM   17  C   UNL     1      -7.197  16.852  66.175  1.00  0.00    -0.074 A  
HETATM   18  N   UNL     1      -6.283  16.092  66.802  1.00  0.00    -0.214 NA 
HETATM   19  C   UNL     1      -6.725  14.948  67.345  1.00  0.00    -0.050 A  
HETATM   20  N   UNL     1      -8.009  14.561  67.301  1.00  0.00    -0.201 NA 
BRANCH  19  21
HETATM   21  N   UNL     1      -5.758  14.157  67.970  1.00  0.00    -0.127 NA 
HETATM   22  H   UNL     1      -4.798  14.469  67.823  1.00  0.00     0.000 HD 
BRANCH  21  23
HETATM   23  C   UNL     1      -5.881  13.010  68.764  1.00  0.00    -0.074 A  
HETATM   24  C   UNL     1      -6.174  11.743  68.247  1.00  0.00    -0.050 A  
HETATM   25  C   UNL     1      -6.247  10.612  69.058  1.00  0.00    -0.045 A  
HETATM   26  C   UNL     1      -6.044  10.733  70.433  1.00  0.00    -0.135 A  
HETATM   27  C   UNL     1      -6.078   9.563  71.256  1.00  0.00    -0.057 C  
HETATM   28  C   UNL     1      -5.806  11.991  70.983  1.00  0.00     0.214 A  
HETATM   29  C   UNL     1      -5.731  13.120  70.157  1.00  0.00    -0.141 A  
HETATM   30  N   UNL     1      -6.093   8.606  71.915  1.00  0.00    -0.064 NA 
ENDBRANCH  21  23
ENDBRANCH  19  21
ENDBRANCH  13  15
ENDBRANCH   5  13
TORSDOF 5
ENDMDL
MODEL      143
REMARK 921   NORMALIZED FREE ENERGY PREDICTED BY IDOCK:   -4.77 KCAL/MOL
REMARK 922        TOTAL FREE ENERGY PREDICTED BY IDOCK:   -6.95 KCAL/MOL
REMARK 923 INTER-LIGAND FREE ENERGY PREDICTED BY IDOCK:   -6.31 KCAL/MOL
REMARK 924 INTRA-LIGAND FREE ENERGY PREDICTED BY IDOCK:   -0.64 KCAL/MOL
REMARK 927      BINDING AFFINITY PREDICTED BY RF-SCORE:    0.00 PKD
ROOT
HETATM    1  C   UNL     1      -8.222   8.327  70.247  1.00  0.00    -0.121 C  
HETATM    2  C   UNL     1      -9.546   9.026  70.381  1.00  0.00    -0.246 A  
HETATM    3  C   UNL     1      -9.781  10.102  69.498  1.00  0.00    -0.251 A  
HETATM    4  C   UNL     1     -10.960  10.851  69.520  1.00  0.00    -0.306 A  
HETATM    5  C   UNL     1     -10.499   8.729  71.381  1.00  0.00    -0.284 A  
HETATM    6  C   UNL     1     -11.954  10.472  70.421  1.00  0.00    -0.425 A  
HETATM    7  C   UNL     1     -12.899   9.015  72.225  1.00  0.00    -0.474 C  
HETATM    8  C   UNL     1     -11.748   9.409  71.333  1.00  0.00    -0.448 A  
ENDROOT
BRANCH   4   9
HETATM    9  C   UNL     1     -11.035  12.027  68.635  1.00  0.00    -0.281 C  
HETATM   10  C   UNL     1     -10.002  12.725  68.143  1.00  0.00    -0.229 C  
HETATM   11  C   UNL     1     -10.212  13.878  67.332  1.00  0.00    -0.252 C  
HETATM   12  N   UNL     1     -10.396  14.820  66.682  1.00  0.00    -0.268 NA 
ENDBRANCH   4   9
BRANCH   5  13
HETATM   13  N   UNL     1     -10.209   7.865  72.470  1.00  0.00    -0.253 NA 
HETATM   14  H   UNL     1      -9.937   8.342  73.329  1.00  0.00     0.000 HD 
BRANCH  13  15
HETATM   15  C   UNL     1     -10.236   6.455  72.563  1.00  0.00    -0.183 A  
HETATM   16  C   UNL     1     -10.827   5.883  73.670  1.00  0.00    -0.197 A  
HETATM   17  C   UNL     1     -10.841   4.511  73.717  1.00  0.00    -0.287 A  
HETATM   18  N   UNL     1     -10.334   3.730  72.747  1.00  0.00    -0.165 NA 
HETATM   19  C   UNL     1      -9.771   4.358  71.704  1.00  0.00    -0.171 A  
HETATM   20  N   UNL     1      -9.718   5.694  71.592  1.00  0.00    -0.157 NA 
BRANCH  19  21
HETATM   21  N   UNL     1      -9.227   3.533  70.718  1.00  0.00    -0.120 NA 
HETATM   22  H   UNL     1      -8.717   2.726  71.076  1.00  0.00     0.000 HD 
BRANCH  21  23
HETATM   23  C   UNL     1      -9.261   3.624  69.320  1.00  0.00    -0.163 A  
HETATM   24  C   UNL     1      -9.454   2.521  68.481  1.00  0.00    -0.207 A  
HETATM   25  C   UNL     1      -9.527   2.651  67.095  1.00  0.00    -0.031 A  
HETATM   26  C   UNL     1      -9.384   3.909  66.510  1.00  0.00    -0.199 A  
HETATM   27  C   UNL     1      -9.501   4.043  65.090  1.00  0.00    -0.172 C  
HETATM   28  C   UNL     1      -9.134   5.017  67.317  1.00  0.00    -0.117 A  
HETATM   29  C   UNL     1      -9.067   4.875  68.709  1.00  0.00    -0.147 A  
HETATM   30  N   UNL     1      -9.612   4.145  63.937  1.00  0.00    -0.157 NA 
ENDBRANCH  21  23
ENDBRANCH  19  21
ENDBRANCH  13  15
ENDBRANCH   5  13
TORSDOF 5
ENDMDL
MODEL      144
REMARK 921   NORMALIZED FREE ENERGY PREDICTED BY IDOCK:   -4.77 KCAL/MOL
REMARK 922        TOTAL FREE ENERGY PREDICTED BY IDOCK:   -6.95 KCAL/MOL
REMARK 923 INTER-LIGAND FREE ENERGY PREDICTED BY IDOCK:   -6.84 KCAL/MOL
REMARK 924 INTRA-LIGAND FREE ENERGY PREDICTED BY IDOCK:   -0.11 KCAL/MOL
REMARK 927      BINDING AFFINITY PREDICTED BY RF-SCORE:    0.00 PKD
ROOT
HETATM    1  C   UNL     1      -8.292   8.703  64.594  1.00  0.00    -0.165 C  
HETATM    2  C   UNL     1      -9.010   8.868  65.905  1.00  0.00    -0.244 A  
HETATM    3  C   UNL     1      -8.666   7.957  66.927  1.00  0.00    -0.136 A  
HETATM    4  C   UNL     1      -9.262   7.983  68.190  1.00  0.00    -0.134 A  
HETATM    5  C   UNL     1     -10.048   9.799  66.126  1.00  0.00    -0.245 A  
HETATM    6  C   UNL     1     -10.194   8.986  68.449  1.00  0.00    -0.232 A  
HETATM    7  C   UNL     1     -11.535  11.007  67.825  1.00  0.00    -0.339 C  
HETATM    8  C   UNL     1     -10.576   9.907  67.443  1.00  0.00    -0.338 A  
ENDROOT
BRANCH   4   9
HETATM    9  C   UNL     1      -8.910   6.903  69.130  1.00  0.00    -0.134 C  
HETATM   10  C   UNL     1      -9.422   5.665  69.154  1.00  0.00    -0.161 C  
HETATM   11  C   UNL     1      -9.029   4.725  70.150  1.00  0.00    -0.099 C  
HETATM   12  N   UNL     1      -8.709   3.972  70.972  1.00  0.00    -0.083 NA 
ENDBRANCH   4   9
BRANCH   5  13
HETATM   13  N   UNL     1     -10.638  10.541  65.069  1.00  0.00    -0.155 NA 
HETATM   14  H   UNL     1     -11.003   9.973  64.304  1.00  0.00     0.000 HD 
BRANCH  13  15
HETATM   15  C   UNL     1     -10.807  11.934  64.899  1.00  0.00    -0.305 A  
HETATM   16  C   UNL     1     -11.925  12.380  64.227  1.00  0.00    -0.489 A  
HETATM   17  C   UNL     1     -12.056  13.741  64.092  1.00  0.00    -0.433 A  
HETATM   18  N   UNL     1     -11.173  14.624  64.591  1.00  0.00    -0.369 NA 
HETATM   19  C   UNL     1     -10.109  14.114  65.228  1.00  0.00    -0.335 A  
HETATM   20  N   UNL     1      -9.913  12.797  65.395  1.00  0.00    -0.240 NA 
BRANCH  19  21
HETATM   21  N   UNL     1      -9.189  15.043  65.717  1.00  0.00    -0.468 NA 
HETATM   22  H   UNL     1      -8.238  14.920  65.371  1.00  0.00     0.000 HD 
BRANCH  21  23
HETATM   23  C   UNL     1      -9.349  16.117  66.604  1.00  0.00    -0.242 A  
HETATM   24  C   UNL     1      -8.406  16.458  67.579  1.00  0.00    -0.176 A  
HETATM   25  C   UNL     1      -8.574  17.558  68.417  1.00  0.00    -0.275 A  
HETATM   26  C   UNL     1      -9.722  18.343  68.307  1.00  0.00    -0.366 A  
HETATM   27  C   UNL     1      -9.871  19.496  69.140  1.00  0.00    -0.361 C  
HETATM   28  C   UNL     1     -10.705  17.994  67.382  1.00  0.00    -0.334 A  
HETATM   29  C   UNL     1     -10.522  16.888  66.542  1.00  0.00    -0.253 A  
HETATM   30  N   UNL     1      -9.976  20.440  69.811  1.00  0.00     0.277 NA 
ENDBRANCH  21  23
ENDBRANCH  19  21
ENDBRANCH  13  15
ENDBRANCH   5  13
TORSDOF 5
ENDMDL
MODEL      145
REMARK 921   NORMALIZED FREE ENERGY PREDICTED BY IDOCK:   -4.76 KCAL/MOL
REMARK 922        TOTAL FREE ENERGY PREDICTED BY IDOCK:   -6.93 KCAL/MOL
REMARK 923 INTER-LIGAND FREE ENERGY PREDICTED BY IDOCK:   -6.09 KCAL/MOL
REMARK 924 INTRA-LIGAND FREE ENERGY PREDICTED BY IDOCK:   -0.84 KCAL/MOL
REMARK 927      BINDING AFFINITY PREDICTED BY RF-SCORE:    0.00 PKD
ROOT
HETATM    1  C   UNL     1      -6.565   7.210  68.327  1.00  0.00    -0.049 C  
HETATM    2  C   UNL     1      -8.041   6.938  68.414  1.00  0.00    -0.120 A  
HETATM    3  C   UNL     1      -8.552   5.956  67.538  1.00  0.00    -0.102 A  
HETATM    4  C   UNL     1      -9.905   5.612  67.499  1.00  0.00    -0.156 A  
HETATM    5  C   UNL     1      -8.931   7.663  69.238  1.00  0.00    -0.135 A  
HETATM    6  C   UNL     1     -10.761   6.236  68.405  1.00  0.00    -0.356 A  
HETATM    7  C   UNL     1     -11.262   7.812  70.286  1.00  0.00    -0.215 C  
HETATM    8  C   UNL     1     -10.288   7.237  69.287  1.00  0.00    -0.208 A  
ENDROOT
BRANCH   4   9
HETATM    9  C   UNL     1     -10.336   4.664  66.456  1.00  0.00    -0.235 C  
HETATM   10  C   UNL     1     -10.019   4.708  65.154  1.00  0.00    -0.087 C  
HETATM   11  C   UNL     1     -10.543   3.753  64.236  1.00  0.00    -0.228 C  
HETATM   12  N   UNL     1     -10.984   2.976  63.497  1.00  0.00    -0.269 NA 
ENDBRANCH   4   9
BRANCH   5  13
HETATM   13  N   UNL     1      -8.538   8.844  69.921  1.00  0.00    -0.129 NA 
HETATM   14  H   UNL     1      -8.446   8.739  70.931  1.00  0.00     0.000 HD 
BRANCH  13  15
HETATM   15  C   UNL     1      -8.252  10.140  69.436  1.00  0.00    -0.166 A  
HETATM   16  C   UNL     1      -6.989  10.652  69.641  1.00  0.00    -0.134 A  
HETATM   17  C   UNL     1      -6.749  11.910  69.145  1.00  0.00    -0.105 A  
HETATM   18  N   UNL     1      -7.665  12.629  68.473  1.00  0.00    -0.131 NA 
HETATM   19  C   UNL     1      -8.873  12.067  68.318  1.00  0.00    -0.182 A  
HETATM   20  N   UNL     1      -9.179  10.845  68.777  1.00  0.00    -0.186 NA 
BRANCH  19  21
HETATM   21  N   UNL     1      -9.820  12.838  67.640  1.00  0.00    -0.209 NA 
HETATM   22  H   UNL     1     -10.571  12.300  67.207  1.00  0.00     0.000 HD 
BRANCH  21  23
HETATM   23  C   UNL     1      -9.916  14.223  67.452  1.00  0.00    -0.242 A  
HETATM   24  C   UNL     1      -9.372  14.890  66.349  1.00  0.00    -0.327 A  
HETATM   25  C   UNL     1      -9.522  16.263  66.168  1.00  0.00    -0.373 A  
HETATM   26  C   UNL     1     -10.215  17.014  67.117  1.00  0.00    -0.306 A  
HETATM   27  C   UNL     1     -10.402  18.417  66.907  1.00  0.00    -0.390 C  
HETATM   28  C   UNL     1     -10.719  16.386  68.254  1.00  0.00    -0.337 A  
HETATM   29  C   UNL     1     -10.566  15.003  68.423  1.00  0.00    -0.239 A  
HETATM   30  N   UNL     1     -10.563  19.553  66.720  1.00  0.00    -0.473 NA 
ENDBRANCH  21  23
ENDBRANCH  19  21
ENDBRANCH  13  15
ENDBRANCH   5  13
TORSDOF 5
ENDMDL
MODEL      146
REMARK 921   NORMALIZED FREE ENERGY PREDICTED BY IDOCK:   -4.65 KCAL/MOL
REMARK 922        TOTAL FREE ENERGY PREDICTED BY IDOCK:   -6.79 KCAL/MOL
REMARK 923 INTER-LIGAND FREE ENERGY PREDICTED BY IDOCK:   -5.99 KCAL/MOL
REMARK 924 INTRA-LIGAND FREE ENERGY PREDICTED BY IDOCK:   -0.80 KCAL/MOL
REMARK 927      BINDING AFFINITY PREDICTED BY RF-SCORE:    0.00 PKD
ROOT
HETATM    1  C   UNL     1      -8.984   9.343  64.269  1.00  0.00    -0.204 C  
HETATM    2  C   UNL     1      -8.491   8.324  65.258  1.00  0.00    -0.179 A  
HETATM    3  C   UNL     1      -7.931   7.145  64.718  1.00  0.00    -0.122 A  
HETATM    4  C   UNL     1      -7.446   6.107  65.517  1.00  0.00    -0.082 A  
HETATM    5  C   UNL     1      -8.643   8.441  66.657  1.00  0.00    -0.120 A  
HETATM    6  C   UNL     1      -7.478   6.282  66.900  1.00  0.00    -0.087 A  
HETATM    7  C   UNL     1      -7.976   7.588  68.978  1.00  0.00    -0.122 C  
HETATM    8  C   UNL     1      -8.047   7.443  67.477  1.00  0.00    -0.114 A  
ENDROOT
BRANCH   4   9
HETATM    9  C   UNL     1      -7.002   4.877  64.837  1.00  0.00    -0.057 C  
HETATM   10  C   UNL     1      -6.842   4.705  63.518  1.00  0.00    -0.043 C  
HETATM   11  C   UNL     1      -6.451   3.444  62.982  1.00  0.00    -0.022 C  
HETATM   12  N   UNL     1      -6.142   2.411  62.557  1.00  0.00    -0.009 NA 
ENDBRANCH   4   9
BRANCH   5  13
HETATM   13  N   UNL     1      -9.446   9.451  67.249  1.00  0.00    -0.130 NA 
HETATM   14  H   UNL     1     -10.329   9.118  67.637  1.00  0.00     0.000 HD 
BRANCH  13  15
HETATM   15  C   UNL     1      -9.229  10.840  67.392  1.00  0.00    -0.147 A  
HETATM   16  C   UNL     1      -7.962  11.331  67.156  1.00  0.00    -0.151 A  
HETATM   17  C   UNL     1      -7.795  12.688  67.295  1.00  0.00    -0.155 A  
HETATM   18  N   UNL     1      -8.792  13.527  67.624  1.00  0.00    -0.189 NA 
HETATM   19  C   UNL     1      -9.994  12.975  67.843  1.00  0.00    -0.230 A  
HETATM   20  N   UNL     1     -10.231  11.660  67.728  1.00  0.00    -0.183 NA 
BRANCH  19  21
HETATM   21  N   UNL     1     -11.013  13.858  68.208  1.00  0.00    -0.247 NA 
HETATM   22  H   UNL     1     -11.583  14.190  67.430  1.00  0.00     0.000 HD 
BRANCH  21  23
HETATM   23  C   UNL     1     -11.385  14.367  69.459  1.00  0.00    -0.276 A  
HETATM   24  C   UNL     1     -10.906  15.578  69.971  1.00  0.00    -0.330 A  
HETATM   25  C   UNL     1     -11.329  16.079  71.201  1.00  0.00    -0.413 A  
HETATM   26  C   UNL     1     -12.242  15.352  71.967  1.00  0.00    -0.460 A  
HETATM   27  C   UNL     1     -12.706  15.890  73.209  1.00  0.00    -0.539 C  
HETATM   28  C   UNL     1     -12.693  14.116  71.507  1.00  0.00    -0.436 A  
HETATM   29  C   UNL     1     -12.264  13.626  70.267  1.00  0.00    -0.423 A  
HETATM   30  N   UNL     1     -13.088  16.341  74.210  1.00  0.00    -0.513 NA 
ENDBRANCH  21  23
ENDBRANCH  19  21
ENDBRANCH  13  15
ENDBRANCH   5  13
TORSDOF 5
ENDMDL
MODEL      147
REMARK 921   NORMALIZED FREE ENERGY PREDICTED BY IDOCK:   -4.62 KCAL/MOL
REMARK 922        TOTAL FREE ENERGY PREDICTED BY IDOCK:   -6.75 KCAL/MOL
REMARK 923 INTER-LIGAND FREE ENERGY PREDICTED BY IDOCK:   -6.35 KCAL/MOL
REMARK 924 INTRA-LIGAND FREE ENERGY PREDICTED BY IDOCK:   -0.39 KCAL/MOL
REMARK 927      BINDING AFFINITY PREDICTED BY RF-SCORE:    0.00 PKD
ROOT
HETATM    1  C   UNL     1      -8.438  14.542  67.646  1.00  0.00    -0.189 C  
HETATM    2  C   UNL     1      -8.490  16.043  67.585  1.00  0.00    -0.169 A  
HETATM    3  C   UNL     1      -7.745  16.656  66.555  1.00  0.00    -0.337 A  
HETATM    4  C   UNL     1      -7.688  18.041  66.387  1.00  0.00    -0.304 A  
HETATM    5  C   UNL     1      -9.151  16.850  68.537  1.00  0.00    -0.257 A  
HETATM    6  C   UNL     1      -8.447  18.832  67.249  1.00  0.00    -0.283 A  
HETATM    7  C   UNL     1     -10.045  19.171  69.147  1.00  0.00    -0.264 C  
HETATM    8  C   UNL     1      -9.194  18.254  68.304  1.00  0.00    -0.322 A  
ENDROOT
BRANCH   4   9
HETATM    9  C   UNL     1      -6.777  18.564  65.354  1.00  0.00    -0.215 C  
HETATM   10  C   UNL     1      -6.881  19.738  64.715  1.00  0.00     0.066 C  
HETATM   11  C   UNL     1      -5.954  20.106  63.696  1.00  0.00    -0.211 C  
HETATM   12  N   UNL     1      -5.201  20.389  62.862  1.00  0.00    -0.192 NA 
ENDBRANCH   4   9
BRANCH   5  13
HETATM   13  N   UNL     1      -9.670  16.322  69.748  1.00  0.00    -0.043 NA 
HETATM   14  H   UNL     1      -9.174  16.619  70.588  1.00  0.00     0.000 HD 
BRANCH  13  15
HETATM   15  C   UNL     1     -10.760  15.454  69.985  1.00  0.00    -0.307 A  
HETATM   16  C   UNL     1     -11.789  15.900  70.788  1.00  0.00    -0.423 A  
HETATM   17  C   UNL     1     -12.834  15.030  70.984  1.00  0.00    -0.387 A  
HETATM   18  N   UNL     1     -12.897  13.809  70.426  1.00  0.00    -0.173 NA 
HETATM   19  C   UNL     1     -11.857  13.444  69.661  1.00  0.00    -0.331 A  
HETATM   20  N   UNL     1     -10.802  14.239  69.428  1.00  0.00    -0.210 NA 
BRANCH  19  21
HETATM   21  N   UNL     1     -11.927  12.163  69.110  1.00  0.00    -0.286 NA 
HETATM   22  H   UNL     1     -12.816  11.944  68.660  1.00  0.00     0.000 HD 
BRANCH  21  23
HETATM   23  C   UNL     1     -10.985  11.127  69.068  1.00  0.00    -0.235 A  
HETATM   24  C   UNL     1     -10.881  10.141  70.055  1.00  0.00    -0.361 A  
HETATM   25  C   UNL     1      -9.962   9.097  69.964  1.00  0.00    -0.223 A  
HETATM   26  C   UNL     1      -9.098   9.030  68.870  1.00  0.00    -0.140 A  
HETATM   27  C   UNL     1      -8.185   7.934  68.759  1.00  0.00    -0.127 C  
HETATM   28  C   UNL     1      -9.141  10.030  67.900  1.00  0.00    -0.135 A  
HETATM   29  C   UNL     1     -10.072  11.071  68.002  1.00  0.00    -0.198 A  
HETATM   30  N   UNL     1      -7.457   7.032  68.670  1.00  0.00    -0.100 NA 
ENDBRANCH  21  23
ENDBRANCH  19  21
ENDBRANCH  13  15
ENDBRANCH   5  13
TORSDOF 5
ENDMDL
MODEL      148
REMARK 921   NORMALIZED FREE ENERGY PREDICTED BY IDOCK:   -4.60 KCAL/MOL
REMARK 922        TOTAL FREE ENERGY PREDICTED BY IDOCK:   -6.72 KCAL/MOL
REMARK 923 INTER-LIGAND FREE ENERGY PREDICTED BY IDOCK:   -6.54 KCAL/MOL
REMARK 924 INTRA-LIGAND FREE ENERGY PREDICTED BY IDOCK:   -0.19 KCAL/MOL
REMARK 927      BINDING AFFINITY PREDICTED BY RF-SCORE:    0.00 PKD
ROOT
HETATM    1  C   UNL     1      -7.916   9.437  70.123  1.00  0.00    -0.158 C  
HETATM    2  C   UNL     1      -8.757   8.252  69.739  1.00  0.00    -0.134 A  
HETATM    3  C   UNL     1      -8.221   7.393  68.756  1.00  0.00    -0.129 A  
HETATM    4  C   UNL     1      -8.898   6.262  68.292  1.00  0.00    -0.114 A  
HETATM    5  C   UNL     1     -10.060   8.015  70.230  1.00  0.00    -0.192 A  
HETATM    6  C   UNL     1     -10.128   5.958  68.873  1.00  0.00    -0.231 A  
HETATM    7  C   UNL     1     -12.003   6.366  70.481  1.00  0.00    -0.217 C  
HETATM    8  C   UNL     1     -10.705   6.804  69.850  1.00  0.00    -0.290 A  
ENDROOT
BRANCH   4   9
HETATM    9  C   UNL     1      -8.290   5.517  67.175  1.00  0.00    -0.104 C  
HETATM   10  C   UNL     1      -8.182   5.928  65.904  1.00  0.00    -0.127 C  
HETATM   11  C   UNL     1      -7.613   5.086  64.905  1.00  0.00    -0.078 C  
HETATM   12  N   UNL     1      -7.157   4.389  64.098  1.00  0.00    -0.046 NA 
ENDBRANCH   4   9
BRANCH   5  13
HETATM   13  N   UNL     1     -10.770   8.981  70.992  1.00  0.00    -0.245 NA 
HETATM   14  H   UNL     1     -10.950   8.710  71.959  1.00  0.00     0.000 HD 
BRANCH  13  15
HETATM   15  C   UNL     1     -11.268  10.254  70.635  1.00  0.00    -0.325 A  
HETATM   16  C   UNL     1     -12.323  10.770  71.358  1.00  0.00    -0.433 A  
HETATM   17  C   UNL     1     -12.770  12.015  70.986  1.00  0.00    -0.241 A  
HETATM   18  N   UNL     1     -12.224  12.731  69.988  1.00  0.00    -0.255 NA 
HETATM   19  C   UNL     1     -11.205  12.161  69.328  1.00  0.00    -0.226 A  
HETATM   20  N   UNL     1     -10.717  10.949  69.633  1.00  0.00    -0.218 NA 
BRANCH  19  21
HETATM   21  N   UNL     1     -10.666  12.908  68.278  1.00  0.00    -0.236 NA 
HETATM   22  H   UNL     1     -10.245  12.350  67.535  1.00  0.00     0.000 HD 
BRANCH  21  23
HETATM   23  C   UNL     1     -10.604  14.292  68.071  1.00  0.00    -0.238 A  
HETATM   24  C   UNL     1     -10.686  14.886  66.806  1.00  0.00    -0.312 A  
HETATM   25  C   UNL     1     -10.665  16.269  66.636  1.00  0.00    -0.197 A  
HETATM   26  C   UNL     1     -10.539  17.100  67.749  1.00  0.00    -0.360 A  
HETATM   27  C   UNL     1     -10.561  18.520  67.574  1.00  0.00    -0.423 C  
HETATM   28  C   UNL     1     -10.400  16.535  69.016  1.00  0.00    -0.296 A  
HETATM   29  C   UNL     1     -10.426  15.144  69.174  1.00  0.00    -0.252 A  
HETATM   30  N   UNL     1     -10.594  19.673  67.424  1.00  0.00    -0.463 NA 
ENDBRANCH  21  23
ENDBRANCH  19  21
ENDBRANCH  13  15
ENDBRANCH   5  13
TORSDOF 5
ENDMDL
MODEL      149
REMARK 921   NORMALIZED FREE ENERGY PREDICTED BY IDOCK:   -4.57 KCAL/MOL
REMARK 922        TOTAL FREE ENERGY PREDICTED BY IDOCK:   -6.69 KCAL/MOL
REMARK 923 INTER-LIGAND FREE ENERGY PREDICTED BY IDOCK:   -5.88 KCAL/MOL
REMARK 924 INTRA-LIGAND FREE ENERGY PREDICTED BY IDOCK:   -0.81 KCAL/MOL
REMARK 927      BINDING AFFINITY PREDICTED BY RF-SCORE:    0.00 PKD
ROOT
HETATM    1  C   UNL     1      -7.580   9.186  69.719  1.00  0.00    -0.079 C  
HETATM    2  C   UNL     1      -8.596   8.107  69.466  1.00  0.00    -0.134 A  
HETATM    3  C   UNL     1      -8.895   7.258  70.553  1.00  0.00    -0.153 A  
HETATM    4  C   UNL     1      -9.807   6.204  70.458  1.00  0.00    -0.214 A  
HETATM    5  C   UNL     1      -9.177   7.849  68.205  1.00  0.00    -0.136 A  
HETATM    6  C   UNL     1     -10.477   6.032  69.248  1.00  0.00    -0.328 A  
HETATM    7  C   UNL     1     -11.012   6.651  66.881  1.00  0.00    -0.396 C  
HETATM    8  C   UNL     1     -10.192   6.854  68.130  1.00  0.00    -0.203 A  
ENDROOT
BRANCH   4   9
HETATM    9  C   UNL     1      -9.940   5.312  71.624  1.00  0.00    -0.236 C  
HETATM   10  C   UNL     1     -11.077   4.972  72.245  1.00  0.00    -0.116 C  
HETATM   11  C   UNL     1     -11.063   4.135  73.399  1.00  0.00    -0.262 C  
HETATM   12  N   UNL     1     -11.038   3.461  74.342  1.00  0.00     0.144 NA 
ENDBRANCH   4   9
BRANCH   5  13
HETATM   13  N   UNL     1      -8.711   8.469  67.015  1.00  0.00    -0.124 NA 
HETATM   14  H   UNL     1      -7.944   7.981  66.554  1.00  0.00     0.000 HD 
BRANCH  13  15
HETATM   15  C   UNL     1      -9.134   9.649  66.362  1.00  0.00    -0.156 A  
HETATM   16  C   UNL     1      -9.437   9.581  65.019  1.00  0.00    -0.273 A  
HETATM   17  C   UNL     1      -9.853  10.747  64.425  1.00  0.00    -0.315 A  
HETATM   18  N   UNL     1      -9.990  11.909  65.087  1.00  0.00    -0.250 NA 
HETATM   19  C   UNL     1      -9.671  11.899  66.389  1.00  0.00    -0.221 A  
HETATM   20  N   UNL     1      -9.255  10.799  67.036  1.00  0.00    -0.151 NA 
BRANCH  19  21
HETATM   21  N   UNL     1      -9.794  13.119  67.056  1.00  0.00    -0.238 NA 
HETATM   22  H   UNL     1     -10.451  13.110  67.837  1.00  0.00     0.000 HD 
BRANCH  21  23
HETATM   23  C   UNL     1      -9.170  14.354  66.837  1.00  0.00    -0.254 A  
HETATM   24  C   UNL     1      -9.729  15.371  66.055  1.00  0.00    -0.370 A  
HETATM   25  C   UNL     1      -9.104  16.606  65.892  1.00  0.00    -0.155 A  
HETATM   26  C   UNL     1      -7.872  16.844  66.504  1.00  0.00    -0.330 A  
HETATM   27  C   UNL     1      -7.254  18.127  66.368  1.00  0.00    -0.247 C  
HETATM   28  C   UNL     1      -7.266  15.830  67.242  1.00  0.00    -0.254 A  
HETATM   29  C   UNL     1      -7.907  14.594  67.403  1.00  0.00    -0.225 A  
HETATM   30  N   UNL     1      -6.766  19.177  66.264  1.00  0.00    -0.201 NA 
ENDBRANCH  21  23
ENDBRANCH  19  21
ENDBRANCH  13  15
ENDBRANCH   5  13
TORSDOF 5
ENDMDL
MODEL      150
REMARK 921   NORMALIZED FREE ENERGY PREDICTED BY IDOCK:   -4.57 KCAL/MOL
REMARK 922        TOTAL FREE ENERGY PREDICTED BY IDOCK:   -6.69 KCAL/MOL
REMARK 923 INTER-LIGAND FREE ENERGY PREDICTED BY IDOCK:   -6.23 KCAL/MOL
REMARK 924 INTRA-LIGAND FREE ENERGY PREDICTED BY IDOCK:   -0.46 KCAL/MOL
REMARK 927      BINDING AFFINITY PREDICTED BY RF-SCORE:    0.00 PKD
ROOT
HETATM    1  C   UNL     1      -8.897   9.164  65.157  1.00  0.00    -0.241 C  
HETATM    2  C   UNL     1      -9.418   8.280  66.255  1.00  0.00    -0.271 A  
HETATM    3  C   UNL     1      -9.345   6.888  66.030  1.00  0.00    -0.026 A  
HETATM    4  C   UNL     1      -9.805   5.950  66.957  1.00  0.00    -0.173 A  
HETATM    5  C   UNL     1     -10.046   8.761  67.426  1.00  0.00    -0.226 A  
HETATM    6  C   UNL     1     -10.305   6.424  68.168  1.00  0.00    -0.231 A  
HETATM    7  C   UNL     1     -10.893   8.243  69.786  1.00  0.00    -0.186 C  
HETATM    8  C   UNL     1     -10.409   7.813  68.423  1.00  0.00    -0.231 A  
ENDROOT
BRANCH   4   9
HETATM    9  C   UNL     1      -9.789   4.532  66.553  1.00  0.00    -0.244 C  
HETATM   10  C   UNL     1      -9.021   3.979  65.605  1.00  0.00    -0.131 C  
HETATM   11  C   UNL     1      -9.138   2.597  65.276  1.00  0.00    -0.138 C  
HETATM   12  N   UNL     1      -9.250   1.474  65.011  1.00  0.00    -0.120 NA 
ENDBRANCH   4   9
BRANCH   5  13
HETATM   13  N   UNL     1     -10.411  10.124  67.584  1.00  0.00    -0.203 NA 
HETATM   14  H   UNL     1     -11.408  10.282  67.728  1.00  0.00     0.000 HD 
BRANCH  13  15
HETATM   15  C   UNL     1      -9.624  11.298  67.575  1.00  0.00    -0.170 A  
HETATM   16  C   UNL     1      -8.530  11.358  68.411  1.00  0.00    -0.155 A  
HETATM   17  C   UNL     1      -7.786  12.512  68.365  1.00  0.00    -0.141 A  
HETATM   18  N   UNL     1      -8.066  13.542  67.548  1.00  0.00    -0.174 NA 
HETATM   19  C   UNL     1      -9.149  13.412  66.767  1.00  0.00    -0.212 A  
HETATM   20  N   UNL     1      -9.923  12.316  66.761  1.00  0.00    -0.203 NA 
BRANCH  19  21
HETATM   21  N   UNL     1      -9.440  14.501  65.943  1.00  0.00    -0.509 NA 
HETATM   22  H   UNL     1      -9.797  14.250  65.021  1.00  0.00     0.000 HD 
BRANCH  21  23
HETATM   23  C   UNL     1      -9.325  15.880  66.165  1.00  0.00    -0.350 A  
HETATM   24  C   UNL     1     -10.422  16.747  66.204  1.00  0.00    -0.282 A  
HETATM   25  C   UNL     1     -10.280  18.108  66.470  1.00  0.00    -0.398 A  
HETATM   26  C   UNL     1      -9.008  18.640  66.687  1.00  0.00    -0.307 A  
HETATM   27  C   UNL     1      -8.870  20.029  67.002  1.00  0.00    -0.347 C  
HETATM   28  C   UNL     1      -7.893  17.810  66.599  1.00  0.00    -0.277 A  
HETATM   29  C   UNL     1      -8.050  16.443  66.335  1.00  0.00    -0.357 A  
HETATM   30  N   UNL     1      -8.769  21.156  67.272  1.00  0.00     0.073 NA 
ENDBRANCH  21  23
ENDBRANCH  19  21
ENDBRANCH  13  15
ENDBRANCH   5  13
TORSDOF 5
ENDMDL
MODEL      151
REMARK 921   NORMALIZED FREE ENERGY PREDICTED BY IDOCK:   -4.55 KCAL/MOL
REMARK 922        TOTAL FREE ENERGY PREDICTED BY IDOCK:   -6.66 KCAL/MOL
REMARK 923 INTER-LIGAND FREE ENERGY PREDICTED BY IDOCK:   -5.57 KCAL/MOL
REMARK 924 INTRA-LIGAND FREE ENERGY PREDICTED BY IDOCK:   -1.10 KCAL/MOL
REMARK 927      BINDING AFFINITY PREDICTED BY RF-SCORE:    0.00 PKD
ROOT
HETATM    1  C   UNL     1      -5.888   6.242  69.156  1.00  0.00    -0.020 C  
HETATM    2  C   UNL     1      -7.389   6.237  69.067  1.00  0.00    -0.085 A  
HETATM    3  C   UNL     1      -7.958   5.372  68.106  1.00  0.00    -0.095 A  
HETATM    4  C   UNL     1      -9.337   5.275  67.903  1.00  0.00    -0.131 A  
HETATM    5  C   UNL     1      -8.228   7.097  69.808  1.00  0.00    -0.131 A  
HETATM    6  C   UNL     1     -10.170   6.030  68.727  1.00  0.00    -0.236 A  
HETATM    7  C   UNL     1     -10.604   7.646  70.591  1.00  0.00    -0.225 C  
HETATM    8  C   UNL     1      -9.635   6.920  69.690  1.00  0.00    -0.146 A  
ENDROOT
BRANCH   4   9
HETATM    9  C   UNL     1      -9.801   4.433  66.786  1.00  0.00    -0.241 C  
HETATM   10  C   UNL     1      -9.150   4.193  65.640  1.00  0.00    -0.137 C  
HETATM   11  C   UNL     1      -9.733   3.394  64.615  1.00  0.00    -0.164 C  
HETATM   12  N   UNL     1     -10.223   2.751  63.784  1.00  0.00    -0.167 NA 
ENDBRANCH   4   9
BRANCH   5  13
HETATM   13  N   UNL     1      -7.717   8.181  70.571  1.00  0.00    -0.082 NA 
HETATM   14  H   UNL     1      -7.640   7.996  71.571  1.00  0.00     0.000 HD 
BRANCH  13  15
HETATM   15  C   UNL     1      -7.298   9.471  70.177  1.00  0.00    -0.124 A  
HETATM   16  C   UNL     1      -5.969   9.804  70.335  1.00  0.00    -0.069 A  
HETATM   17  C   UNL     1      -5.601  11.064  69.929  1.00  0.00    -0.066 A  
HETATM   18  N   UNL     1      -6.456  11.948  69.386  1.00  0.00    -0.112 NA 
HETATM   19  C   UNL     1      -7.733  11.554  69.269  1.00  0.00     0.112 A  
HETATM   20  N   UNL     1      -8.165  10.341  69.646  1.00  0.00    -0.160 NA 
BRANCH  19  21
HETATM   21  N   UNL     1      -8.612  12.492  68.726  1.00  0.00    -0.373 NA 
HETATM   22  H   UNL     1      -8.598  13.402  69.188  1.00  0.00     0.000 HD 
BRANCH  21  23
HETATM   23  C   UNL     1      -9.512  12.399  67.656  1.00  0.00    -0.190 A  
HETATM   24  C   UNL     1     -10.816  12.905  67.700  1.00  0.00    -0.252 A  
HETATM   25  C   UNL     1     -11.672  12.835  66.602  1.00  0.00    -0.459 A  
HETATM   26  C   UNL     1     -11.239  12.228  65.424  1.00  0.00    -0.372 A  
HETATM   27  C   UNL     1     -12.107  12.196  64.287  1.00  0.00    -0.375 C  
HETATM   28  C   UNL     1      -9.965  11.665  65.370  1.00  0.00    -0.287 A  
HETATM   29  C   UNL     1      -9.111  11.746  66.478  1.00  0.00    -0.203 A  
HETATM   30  N   UNL     1     -12.813  12.187  63.363  1.00  0.00    -0.777 NA 
ENDBRANCH  21  23
ENDBRANCH  19  21
ENDBRANCH  13  15
ENDBRANCH   5  13
TORSDOF 5
ENDMDL
MODEL      152
REMARK 921   NORMALIZED FREE ENERGY PREDICTED BY IDOCK:   -4.54 KCAL/MOL
REMARK 922        TOTAL FREE ENERGY PREDICTED BY IDOCK:   -6.64 KCAL/MOL
REMARK 923 INTER-LIGAND FREE ENERGY PREDICTED BY IDOCK:   -6.09 KCAL/MOL
REMARK 924 INTRA-LIGAND FREE ENERGY PREDICTED BY IDOCK:   -0.56 KCAL/MOL
REMARK 927      BINDING AFFINITY PREDICTED BY RF-SCORE:    0.00 PKD
ROOT
HETATM    1  C   UNL     1     -10.808  11.632  65.002  1.00  0.00    -0.346 C  
HETATM    2  C   UNL     1      -9.725  12.085  65.942  1.00  0.00    -0.256 A  
HETATM    3  C   UNL     1      -9.960  13.291  66.637  1.00  0.00    -0.272 A  
HETATM    4  C   UNL     1      -9.036  13.838  67.530  1.00  0.00    -0.209 A  
HETATM    5  C   UNL     1      -8.481  11.432  66.088  1.00  0.00    -0.105 A  
HETATM    6  C   UNL     1      -7.864  13.124  67.771  1.00  0.00    -0.152 A  
HETATM    7  C   UNL     1      -6.330  11.170  67.452  1.00  0.00    -0.067 C  
HETATM    8  C   UNL     1      -7.586  11.920  67.081  1.00  0.00    -0.154 A  
ENDROOT
BRANCH   4   9
HETATM    9  C   UNL     1      -9.342  15.164  68.096  1.00  0.00    -0.192 C  
HETATM   10  C   UNL     1      -9.923  16.191  67.461  1.00  0.00    -0.243 C  
HETATM   11  C   UNL     1     -10.120  17.444  68.112  1.00  0.00    -0.328 C  
HETATM   12  N   UNL     1     -10.266  18.461  68.649  1.00  0.00    -0.375 NA 
ENDBRANCH   4   9
BRANCH   5  13
HETATM   13  N   UNL     1      -8.066  10.390  65.217  1.00  0.00    -0.155 NA 
HETATM   14  H   UNL     1      -7.532  10.703  64.406  1.00  0.00     0.000 HD 
BRANCH  13  15
HETATM   15  C   UNL     1      -8.268   8.993  65.286  1.00  0.00    -0.137 A  
HETATM   16  C   UNL     1      -7.902   8.225  64.200  1.00  0.00    -0.145 A  
HETATM   17  C   UNL     1      -8.105   6.871  64.312  1.00  0.00    -0.040 A  
HETATM   18  N   UNL     1      -8.612   6.285  65.410  1.00  0.00    -0.129 NA 
HETATM   19  C   UNL     1      -8.949   7.098  66.423  1.00  0.00    -0.155 A  
HETATM   20  N   UNL     1      -8.782   8.428  66.384  1.00  0.00    -0.132 NA 
BRANCH  19  21
HETATM   21  N   UNL     1      -9.497   6.476  67.546  1.00  0.00    -0.124 NA 
HETATM   22  H   UNL     1      -9.312   5.475  67.608  1.00  0.00     0.000 HD 
BRANCH  21  23
HETATM   23  C   UNL     1     -10.259   6.991  68.603  1.00  0.00    -0.176 A  
HETATM   24  C   UNL     1     -11.138   6.216  69.368  1.00  0.00    -0.479 A  
HETATM   25  C   UNL     1     -11.849   6.749  70.442  1.00  0.00    -0.395 A  
HETATM   26  C   UNL     1     -11.707   8.099  70.764  1.00  0.00    -0.211 A  
HETATM   27  C   UNL     1     -12.407   8.632  71.893  1.00  0.00    -0.354 C  
HETATM   28  C   UNL     1     -10.882   8.907  69.984  1.00  0.00    -0.239 A  
HETATM   29  C   UNL     1     -10.169   8.359  68.910  1.00  0.00    -0.223 A  
HETATM   30  N   UNL     1     -12.968   9.053  72.820  1.00  0.00    -0.295 NA 
ENDBRANCH  21  23
ENDBRANCH  19  21
ENDBRANCH  13  15
ENDBRANCH   5  13
TORSDOF 5
ENDMDL
MODEL      153
REMARK 921   NORMALIZED FREE ENERGY PREDICTED BY IDOCK:   -4.49 KCAL/MOL
REMARK 922        TOTAL FREE ENERGY PREDICTED BY IDOCK:   -6.58 KCAL/MOL
REMARK 923 INTER-LIGAND FREE ENERGY PREDICTED BY IDOCK:   -6.21 KCAL/MOL
REMARK 924 INTRA-LIGAND FREE ENERGY PREDICTED BY IDOCK:   -0.37 KCAL/MOL
REMARK 927      BINDING AFFINITY PREDICTED BY RF-SCORE:    0.00 PKD
ROOT
HETATM    1  C   UNL     1      -7.393  12.849  68.740  1.00  0.00    -0.066 C  
HETATM    2  C   UNL     1      -8.444  13.612  67.983  1.00  0.00    -0.174 A  
HETATM    3  C   UNL     1      -8.020  14.793  67.336  1.00  0.00    -0.220 A  
HETATM    4  C   UNL     1      -8.890  15.608  66.609  1.00  0.00    -0.327 A  
HETATM    5  C   UNL     1      -9.813  13.265  67.966  1.00  0.00    -0.230 A  
HETATM    6  C   UNL     1     -10.216  15.195  66.485  1.00  0.00    -0.283 A  
HETATM    7  C   UNL     1     -12.111  13.608  66.888  1.00  0.00    -0.431 C  
HETATM    8  C   UNL     1     -10.681  14.025  67.132  1.00  0.00    -0.283 A  
ENDROOT
BRANCH   4   9
HETATM    9  C   UNL     1      -8.355  16.879  66.088  1.00  0.00    -0.286 C  
HETATM   10  C   UNL     1      -8.406  18.075  66.689  1.00  0.00    -0.284 C  
HETATM   11  C   UNL     1      -7.891  19.241  66.052  1.00  0.00    -0.258 C  
HETATM   12  N   UNL     1      -7.478  20.185  65.519  1.00  0.00    -0.260 NA 
ENDBRANCH   4   9
BRANCH   5  13
HETATM   13  N   UNL     1     -10.353  12.268  68.820  1.00  0.00    -0.373 NA 
HETATM   14  H   UNL     1     -10.883  12.630  69.613  1.00  0.00     0.000 HD 
BRANCH  13  15
HETATM   15  C   UNL     1     -10.279  10.858  68.757  1.00  0.00    -0.196 A  
HETATM   16  C   UNL     1     -10.719  10.130  69.842  1.00  0.00    -0.340 A  
HETATM   17  C   UNL     1     -10.640   8.763  69.735  1.00  0.00    -0.224 A  
HETATM   18  N   UNL     1     -10.182   8.130  68.642  1.00  0.00    -0.204 NA 
HETATM   19  C   UNL     1      -9.767   8.905  67.629  1.00  0.00    -0.161 A  
HETATM   20  N   UNL     1      -9.812  10.245  67.663  1.00  0.00    -0.167 NA 
BRANCH  19  21
HETATM   21  N   UNL     1      -9.271   8.232  66.511  1.00  0.00    -0.175 NA 
HETATM   22  H   UNL     1      -8.806   8.831  65.828  1.00  0.00     0.000 HD 
BRANCH  21  23
HETATM   23  C   UNL     1      -9.302   6.874  66.165  1.00  0.00    -0.042 A  
HETATM   24  C   UNL     1     -10.334   6.007  66.543  1.00  0.00    -0.209 A  
HETATM   25  C   UNL     1     -10.359   4.672  66.146  1.00  0.00    -0.310 A  
HETATM   26  C   UNL     1      -9.321   4.163  65.365  1.00  0.00    -0.163 A  
HETATM   27  C   UNL     1      -9.372   2.802  64.925  1.00  0.00    -0.139 C  
HETATM   28  C   UNL     1      -8.253   4.989  65.020  1.00  0.00    -0.133 A  
HETATM   29  C   UNL     1      -8.241   6.331  65.422  1.00  0.00    -0.142 A  
HETATM   30  N   UNL     1      -9.429   1.700  64.559  1.00  0.00    -0.131 NA 
ENDBRANCH  21  23
ENDBRANCH  19  21
ENDBRANCH  13  15
ENDBRANCH   5  13
TORSDOF 5
ENDMDL
MODEL      154
REMARK 921   NORMALIZED FREE ENERGY PREDICTED BY IDOCK:   -4.48 KCAL/MOL
REMARK 922        TOTAL FREE ENERGY PREDICTED BY IDOCK:   -6.57 KCAL/MOL
REMARK 923 INTER-LIGAND FREE ENERGY PREDICTED BY IDOCK:   -5.82 KCAL/MOL
REMARK 924 INTRA-LIGAND FREE ENERGY PREDICTED BY IDOCK:   -0.75 KCAL/MOL
REMARK 927      BINDING AFFINITY PREDICTED BY RF-SCORE:    0.00 PKD
ROOT
HETATM    1  C   UNL     1      -7.049   8.814  71.274  1.00  0.00    -0.096 C  
HETATM    2  C   UNL     1      -8.185   8.422  70.371  1.00  0.00    -0.115 A  
HETATM    3  C   UNL     1      -8.450   7.039  70.258  1.00  0.00    -0.138 A  
HETATM    4  C   UNL     1      -9.465   6.530  69.445  1.00  0.00    -0.147 A  
HETATM    5  C   UNL     1      -8.918   9.334  69.581  1.00  0.00    -0.160 A  
HETATM    6  C   UNL     1     -10.272   7.442  68.766  1.00  0.00    -0.199 A  
HETATM    7  C   UNL     1     -10.990   9.757  68.136  1.00  0.00    -0.228 C  
HETATM    8  C   UNL     1     -10.027   8.834  68.842  1.00  0.00    -0.200 A  
ENDROOT
BRANCH   4   9
HETATM    9  C   UNL     1      -9.560   5.065  69.313  1.00  0.00    -0.230 C  
HETATM   10  C   UNL     1      -9.287   4.341  68.220  1.00  0.00    -0.207 C  
HETATM   11  C   UNL     1      -9.467   2.927  68.209  1.00  0.00    -0.155 C  
HETATM   12  N   UNL     1      -9.627   1.779  68.210  1.00  0.00    -0.179 NA 
ENDBRANCH   4   9
BRANCH   5  13
HETATM   13  N   UNL     1      -8.522  10.689  69.425  1.00  0.00    -0.349 NA 
HETATM   14  H   UNL     1      -8.980  11.341  70.060  1.00  0.00     0.000 HD 
BRANCH  13  15
HETATM   15  C   UNL     1      -7.598  11.285  68.536  1.00  0.00    -0.123 A  
HETATM   16  C   UNL     1      -6.895  10.467  67.678  1.00  0.00    -0.075 A  
HETATM   17  C   UNL     1      -6.015  11.086  66.823  1.00  0.00    -0.099 A  
HETATM   18  N   UNL     1      -5.835  12.417  66.782  1.00  0.00    -0.203 NA 
HETATM   19  C   UNL     1      -6.551  13.147  67.651  1.00  0.00    -0.162 A  
HETATM   20  N   UNL     1      -7.426  12.611  68.515  1.00  0.00    -0.121 NA 
BRANCH  19  21
HETATM   21  N   UNL     1      -6.333  14.526  67.612  1.00  0.00    -0.284 NA 
HETATM   22  H   UNL     1      -5.387  14.812  67.864  1.00  0.00     0.000 HD 
BRANCH  21  23
HETATM   23  C   UNL     1      -7.192  15.584  67.287  1.00  0.00    -0.207 A  
HETATM   24  C   UNL     1      -6.769  16.745  66.631  1.00  0.00    -0.241 A  
HETATM   25  C   UNL     1      -7.656  17.762  66.282  1.00  0.00    -0.322 A  
HETATM   26  C   UNL     1      -9.007  17.643  66.609  1.00  0.00    -0.283 A  
HETATM   27  C   UNL     1      -9.921  18.670  66.212  1.00  0.00    -0.372 C  
HETATM   28  C   UNL     1      -9.447  16.523  67.312  1.00  0.00    -0.237 A  
HETATM   29  C   UNL     1      -8.546  15.506  67.653  1.00  0.00    -0.175 A  
HETATM   30  N   UNL     1     -10.659  19.502  65.872  1.00  0.00    -0.510 NA 
ENDBRANCH  21  23
ENDBRANCH  19  21
ENDBRANCH  13  15
ENDBRANCH   5  13
TORSDOF 5
ENDMDL
MODEL      155
REMARK 921   NORMALIZED FREE ENERGY PREDICTED BY IDOCK:   -4.46 KCAL/MOL
REMARK 922        TOTAL FREE ENERGY PREDICTED BY IDOCK:   -6.55 KCAL/MOL
REMARK 923 INTER-LIGAND FREE ENERGY PREDICTED BY IDOCK:   -5.64 KCAL/MOL
REMARK 924 INTRA-LIGAND FREE ENERGY PREDICTED BY IDOCK:   -0.91 KCAL/MOL
REMARK 927      BINDING AFFINITY PREDICTED BY RF-SCORE:    0.00 PKD
ROOT
HETATM    1  C   UNL     1     -11.014  10.074  67.258  1.00  0.00    -0.225 C  
HETATM    2  C   UNL     1     -10.202   9.901  66.005  1.00  0.00    -0.269 A  
HETATM    3  C   UNL     1      -9.196   8.912  66.039  1.00  0.00    -0.287 A  
HETATM    4  C   UNL     1      -8.356   8.653  64.953  1.00  0.00    -0.174 A  
HETATM    5  C   UNL     1     -10.329  10.721  64.862  1.00  0.00    -0.299 A  
HETATM    6  C   UNL     1      -8.570   9.374  63.780  1.00  0.00    -0.224 A  
HETATM    7  C   UNL     1      -9.776  11.070  62.386  1.00  0.00    -0.025 C  
HETATM    8  C   UNL     1      -9.558  10.386  63.713  1.00  0.00    -0.366 A  
ENDROOT
BRANCH   4   9
HETATM    9  C   UNL     1      -7.264   7.684  65.155  1.00  0.00    -0.069 C  
HETATM   10  C   UNL     1      -7.236   6.411  64.737  1.00  0.00    -0.064 C  
HETATM   11  C   UNL     1      -6.134   5.560  65.041  1.00  0.00    -0.026 C  
HETATM   12  N   UNL     1      -5.236   4.875  65.303  1.00  0.00    -0.012 NA 
ENDBRANCH   4   9
BRANCH   5  13
HETATM   13  N   UNL     1     -11.110  11.907  64.863  1.00  0.00    -0.310 NA 
HETATM   14  H   UNL     1     -12.095  11.767  64.637  1.00  0.00     0.000 HD 
BRANCH  13  15
HETATM   15  C   UNL     1     -10.752  13.248  65.126  1.00  0.00    -0.322 A  
HETATM   16  C   UNL     1     -11.605  14.248  64.707  1.00  0.00    -0.404 A  
HETATM   17  C   UNL     1     -11.225  15.537  64.992  1.00  0.00    -0.358 A  
HETATM   18  N   UNL     1     -10.099  15.848  65.658  1.00  0.00    -0.350 NA 
HETATM   19  C   UNL     1      -9.318  14.823  66.029  1.00  0.00    -0.214 A  
HETATM   20  N   UNL     1      -9.623  13.540  65.783  1.00  0.00    -0.123 NA 
BRANCH  19  21
HETATM   21  N   UNL     1      -8.141  15.166  66.697  1.00  0.00    -0.342 NA 
HETATM   22  H   UNL     1      -7.680  16.002  66.339  1.00  0.00     0.000 HD 
BRANCH  21  23
HETATM   23  C   UNL     1      -7.484  14.557  67.775  1.00  0.00    -0.169 A  
HETATM   24  C   UNL     1      -7.342  15.160  69.029  1.00  0.00    -0.155 A  
HETATM   25  C   UNL     1      -6.722  14.510  70.095  1.00  0.00    -0.089 A  
HETATM   26  C   UNL     1      -6.203  13.228  69.916  1.00  0.00    -0.097 A  
HETATM   27  C   UNL     1      -5.604  12.548  71.024  1.00  0.00    -0.079 C  
HETATM   28  C   UNL     1      -6.281  12.625  68.662  1.00  0.00    -0.070 A  
HETATM   29  C   UNL     1      -6.911  13.286  67.600  1.00  0.00    -0.168 A  
HETATM   30  N   UNL     1      -5.133  11.998  71.933  1.00  0.00    -0.351 NA 
ENDBRANCH  21  23
ENDBRANCH  19  21
ENDBRANCH  13  15
ENDBRANCH   5  13
TORSDOF 5
ENDMDL
MODEL      156
REMARK 921   NORMALIZED FREE ENERGY PREDICTED BY IDOCK:   -4.46 KCAL/MOL
REMARK 922        TOTAL FREE ENERGY PREDICTED BY IDOCK:   -6.54 KCAL/MOL
REMARK 923 INTER-LIGAND FREE ENERGY PREDICTED BY IDOCK:   -5.61 KCAL/MOL
REMARK 924 INTRA-LIGAND FREE ENERGY PREDICTED BY IDOCK:   -0.93 KCAL/MOL
REMARK 927      BINDING AFFINITY PREDICTED BY RF-SCORE:    0.00 PKD
ROOT
HETATM    1  C   UNL     1     -10.822  14.602  68.143  1.00  0.00    -0.256 C  
HETATM    2  C   UNL     1      -9.375  14.737  67.760  1.00  0.00    -0.199 A  
HETATM    3  C   UNL     1      -8.990  15.967  67.184  1.00  0.00    -0.220 A  
HETATM    4  C   UNL     1      -7.682  16.227  66.767  1.00  0.00    -0.295 A  
HETATM    5  C   UNL     1      -8.431  13.691  67.857  1.00  0.00    -0.177 A  
HETATM    6  C   UNL     1      -6.723  15.240  66.983  1.00  0.00     0.302 A  
HETATM    7  C   UNL     1      -5.965  13.001  67.812  1.00  0.00    -0.145 C  
HETATM    8  C   UNL     1      -7.075  13.988  67.543  1.00  0.00    -0.179 A  
ENDROOT
BRANCH   4   9
HETATM    9  C   UNL     1      -7.433  17.500  66.067  1.00  0.00    -0.274 C  
HETATM   10  C   UNL     1      -6.427  18.356  66.297  1.00  0.00    -0.245 C  
HETATM   11  C   UNL     1      -6.326  19.583  65.579  1.00  0.00    -0.236 C  
HETATM   12  N   UNL     1      -6.260  20.582  64.995  1.00  0.00    -0.258 NA 
ENDBRANCH   4   9
BRANCH   5  13
HETATM   13  N   UNL     1      -8.809  12.355  68.151  1.00  0.00    -0.188 NA 
HETATM   14  H   UNL     1      -8.897  12.148  69.146  1.00  0.00     0.000 HD 
BRANCH  13  15
HETATM   15  C   UNL     1      -9.085  11.263  67.297  1.00  0.00    -0.156 A  
HETATM   16  C   UNL     1      -9.384  11.525  65.977  1.00  0.00    -0.239 A  
HETATM   17  C   UNL     1      -9.635  10.436  65.177  1.00  0.00    -0.271 A  
HETATM   18  N   UNL     1      -9.583   9.167  65.616  1.00  0.00    -0.253 NA 
HETATM   19  C   UNL     1      -9.290   8.992  66.913  1.00  0.00    -0.158 A  
HETATM   20  N   UNL     1      -9.036  10.007  67.753  1.00  0.00    -0.131 NA 
BRANCH  19  21
HETATM   21  N   UNL     1      -9.265   7.668  67.358  1.00  0.00    -0.131 NA 
HETATM   22  H   UNL     1      -8.866   7.006  66.693  1.00  0.00     0.000 HD 
BRANCH  21  23
HETATM   23  C   UNL     1      -9.693   7.094  68.563  1.00  0.00    -0.143 A  
HETATM   24  C   UNL     1     -11.003   6.653  68.782  1.00  0.00    -0.322 A  
HETATM   25  C   UNL     1     -11.388   6.046  69.976  1.00  0.00    -0.354 A  
HETATM   26  C   UNL     1     -10.456   5.884  71.001  1.00  0.00    -0.296 A  
HETATM   27  C   UNL     1     -10.845   5.223  72.209  1.00  0.00    -0.207 C  
HETATM   28  C   UNL     1      -9.159   6.365  70.832  1.00  0.00    -0.151 A  
HETATM   29  C   UNL     1      -8.783   6.969  69.625  1.00  0.00    -0.141 A  
HETATM   30  N   UNL     1     -11.166   4.671  73.181  1.00  0.00    -0.288 NA 
ENDBRANCH  21  23
ENDBRANCH  19  21
ENDBRANCH  13  15
ENDBRANCH   5  13
TORSDOF 5
ENDMDL
MODEL      157
REMARK 921   NORMALIZED FREE ENERGY PREDICTED BY IDOCK:   -4.44 KCAL/MOL
REMARK 922        TOTAL FREE ENERGY PREDICTED BY IDOCK:   -6.52 KCAL/MOL
REMARK 923 INTER-LIGAND FREE ENERGY PREDICTED BY IDOCK:   -5.79 KCAL/MOL
REMARK 924 INTRA-LIGAND FREE ENERGY PREDICTED BY IDOCK:   -0.73 KCAL/MOL
REMARK 927      BINDING AFFINITY PREDICTED BY RF-SCORE:    0.00 PKD
ROOT
HETATM    1  C   UNL     1     -11.146  11.911  64.134  1.00  0.00    -0.441 C  
HETATM    2  C   UNL     1     -10.323  12.715  65.102  1.00  0.00    -0.312 A  
HETATM    3  C   UNL     1     -10.549  14.109  65.111  1.00  0.00    -0.414 A  
HETATM    4  C   UNL     1      -9.847  14.980  65.947  1.00  0.00    -0.369 A  
HETATM    5  C   UNL     1      -9.300  12.173  65.910  1.00  0.00    -0.130 A  
HETATM    6  C   UNL     1      -8.929  14.427  66.838  1.00  0.00    -0.263 A  
HETATM    7  C   UNL     1      -7.710  12.508  67.889  1.00  0.00    -0.138 C  
HETATM    8  C   UNL     1      -8.664  13.036  66.846  1.00  0.00    -0.158 A  
ENDROOT
BRANCH   4   9
HETATM    9  C   UNL     1     -10.083  16.425  65.775  1.00  0.00    -0.352 C  
HETATM   10  C   UNL     1     -10.230  17.333  66.749  1.00  0.00    -0.318 C  
HETATM   11  C   UNL     1     -10.503  18.699  66.447  1.00  0.00    -0.418 C  
HETATM   12  N   UNL     1     -10.735  19.805  66.189  1.00  0.00    -0.442 NA 
ENDBRANCH   4   9
BRANCH   5  13
HETATM   13  N   UNL     1      -8.826  10.845  65.743  1.00  0.00    -0.188 NA 
HETATM   14  H   UNL     1      -8.151  10.727  64.987  1.00  0.00     0.000 HD 
BRANCH  13  15
HETATM   15  C   UNL     1      -9.132   9.659  66.448  1.00  0.00    -0.156 A  
HETATM   16  C   UNL     1     -10.368   9.081  66.250  1.00  0.00    -0.130 A  
HETATM   17  C   UNL     1     -10.621   7.924  66.947  1.00  0.00    -0.263 A  
HETATM   18  N   UNL     1      -9.732   7.345  67.772  1.00  0.00    -0.140 NA 
HETATM   19  C   UNL     1      -8.554   7.969  67.917  1.00  0.00    -0.129 A  
HETATM   20  N   UNL     1      -8.237   9.102  67.272  1.00  0.00    -0.113 NA 
BRANCH  19  21
HETATM   21  N   UNL     1      -7.651   7.368  68.797  1.00  0.00    -0.104 NA 
HETATM   22  H   UNL     1      -6.670   7.509  68.557  1.00  0.00     0.000 HD 
BRANCH  21  23
HETATM   23  C   UNL     1      -7.862   6.606  69.953  1.00  0.00    -0.115 A  
HETATM   24  C   UNL     1      -7.466   5.269  70.077  1.00  0.00    -0.064 A  
HETATM   25  C   UNL     1      -7.651   4.550  71.256  1.00  0.00    -0.075 A  
HETATM   26  C   UNL     1      -8.267   5.160  72.349  1.00  0.00    -0.117 A  
HETATM   27  C   UNL     1      -8.418   4.431  73.571  1.00  0.00    -0.097 C  
HETATM   28  C   UNL     1      -8.723   6.472  72.235  1.00  0.00    -0.130 A  
HETATM   29  C   UNL     1      -8.527   7.186  71.046  1.00  0.00    -0.129 A  
HETATM   30  N   UNL     1      -8.522   3.836  74.565  1.00  0.00    -0.088 NA 
ENDBRANCH  21  23
ENDBRANCH  19  21
ENDBRANCH  13  15
ENDBRANCH   5  13
TORSDOF 5
ENDMDL
MODEL      158
REMARK 921   NORMALIZED FREE ENERGY PREDICTED BY IDOCK:   -4.44 KCAL/MOL
REMARK 922        TOTAL FREE ENERGY PREDICTED BY IDOCK:   -6.52 KCAL/MOL
REMARK 923 INTER-LIGAND FREE ENERGY PREDICTED BY IDOCK:   -5.71 KCAL/MOL
REMARK 924 INTRA-LIGAND FREE ENERGY PREDICTED BY IDOCK:   -0.81 KCAL/MOL
REMARK 927      BINDING AFFINITY PREDICTED BY RF-SCORE:    0.00 PKD
ROOT
HETATM    1  C   UNL     1      -9.910  12.514  65.541  1.00  0.00    -0.197 C  
HETATM    2  C   UNL     1      -8.898  12.361  66.642  1.00  0.00    -0.156 A  
HETATM    3  C   UNL     1      -8.967  11.170  67.397  1.00  0.00    -0.139 A  
HETATM    4  C   UNL     1      -8.101  10.900  68.459  1.00  0.00    -0.137 A  
HETATM    5  C   UNL     1      -7.972  13.361  67.009  1.00  0.00     0.042 A  
HETATM    6  C   UNL     1      -7.102  11.832  68.736  1.00  0.00    -0.111 A  
HETATM    7  C   UNL     1      -5.860  13.967  68.324  1.00  0.00    -0.114 C  
HETATM    8  C   UNL     1      -7.013  13.045  68.011  1.00  0.00    -0.112 A  
ENDROOT
BRANCH   4   9
HETATM    9  C   UNL     1      -8.353   9.681  69.249  1.00  0.00    -0.137 C  
HETATM   10  C   UNL     1      -8.636   9.620  70.557  1.00  0.00    -0.142 C  
HETATM   11  C   UNL     1      -8.812   8.368  71.215  1.00  0.00    -0.167 C  
HETATM   12  N   UNL     1      -8.943   7.343  71.741  1.00  0.00    -0.122 NA 
ENDBRANCH   4   9
BRANCH   5  13
HETATM   13  N   UNL     1      -8.038  14.682  66.490  1.00  0.00    -0.230 NA 
HETATM   14  H   UNL     1      -7.620  14.796  65.567  1.00  0.00     0.000 HD 
BRANCH  13  15
HETATM   15  C   UNL     1      -8.587  15.863  67.038  1.00  0.00    -0.216 A  
HETATM   16  C   UNL     1      -8.346  17.057  66.392  1.00  0.00    -0.319 A  
HETATM   17  C   UNL     1      -8.906  18.180  66.951  1.00  0.00    -0.267 A  
HETATM   18  N   UNL     1      -9.671  18.155  68.056  1.00  0.00    -0.298 NA 
HETATM   19  C   UNL     1      -9.857  16.958  68.631  1.00  0.00    -0.270 A  
HETATM   20  N   UNL     1      -9.339  15.820  68.143  1.00  0.00    -0.193 NA 
BRANCH  19  21
HETATM   21  N   UNL     1     -10.633  16.953  69.792  1.00  0.00    -0.250 NA 
HETATM   22  H   UNL     1     -10.677  17.851  70.274  1.00  0.00     0.000 HD 
BRANCH  21  23
HETATM   23  C   UNL     1     -11.361  15.927  70.408  1.00  0.00    -0.385 A  
HETATM   24  C   UNL     1     -11.700  15.932  71.766  1.00  0.00    -0.575 A  
HETATM   25  C   UNL     1     -12.463  14.917  72.340  1.00  0.00    -0.426 A  
HETATM   26  C   UNL     1     -12.892  13.845  71.556  1.00  0.00    -0.441 A  
HETATM   27  C   UNL     1     -13.710  12.827  72.140  1.00  0.00    -0.362 C  
HETATM   28  C   UNL     1     -12.521  13.786  70.214  1.00  0.00    -0.357 A  
HETATM   29  C   UNL     1     -11.757  14.815  69.647  1.00  0.00    -0.354 A  
HETATM   30  N   UNL     1     -14.386  12.012  72.620  1.00  0.00     0.726 NA 
ENDBRANCH  21  23
ENDBRANCH  19  21
ENDBRANCH  13  15
ENDBRANCH   5  13
TORSDOF 5
ENDMDL
MODEL      159
REMARK 921   NORMALIZED FREE ENERGY PREDICTED BY IDOCK:   -4.41 KCAL/MOL
REMARK 922        TOTAL FREE ENERGY PREDICTED BY IDOCK:   -6.48 KCAL/MOL
REMARK 923 INTER-LIGAND FREE ENERGY PREDICTED BY IDOCK:   -5.70 KCAL/MOL
REMARK 924 INTRA-LIGAND FREE ENERGY PREDICTED BY IDOCK:   -0.77 KCAL/MOL
REMARK 927      BINDING AFFINITY PREDICTED BY RF-SCORE:    0.00 PKD
ROOT
HETATM    1  C   UNL     1     -11.033   6.769  66.890  1.00  0.00    -0.370 C  
HETATM    2  C   UNL     1      -9.819   7.417  67.495  1.00  0.00    -0.203 A  
HETATM    3  C   UNL     1      -9.581   7.152  68.861  1.00  0.00    -0.142 A  
HETATM    4  C   UNL     1      -8.500   7.698  69.557  1.00  0.00    -0.132 A  
HETATM    5  C   UNL     1      -8.983   8.325  66.809  1.00  0.00    -0.147 A  
HETATM    6  C   UNL     1      -7.602   8.491  68.844  1.00  0.00    -0.096 A  
HETATM    7  C   UNL     1      -6.761   9.596  66.760  1.00  0.00    -0.075 C  
HETATM    8  C   UNL     1      -7.817   8.792  67.478  1.00  0.00    -0.102 A  
ENDROOT
BRANCH   4   9
HETATM    9  C   UNL     1      -8.430   7.449  71.008  1.00  0.00    -0.119 C  
HETATM   10  C   UNL     1      -7.892   6.381  71.612  1.00  0.00    -0.101 C  
HETATM   11  C   UNL     1      -7.932   6.238  73.029  1.00  0.00    -0.107 C  
HETATM   12  N   UNL     1      -7.980   6.128  74.182  1.00  0.00    -0.099 NA 
ENDBRANCH   4   9
BRANCH   5  13
HETATM   13  N   UNL     1      -9.325   8.856  65.537  1.00  0.00    -0.409 NA 
HETATM   14  H   UNL     1      -9.259   8.190  64.767  1.00  0.00     0.000 HD 
BRANCH  13  15
HETATM   15  C   UNL     1      -9.741  10.152  65.158  1.00  0.00    -0.304 A  
HETATM   16  C   UNL     1     -10.000  10.394  63.826  1.00  0.00    -0.230 A  
HETATM   17  C   UNL     1     -10.412  11.663  63.501  1.00  0.00    -0.443 A  
HETATM   18  N   UNL     1     -10.585  12.641  64.408  1.00  0.00    -0.341 NA 
HETATM   19  C   UNL     1     -10.309  12.332  65.683  1.00  0.00    -0.257 A  
HETATM   20  N   UNL     1      -9.899  11.115  66.073  1.00  0.00    -0.219 NA 
BRANCH  19  21
HETATM   21  N   UNL     1     -10.469  13.366  66.608  1.00  0.00    -0.277 NA 
HETATM   22  H   UNL     1     -11.439  13.616  66.799  1.00  0.00     0.000 HD 
BRANCH  21  23
HETATM   23  C   UNL     1      -9.525  14.119  67.319  1.00  0.00    -0.229 A  
HETATM   24  C   UNL     1      -9.864  15.198  68.144  1.00  0.00    -0.218 A  
HETATM   25  C   UNL     1      -8.906  15.900  68.872  1.00  0.00    -0.225 A  
HETATM   26  C   UNL     1      -7.561  15.543  68.771  1.00  0.00    -0.152 A  
HETATM   27  C   UNL     1      -6.586  16.240  69.553  1.00  0.00    -0.202 C  
HETATM   28  C   UNL     1      -7.188  14.509  67.914  1.00  0.00    -0.169 A  
HETATM   29  C   UNL     1      -8.161  13.808  67.190  1.00  0.00    -0.125 A  
HETATM   30  N   UNL     1      -5.802  16.801  70.203  1.00  0.00    -0.211 NA 
ENDBRANCH  21  23
ENDBRANCH  19  21
ENDBRANCH  13  15
ENDBRANCH   5  13
TORSDOF 5
ENDMDL
MODEL      160
REMARK 921   NORMALIZED FREE ENERGY PREDICTED BY IDOCK:   -4.38 KCAL/MOL
REMARK 922        TOTAL FREE ENERGY PREDICTED BY IDOCK:   -6.44 KCAL/MOL
REMARK 923 INTER-LIGAND FREE ENERGY PREDICTED BY IDOCK:   -5.71 KCAL/MOL
REMARK 924 INTRA-LIGAND FREE ENERGY PREDICTED BY IDOCK:   -0.73 KCAL/MOL
REMARK 927      BINDING AFFINITY PREDICTED BY RF-SCORE:    0.00 PKD
ROOT
HETATM    1  C   UNL     1      -6.427  12.647  67.337  1.00  0.00    -0.150 C  
HETATM    2  C   UNL     1      -7.371  13.796  67.558  1.00  0.00    -0.176 A  
HETATM    3  C   UNL     1      -6.797  15.000  68.020  1.00  0.00    -0.152 A  
HETATM    4  C   UNL     1      -7.555  16.144  68.282  1.00  0.00    -0.146 A  
HETATM    5  C   UNL     1      -8.773  13.704  67.421  1.00  0.00    -0.213 A  
HETATM    6  C   UNL     1      -8.923  16.090  68.022  1.00  0.00    -0.187 A  
HETATM    7  C   UNL     1     -11.008  14.942  67.245  1.00  0.00    -0.323 C  
HETATM    8  C   UNL     1      -9.536  14.896  67.573  1.00  0.00    -0.204 A  
ENDROOT
BRANCH   4   9
HETATM    9  C   UNL     1      -6.859  17.298  68.880  1.00  0.00    -0.226 C  
HETATM   10  C   UNL     1      -6.519  18.436  68.260  1.00  0.00    -0.205 C  
HETATM   11  C   UNL     1      -5.802  19.460  68.944  1.00  0.00    -0.223 C  
HETATM   12  N   UNL     1      -5.209  20.282  69.507  1.00  0.00    -0.223 NA 
ENDBRANCH   4   9
BRANCH   5  13
HETATM   13  N   UNL     1      -9.437  12.461  67.243  1.00  0.00    -0.187 NA 
HETATM   14  H   UNL     1      -9.901  12.105  68.078  1.00  0.00     0.000 HD 
BRANCH  13  15
HETATM   15  C   UNL     1      -9.563  11.636  66.102  1.00  0.00    -0.232 A  
HETATM   16  C   UNL     1     -10.041  12.199  64.938  1.00  0.00    -0.280 A  
HETATM   17  C   UNL     1     -10.138  11.366  63.850  1.00  0.00    -0.345 A  
HETATM   18  N   UNL     1      -9.780  10.070  63.874  1.00  0.00    -0.174 NA 
HETATM   19  C   UNL     1      -9.330   9.594  65.043  1.00  0.00    -0.255 A  
HETATM   20  N   UNL     1      -9.210  10.347  66.147  1.00  0.00    -0.164 NA 
BRANCH  19  21
HETATM   21  N   UNL     1      -8.986   8.240  65.058  1.00  0.00    -0.398 NA 
HETATM   22  H   UNL     1      -8.606   7.891  64.178  1.00  0.00     0.000 HD 
BRANCH  21  23
HETATM   23  C   UNL     1      -9.073   7.279  66.074  1.00  0.00    -0.075 A  
HETATM   24  C   UNL     1      -8.162   6.228  66.219  1.00  0.00    -0.117 A  
HETATM   25  C   UNL     1      -8.251   5.312  67.266  1.00  0.00    -0.104 A  
HETATM   26  C   UNL     1      -9.286   5.423  68.195  1.00  0.00    -0.122 A  
HETATM   27  C   UNL     1      -9.349   4.506  69.292  1.00  0.00    -0.149 C  
HETATM   28  C   UNL     1     -10.240   6.427  68.043  1.00  0.00    -0.195 A  
HETATM   29  C   UNL     1     -10.138   7.343  66.988  1.00  0.00    -0.328 A  
HETATM   30  N   UNL     1      -9.384   3.767  70.189  1.00  0.00    -0.157 NA 
ENDBRANCH  21  23
ENDBRANCH  19  21
ENDBRANCH  13  15
ENDBRANCH   5  13
TORSDOF 5
ENDMDL
MODEL      161
REMARK 921   NORMALIZED FREE ENERGY PREDICTED BY IDOCK:   -4.34 KCAL/MOL
REMARK 922        TOTAL FREE ENERGY PREDICTED BY IDOCK:   -6.39 KCAL/MOL
REMARK 923 INTER-LIGAND FREE ENERGY PREDICTED BY IDOCK:   -6.88 KCAL/MOL
REMARK 924 INTRA-LIGAND FREE ENERGY PREDICTED BY IDOCK:    0.49 KCAL/MOL
REMARK 927      BINDING AFFINITY PREDICTED BY RF-SCORE:    0.00 PKD
ROOT
HETATM    1  C   UNL     1      -7.466   7.282  69.171  1.00  0.00    -0.093 C  
HETATM    2  C   UNL     1      -8.751   7.540  69.908  1.00  0.00    -0.140 A  
HETATM    3  C   UNL     1      -9.115   6.589  70.887  1.00  0.00    -0.154 A  
HETATM    4  C   UNL     1     -10.288   6.693  71.638  1.00  0.00    -0.227 A  
HETATM    5  C   UNL     1      -9.632   8.603  69.613  1.00  0.00    -0.170 A  
HETATM    6  C   UNL     1     -11.092   7.813  71.435  1.00  0.00    -0.268 A  
HETATM    7  C   UNL     1     -11.650   9.998  70.346  1.00  0.00    -0.379 C  
HETATM    8  C   UNL     1     -10.768   8.779  70.452  1.00  0.00    -0.254 A  
ENDROOT
BRANCH   4   9
HETATM    9  C   UNL     1     -10.620   5.573  72.537  1.00  0.00    -0.272 C  
HETATM   10  C   UNL     1     -10.224   4.300  72.409  1.00  0.00    -0.248 C  
HETATM   11  C   UNL     1     -10.657   3.299  73.326  1.00  0.00    -0.182 C  
HETATM   12  N   UNL     1     -11.024   2.491  74.073  1.00  0.00    -0.181 NA 
ENDBRANCH   4   9
BRANCH   5  13
HETATM   13  N   UNL     1      -9.475   9.420  68.462  1.00  0.00    -0.145 NA 
HETATM   14  H   UNL     1      -8.887   9.016  67.732  1.00  0.00     0.000 HD 
BRANCH  13  15
HETATM   15  C   UNL     1      -9.996  10.697  68.157  1.00  0.00    -0.158 A  
HETATM   16  C   UNL     1     -11.145  10.771  67.399  1.00  0.00    -0.363 A  
HETATM   17  C   UNL     1     -11.625  12.031  67.134  1.00  0.00    -0.316 A  
HETATM   18  N   UNL     1     -11.045  13.155  67.588  1.00  0.00    -0.261 NA 
HETATM   19  C   UNL     1      -9.928  13.004  68.314  1.00  0.00    -0.235 A  
HETATM   20  N   UNL     1      -9.401  11.806  68.610  1.00  0.00    -0.140 NA 
BRANCH  19  21
HETATM   21  N   UNL     1      -9.325  14.183  68.756  1.00  0.00    -0.354 NA 
HETATM   22  H   UNL     1      -8.716  14.068  69.567  1.00  0.00     0.000 HD 
BRANCH  21  23
HETATM   23  C   UNL     1      -9.412  15.497  68.278  1.00  0.00    -0.200 A  
HETATM   24  C   UNL     1      -9.015  15.875  66.990  1.00  0.00    -0.239 A  
HETATM   25  C   UNL     1      -9.155  17.182  66.528  1.00  0.00    -0.294 A  
HETATM   26  C   UNL     1      -9.687  18.160  67.370  1.00  0.00    -0.296 A  
HETATM   27  C   UNL     1      -9.867  19.491  66.877  1.00  0.00    -0.369 C  
HETATM   28  C   UNL     1     -10.038  17.824  68.676  1.00  0.00    -0.384 A  
HETATM   29  C   UNL     1      -9.896  16.505  69.127  1.00  0.00    -0.254 A  
HETATM   30  N   UNL     1     -10.025  20.567  66.464  1.00  0.00    -0.307 NA 
ENDBRANCH  21  23
ENDBRANCH  19  21
ENDBRANCH  13  15
ENDBRANCH   5  13
TORSDOF 5
ENDMDL
MODEL      162
REMARK 921   NORMALIZED FREE ENERGY PREDICTED BY IDOCK:   -4.34 KCAL/MOL
REMARK 922        TOTAL FREE ENERGY PREDICTED BY IDOCK:   -6.39 KCAL/MOL
REMARK 923 INTER-LIGAND FREE ENERGY PREDICTED BY IDOCK:   -5.69 KCAL/MOL
REMARK 924 INTRA-LIGAND FREE ENERGY PREDICTED BY IDOCK:   -0.70 KCAL/MOL
REMARK 927      BINDING AFFINITY PREDICTED BY RF-SCORE:    0.00 PKD
ROOT
HETATM    1  C   UNL     1     -10.693   7.949  68.254  1.00  0.00    -0.088 C  
HETATM    2  C   UNL     1      -9.758   7.284  67.282  1.00  0.00    -0.204 A  
HETATM    3  C   UNL     1     -10.257   6.150  66.606  1.00  0.00    -0.237 A  
HETATM    4  C   UNL     1      -9.495   5.425  65.687  1.00  0.00    -0.060 A  
HETATM    5  C   UNL     1      -8.414   7.671  67.088  1.00  0.00    -0.121 A  
HETATM    6  C   UNL     1      -8.212   5.886  65.400  1.00  0.00    -0.139 A  
HETATM    7  C   UNL     1      -6.304   7.489  65.648  1.00  0.00    -0.042 C  
HETATM    8  C   UNL     1      -7.672   7.010  66.069  1.00  0.00    -0.099 A  
ENDROOT
BRANCH   4   9
HETATM    9  C   UNL     1     -10.084   4.187  65.143  1.00  0.00    -0.219 C  
HETATM   10  C   UNL     1     -10.225   3.871  63.849  1.00  0.00    -0.204 C  
HETATM   11  C   UNL     1     -10.858   2.657  63.453  1.00  0.00    -0.216 C  
HETATM   12  N   UNL     1     -11.384   1.671  63.143  1.00  0.00    -0.262 NA 
ENDBRANCH   4   9
BRANCH   5  13
HETATM   13  N   UNL     1      -7.765   8.608  67.935  1.00  0.00    -0.101 NA 
HETATM   14  H   UNL     1      -7.251   8.193  68.712  1.00  0.00     0.000 HD 
BRANCH  13  15
HETATM   15  C   UNL     1      -7.712  10.020  67.882  1.00  0.00    -0.090 A  
HETATM   16  C   UNL     1      -6.553  10.614  67.431  1.00  0.00    -0.071 A  
HETATM   17  C   UNL     1      -6.546  11.987  67.384  1.00  0.00    -0.134 A  
HETATM   18  N   UNL     1      -7.600  12.746  67.733  1.00  0.00    -0.126 NA 
HETATM   19  C   UNL     1      -8.690  12.096  68.166  1.00  0.00    -0.185 A  
HETATM   20  N   UNL     1      -8.768  10.759  68.240  1.00  0.00    -0.130 NA 
BRANCH  19  21
HETATM   21  N   UNL     1      -9.767  12.900  68.547  1.00  0.00    -0.370 NA 
HETATM   22  H   UNL     1     -10.495  12.412  69.068  1.00  0.00     0.000 HD 
BRANCH  21  23
HETATM   23  C   UNL     1     -10.017  14.262  68.338  1.00  0.00    -0.240 A  
HETATM   24  C   UNL     1      -9.904  15.230  69.342  1.00  0.00    -0.253 A  
HETATM   25  C   UNL     1     -10.118  16.584  69.092  1.00  0.00    -0.287 A  
HETATM   26  C   UNL     1     -10.476  17.002  67.810  1.00  0.00    -0.349 A  
HETATM   27  C   UNL     1     -10.654  18.397  67.547  1.00  0.00    -0.416 C  
HETATM   28  C   UNL     1     -10.651  16.054  66.803  1.00  0.00    -0.297 A  
HETATM   29  C   UNL     1     -10.429  14.696  67.066  1.00  0.00    -0.269 A  
HETATM   30  N   UNL     1     -10.781  19.534  67.340  1.00  0.00    -0.483 NA 
ENDBRANCH  21  23
ENDBRANCH  19  21
ENDBRANCH  13  15
ENDBRANCH   5  13
TORSDOF 5
ENDMDL
MODEL      163
REMARK 921   NORMALIZED FREE ENERGY PREDICTED BY IDOCK:   -4.33 KCAL/MOL
REMARK 922        TOTAL FREE ENERGY PREDICTED BY IDOCK:   -6.38 KCAL/MOL
REMARK 923 INTER-LIGAND FREE ENERGY PREDICTED BY IDOCK:   -5.45 KCAL/MOL
REMARK 924 INTRA-LIGAND FREE ENERGY PREDICTED BY IDOCK:   -0.93 KCAL/MOL
REMARK 927      BINDING AFFINITY PREDICTED BY RF-SCORE:    0.00 PKD
ROOT
HETATM    1  C   UNL     1     -10.186   9.686  68.380  1.00  0.00    -0.214 C  
HETATM    2  C   UNL     1      -8.699   9.800  68.194  1.00  0.00    -0.119 A  
HETATM    3  C   UNL     1      -8.003  10.570  69.151  1.00  0.00    -0.145 A  
HETATM    4  C   UNL     1      -6.622  10.773  69.095  1.00  0.00    -0.065 A  
HETATM    5  C   UNL     1      -7.998   9.270  67.089  1.00  0.00    -0.106 A  
HETATM    6  C   UNL     1      -5.913  10.141  68.076  1.00  0.00    -0.041 A  
HETATM    7  C   UNL     1      -5.732   8.663  66.062  1.00  0.00    -0.046 C  
HETATM    8  C   UNL     1      -6.579   9.374  67.088  1.00  0.00    -0.071 A  
ENDROOT
BRANCH   4   9
HETATM    9  C   UNL     1      -6.031  11.698  70.079  1.00  0.00    -0.152 C  
HETATM   10  C   UNL     1      -6.393  12.970  70.299  1.00  0.00     0.109 C  
HETATM   11  C   UNL     1      -5.704  13.776  71.252  1.00  0.00    -0.210 C  
HETATM   12  N   UNL     1      -5.130  14.425  72.022  1.00  0.00    -0.161 NA 
ENDBRANCH   4   9
BRANCH   5  13
HETATM   13  N   UNL     1      -8.665   8.740  65.952  1.00  0.00    -0.159 NA 
HETATM   14  H   UNL     1      -8.878   7.744  66.011  1.00  0.00     0.000 HD 
BRANCH  13  15
HETATM   15  C   UNL     1      -9.083   9.361  64.754  1.00  0.00    -0.193 A  
HETATM   16  C   UNL     1      -8.622   8.853  63.558  1.00  0.00    -0.104 A  
HETATM   17  C   UNL     1      -9.060   9.479  62.416  1.00  0.00    -0.238 A  
HETATM   18  N   UNL     1      -9.908  10.522  62.422  1.00  0.00    -0.051 NA 
HETATM   19  C   UNL     1     -10.310  10.963  63.623  1.00  0.00    -0.298 A  
HETATM   20  N   UNL     1      -9.921  10.404  64.779  1.00  0.00    -0.334 NA 
BRANCH  19  21
HETATM   21  N   UNL     1     -11.170  12.063  63.612  1.00  0.00    -0.439 NA 
HETATM   22  H   UNL     1     -12.038  11.915  63.096  1.00  0.00     0.000 HD 
BRANCH  21  23
HETATM   23  C   UNL     1     -11.047  13.334  64.187  1.00  0.00    -0.365 A  
HETATM   24  C   UNL     1     -10.050  13.667  65.111  1.00  0.00    -0.298 A  
HETATM   25  C   UNL     1      -9.927  14.954  65.633  1.00  0.00    -0.389 A  
HETATM   26  C   UNL     1     -10.829  15.946  65.248  1.00  0.00    -0.401 A  
HETATM   27  C   UNL     1     -10.673  17.275  65.753  1.00  0.00    -0.131 C  
HETATM   28  C   UNL     1     -11.865  15.628  64.372  1.00  0.00    -0.183 A  
HETATM   29  C   UNL     1     -11.976  14.333  63.851  1.00  0.00    -0.219 A  
HETATM   30  N   UNL     1     -10.530  18.356  66.158  1.00  0.00    -0.428 NA 
ENDBRANCH  21  23
ENDBRANCH  19  21
ENDBRANCH  13  15
ENDBRANCH   5  13
TORSDOF 5
ENDMDL
MODEL      164
REMARK 921   NORMALIZED FREE ENERGY PREDICTED BY IDOCK:   -4.26 KCAL/MOL
REMARK 922        TOTAL FREE ENERGY PREDICTED BY IDOCK:   -6.29 KCAL/MOL
REMARK 923 INTER-LIGAND FREE ENERGY PREDICTED BY IDOCK:   -5.24 KCAL/MOL
REMARK 924 INTRA-LIGAND FREE ENERGY PREDICTED BY IDOCK:   -1.04 KCAL/MOL
REMARK 927      BINDING AFFINITY PREDICTED BY RF-SCORE:    0.00 PKD
ROOT
HETATM    1  C   UNL     1     -11.430   8.673  72.150  1.00  0.00    -0.443 C  
HETATM    2  C   UNL     1     -10.616   9.320  71.064  1.00  0.00    -0.386 A  
HETATM    3  C   UNL     1     -11.332  10.062  70.100  1.00  0.00    -0.357 A  
HETATM    4  C   UNL     1     -10.709  10.704  69.027  1.00  0.00    -0.257 A  
HETATM    5  C   UNL     1      -9.223   9.148  70.912  1.00  0.00    -0.261 A  
HETATM    6  C   UNL     1      -9.318  10.641  68.952  1.00  0.00    -0.191 A  
HETATM    7  C   UNL     1      -7.063   9.936  69.783  1.00  0.00    -0.106 C  
HETATM    8  C   UNL     1      -8.568   9.893  69.891  1.00  0.00    -0.216 A  
ENDROOT
BRANCH   4   9
HETATM    9  C   UNL     1     -11.575  11.340  68.019  1.00  0.00    -0.343 C  
HETATM   10  C   UNL     1     -11.217  11.730  66.788  1.00  0.00    -0.388 C  
HETATM   11  C   UNL     1     -12.145  12.381  65.923  1.00  0.00    -0.281 C  
HETATM   12  N   UNL     1     -12.905  12.918  65.233  1.00  0.00    -0.715 NA 
ENDBRANCH   4   9
BRANCH   5  13
HETATM   13  N   UNL     1      -8.491   8.192  71.665  1.00  0.00    -0.124 NA 
HETATM   14  H   UNL     1      -7.991   8.576  72.467  1.00  0.00     0.000 HD 
BRANCH  13  15
HETATM   15  C   UNL     1      -8.339   6.798  71.489  1.00  0.00    -0.115 A  
HETATM   16  C   UNL     1      -8.946   5.954  72.395  1.00  0.00    -0.137 A  
HETATM   17  C   UNL     1      -8.783   4.607  72.183  1.00  0.00    -0.119 A  
HETATM   18  N   UNL     1      -8.091   4.098  71.148  1.00  0.00    -0.071 NA 
HETATM   19  C   UNL     1      -7.525   4.980  70.312  1.00  0.00    -0.059 A  
HETATM   20  N   UNL     1      -7.640   6.309  70.458  1.00  0.00    -0.094 NA 
BRANCH  19  21
HETATM   21  N   UNL     1      -6.790   4.435  69.258  1.00  0.00    -0.045 NA 
HETATM   22  H   UNL     1      -5.962   3.914  69.545  1.00  0.00     0.000 HD 
BRANCH  21  23
HETATM   23  C   UNL     1      -6.995   4.482  67.872  1.00  0.00    -0.056 A  
HETATM   24  C   UNL     1      -5.954   4.442  66.938  1.00  0.00    -0.024 A  
HETATM   25  C   UNL     1      -6.192   4.446  65.565  1.00  0.00    -0.027 A  
HETATM   26  C   UNL     1      -7.503   4.512  65.091  1.00  0.00    -0.076 A  
HETATM   27  C   UNL     1      -7.745   4.473  63.681  1.00  0.00    -0.068 C  
HETATM   28  C   UNL     1      -8.557   4.609  65.998  1.00  0.00    -0.115 A  
HETATM   29  C   UNL     1      -8.304   4.599  67.376  1.00  0.00    -0.104 A  
HETATM   30  N   UNL     1      -7.934   4.427  62.535  1.00  0.00    -0.065 NA 
ENDBRANCH  21  23
ENDBRANCH  19  21
ENDBRANCH  13  15
ENDBRANCH   5  13
TORSDOF 5
ENDMDL
MODEL      165
REMARK 921   NORMALIZED FREE ENERGY PREDICTED BY IDOCK:   -4.24 KCAL/MOL
REMARK 922        TOTAL FREE ENERGY PREDICTED BY IDOCK:   -6.27 KCAL/MOL
REMARK 923 INTER-LIGAND FREE ENERGY PREDICTED BY IDOCK:   -5.28 KCAL/MOL
REMARK 924 INTRA-LIGAND FREE ENERGY PREDICTED BY IDOCK:   -0.99 KCAL/MOL
REMARK 927      BINDING AFFINITY PREDICTED BY RF-SCORE:    0.00 PKD
ROOT
HETATM    1  C   UNL     1     -10.851   8.914  68.681  1.00  0.00    -0.036 C  
HETATM    2  C   UNL     1      -9.608   8.076  68.787  1.00  0.00    -0.149 A  
HETATM    3  C   UNL     1      -8.951   8.082  70.037  1.00  0.00    -0.144 A  
HETATM    4  C   UNL     1      -7.777   7.363  70.275  1.00  0.00    -0.093 A  
HETATM    5  C   UNL     1      -9.030   7.379  67.703  1.00  0.00    -0.126 A  
HETATM    6  C   UNL     1      -7.280   6.571  69.241  1.00  0.00    -0.090 A  
HETATM    7  C   UNL     1      -7.344   5.613  66.928  1.00  0.00    -0.079 C  
HETATM    8  C   UNL     1      -7.902   6.552  67.970  1.00  0.00    -0.105 A  
ENDROOT
BRANCH   4   9
HETATM    9  C   UNL     1      -7.118   7.550  71.580  1.00  0.00    -0.062 C  
HETATM   10  C   UNL     1      -6.376   8.600  71.958  1.00  0.00    -0.073 C  
HETATM   11  C   UNL     1      -5.751   8.637  73.238  1.00  0.00    -0.094 C  
HETATM   12  N   UNL     1      -5.239   8.650  74.278  1.00  0.00    -0.089 NA 
ENDBRANCH   4   9
BRANCH   5  13
HETATM   13  N   UNL     1      -9.469   7.560  66.365  1.00  0.00    -0.304 NA 
HETATM   14  H   UNL     1     -10.075   6.819  66.013  1.00  0.00     0.000 HD 
BRANCH  13  15
HETATM   15  C   UNL     1      -9.208   8.595  65.440  1.00  0.00    -0.035 A  
HETATM   16  C   UNL     1      -8.280   8.366  64.445  1.00  0.00    -0.141 A  
HETATM   17  C   UNL     1      -8.064   9.394  63.560  1.00  0.00    -0.157 A  
HETATM   18  N   UNL     1      -8.715  10.569  63.615  1.00  0.00    -0.183 NA 
HETATM   19  C   UNL     1      -9.598  10.720  64.613  1.00  0.00    -0.268 A  
HETATM   20  N   UNL     1      -9.859   9.761  65.515  1.00  0.00    -0.310 NA 
BRANCH  19  21
HETATM   21  N   UNL     1     -10.247  11.955  64.670  1.00  0.00    -0.269 NA 
HETATM   22  H   UNL     1     -10.594  12.292  63.772  1.00  0.00     0.000 HD 
BRANCH  21  23
HETATM   23  C   UNL     1     -10.502  12.811  65.749  1.00  0.00    -0.276 A  
HETATM   24  C   UNL     1      -9.538  13.157  66.702  1.00  0.00    -0.260 A  
HETATM   25  C   UNL     1      -9.811  14.046  67.741  1.00  0.00    -0.232 A  
HETATM   26  C   UNL     1     -11.086  14.601  67.859  1.00  0.00    -0.301 A  
HETATM   27  C   UNL     1     -11.349  15.545  68.901  1.00  0.00    -0.324 C  
HETATM   28  C   UNL     1     -12.081  14.231  66.957  1.00  0.00    -0.424 A  
HETATM   29  C   UNL     1     -11.793  13.340  65.915  1.00  0.00    -0.436 A  
HETATM   30  N   UNL     1     -11.550  16.322  69.742  1.00  0.00    -0.219 NA 
ENDBRANCH  21  23
ENDBRANCH  19  21
ENDBRANCH  13  15
ENDBRANCH   5  13
TORSDOF 5
ENDMDL
MODEL      166
REMARK 921   NORMALIZED FREE ENERGY PREDICTED BY IDOCK:   -4.20 KCAL/MOL
REMARK 922        TOTAL FREE ENERGY PREDICTED BY IDOCK:   -6.21 KCAL/MOL
REMARK 923 INTER-LIGAND FREE ENERGY PREDICTED BY IDOCK:   -5.33 KCAL/MOL
REMARK 924 INTRA-LIGAND FREE ENERGY PREDICTED BY IDOCK:   -0.89 KCAL/MOL
REMARK 927      BINDING AFFINITY PREDICTED BY RF-SCORE:    0.00 PKD
ROOT
HETATM    1  C   UNL     1      -6.229   7.741  69.420  1.00  0.00    -0.034 C  
HETATM    2  C   UNL     1      -7.723   7.902  69.364  1.00  0.00    -0.105 A  
HETATM    3  C   UNL     1      -8.477   7.061  70.211  1.00  0.00    -0.138 A  
HETATM    4  C   UNL     1      -9.873   7.091  70.253  1.00  0.00    -0.180 A  
HETATM    5  C   UNL     1      -8.392   8.759  68.464  1.00  0.00    -0.129 A  
HETATM    6  C   UNL     1     -10.527   8.030  69.458  1.00  0.00    -0.226 A  
HETATM    7  C   UNL     1     -10.582   9.916  67.812  1.00  0.00    -0.313 C  
HETATM    8  C   UNL     1      -9.805   8.878  68.584  1.00  0.00    -0.179 A  
ENDROOT
BRANCH   4   9
HETATM    9  C   UNL     1     -10.550   6.079  71.085  1.00  0.00    -0.303 C  
HETATM   10  C   UNL     1     -10.751   6.136  72.409  1.00  0.00    -0.267 C  
HETATM   11  C   UNL     1     -11.379   5.063  73.104  1.00  0.00    -0.321 C  
HETATM   12  N   UNL     1     -11.883   4.179  73.660  1.00  0.00     0.012 NA 
ENDBRANCH   4   9
BRANCH   5  13
HETATM   13  N   UNL     1      -7.720   9.411  67.396  1.00  0.00    -0.095 NA 
HETATM   14  H   UNL     1      -7.751   8.912  66.507  1.00  0.00     0.000 HD 
BRANCH  13  15
HETATM   15  C   UNL     1      -7.014  10.635  67.359  1.00  0.00    -0.082 A  
HETATM   16  C   UNL     1      -5.866  10.706  66.599  1.00  0.00    -0.074 A  
HETATM   17  C   UNL     1      -5.217  11.916  66.581  1.00  0.00     0.014 A  
HETATM   18  N   UNL     1      -5.654  13.002  67.241  1.00  0.00    -0.351 NA 
HETATM   19  C   UNL     1      -6.775  12.855  67.963  1.00  0.00    -0.109 A  
HETATM   20  N   UNL     1      -7.460  11.703  68.029  1.00  0.00    -0.093 NA 
BRANCH  19  21
HETATM   21  N   UNL     1      -7.202  13.985  68.662  1.00  0.00    -0.109 NA 
HETATM   22  H   UNL     1      -6.940  13.997  69.648  1.00  0.00     0.000 HD 
BRANCH  21  23
HETATM   23  C   UNL     1      -7.929  15.107  68.242  1.00  0.00    -0.129 A  
HETATM   24  C   UNL     1      -8.616  15.167  67.024  1.00  0.00    -0.265 A  
HETATM   25  C   UNL     1      -9.367  16.282  66.654  1.00  0.00    -0.272 A  
HETATM   26  C   UNL     1      -9.429  17.387  67.503  1.00  0.00    -0.250 A  
HETATM   27  C   UNL     1     -10.234  18.512  67.138  1.00  0.00    -0.378 C  
HETATM   28  C   UNL     1      -8.709  17.377  68.696  1.00  0.00    -0.261 A  
HETATM   29  C   UNL     1      -7.961  16.249  69.059  1.00  0.00    -0.238 A  
HETATM   30  N   UNL     1     -10.903  19.415  66.840  1.00  0.00    -0.449 NA 
ENDBRANCH  21  23
ENDBRANCH  19  21
ENDBRANCH  13  15
ENDBRANCH   5  13
TORSDOF 5
ENDMDL
MODEL      167
REMARK 921   NORMALIZED FREE ENERGY PREDICTED BY IDOCK:   -4.16 KCAL/MOL
REMARK 922        TOTAL FREE ENERGY PREDICTED BY IDOCK:   -6.16 KCAL/MOL
REMARK 923 INTER-LIGAND FREE ENERGY PREDICTED BY IDOCK:   -5.69 KCAL/MOL
REMARK 924 INTRA-LIGAND FREE ENERGY PREDICTED BY IDOCK:   -0.47 KCAL/MOL
REMARK 927      BINDING AFFINITY PREDICTED BY RF-SCORE:    0.00 PKD
ROOT
HETATM    1  C   UNL     1      -6.480   8.362  69.170  1.00  0.00    -0.043 C  
HETATM    2  C   UNL     1      -7.959   8.445  69.429  1.00  0.00    -0.112 A  
HETATM    3  C   UNL     1      -8.511   7.438  70.250  1.00  0.00    -0.136 A  
HETATM    4  C   UNL     1      -9.871   7.381  70.562  1.00  0.00    -0.180 A  
HETATM    5  C   UNL     1      -8.814   9.398  68.832  1.00  0.00    -0.136 A  
HETATM    6  C   UNL     1     -10.692   8.398  70.078  1.00  0.00    -0.236 A  
HETATM    7  C   UNL     1     -11.116  10.519  68.816  1.00  0.00    -0.315 C  
HETATM    8  C   UNL     1     -10.178   9.415  69.238  1.00  0.00    -0.209 A  
ENDROOT
BRANCH   4   9
HETATM    9  C   UNL     1     -10.345   6.211  71.324  1.00  0.00    -0.264 C  
HETATM   10  C   UNL     1     -10.395   6.092  72.658  1.00  0.00    -0.222 C  
HETATM   11  C   UNL     1     -10.831   4.882  73.272  1.00  0.00    -0.289 C  
HETATM   12  N   UNL     1     -11.179   3.890  73.761  1.00  0.00    -0.202 NA 
ENDBRANCH   4   9
BRANCH   5  13
HETATM   13  N   UNL     1      -8.381  10.250  67.782  1.00  0.00    -0.110 NA 
HETATM   14  H   UNL     1      -8.627   9.929  66.846  1.00  0.00     0.000 HD 
BRANCH  13  15
HETATM   15  C   UNL     1      -7.668  11.470  67.817  1.00  0.00    -0.124 A  
HETATM   16  C   UNL     1      -6.385  11.492  67.312  1.00  0.00    -0.107 A  
HETATM   17  C   UNL     1      -5.730  12.698  67.355  1.00  0.00    -0.104 A  
HETATM   18  N   UNL     1      -6.282  13.825  67.837  1.00  0.00    -0.144 NA 
HETATM   19  C   UNL     1      -7.532  13.724  68.315  1.00  0.00    -0.120 A  
HETATM   20  N   UNL     1      -8.231  12.579  68.308  1.00  0.00    -0.168 NA 
BRANCH  19  21
HETATM   21  N   UNL     1      -8.081  14.898  68.835  1.00  0.00    -0.158 NA 
HETATM   22  H   UNL     1      -9.042  14.805  69.164  1.00  0.00     0.000 HD 
BRANCH  21  23
HETATM   23  C   UNL     1      -7.539  16.181  68.982  1.00  0.00    -0.213 A  
HETATM   24  C   UNL     1      -8.161  17.339  68.502  1.00  0.00    -0.267 A  
HETATM   25  C   UNL     1      -7.618  18.607  68.703  1.00  0.00    -0.341 A  
HETATM   26  C   UNL     1      -6.407  18.741  69.383  1.00  0.00    -0.293 A  
HETATM   27  C   UNL     1      -5.874  20.047  69.623  1.00  0.00    -0.309 C  
HETATM   28  C   UNL     1      -5.738  17.601  69.823  1.00  0.00    -0.235 A  
HETATM   29  C   UNL     1      -6.296  16.332  69.619  1.00  0.00    -0.198 A  
HETATM   30  N   UNL     1      -5.456  21.113  69.826  1.00  0.00    -0.454 NA 
ENDBRANCH  21  23
ENDBRANCH  19  21
ENDBRANCH  13  15
ENDBRANCH   5  13
TORSDOF 5
ENDMDL
MODEL      168
REMARK 921   NORMALIZED FREE ENERGY PREDICTED BY IDOCK:   -4.16 KCAL/MOL
REMARK 922        TOTAL FREE ENERGY PREDICTED BY IDOCK:   -6.16 KCAL/MOL
REMARK 923 INTER-LIGAND FREE ENERGY PREDICTED BY IDOCK:   -5.12 KCAL/MOL
REMARK 924 INTRA-LIGAND FREE ENERGY PREDICTED BY IDOCK:   -1.04 KCAL/MOL
REMARK 927      BINDING AFFINITY PREDICTED BY RF-SCORE:    0.00 PKD
ROOT
HETATM    1  C   UNL     1      -8.127   9.386  70.556  1.00  0.00    -0.212 C  
HETATM    2  C   UNL     1      -7.610   9.176  69.160  1.00  0.00    -0.073 A  
HETATM    3  C   UNL     1      -8.024   7.995  68.507  1.00  0.00    -0.120 A  
HETATM    4  C   UNL     1      -7.610   7.664  67.215  1.00  0.00    -0.108 A  
HETATM    5  C   UNL     1      -6.682  10.031  68.525  1.00  0.00    -0.054 A  
HETATM    6  C   UNL     1      -6.798   8.573  66.540  1.00  0.00    -0.071 A  
HETATM    7  C   UNL     1      -5.533  10.726  66.344  1.00  0.00    -0.091 C  
HETATM    8  C   UNL     1      -6.349   9.760  67.168  1.00  0.00    -0.068 A  
ENDROOT
BRANCH   4   9
HETATM    9  C   UNL     1      -8.008   6.345  66.691  1.00  0.00    -0.109 C  
HETATM   10  C   UNL     1      -9.198   6.018  66.168  1.00  0.00    -0.154 C  
HETATM   11  C   UNL     1      -9.473   4.687  65.739  1.00  0.00    -0.173 C  
HETATM   12  N   UNL     1      -9.688   3.598  65.403  1.00  0.00    -0.159 NA 
ENDBRANCH   4   9
BRANCH   5  13
HETATM   13  N   UNL     1      -6.007  11.068  69.221  1.00  0.00    -0.043 NA 
HETATM   14  H   UNL     1      -5.126  10.787  69.651  1.00  0.00     0.000 HD 
BRANCH  13  15
HETATM   15  C   UNL     1      -6.352  12.424  69.418  1.00  0.00    -0.119 A  
HETATM   16  C   UNL     1      -5.472  13.229  70.112  1.00  0.00    -0.115 A  
HETATM   17  C   UNL     1      -5.840  14.543  70.272  1.00  0.00    -0.148 A  
HETATM   18  N   UNL     1      -6.978  15.059  69.779  1.00  0.00    -0.186 NA 
HETATM   19  C   UNL     1      -7.786  14.215  69.121  1.00  0.00     0.023 A  
HETATM   20  N   UNL     1      -7.494  12.919  68.928  1.00  0.00    -0.038 NA 
BRANCH  19  21
HETATM   21  N   UNL     1      -8.976  14.762  68.637  1.00  0.00    -0.181 NA 
HETATM   22  H   UNL     1      -9.356  15.518  69.207  1.00  0.00     0.000 HD 
BRANCH  21  23
HETATM   23  C   UNL     1      -9.738  14.450  67.503  1.00  0.00    -0.215 A  
HETATM   24  C   UNL     1     -10.715  13.449  67.484  1.00  0.00    -0.263 A  
HETATM   25  C   UNL     1     -11.487  13.193  66.352  1.00  0.00    -0.374 A  
HETATM   26  C   UNL     1     -11.277  13.934  65.189  1.00  0.00    -0.326 A  
HETATM   27  C   UNL     1     -12.101  13.696  64.043  1.00  0.00    -0.425 C  
HETATM   28  C   UNL     1     -10.272  14.899  65.163  1.00  0.00    -0.409 A  
HETATM   29  C   UNL     1      -9.506  15.151  66.308  1.00  0.00    -0.341 A  
HETATM   30  N   UNL     1     -12.784  13.506  63.122  1.00  0.00    -0.565 NA 
ENDBRANCH  21  23
ENDBRANCH  19  21
ENDBRANCH  13  15
ENDBRANCH   5  13
TORSDOF 5
ENDMDL
MODEL      169
REMARK 921   NORMALIZED FREE ENERGY PREDICTED BY IDOCK:   -4.15 KCAL/MOL
REMARK 922        TOTAL FREE ENERGY PREDICTED BY IDOCK:   -6.14 KCAL/MOL
REMARK 923 INTER-LIGAND FREE ENERGY PREDICTED BY IDOCK:   -5.40 KCAL/MOL
REMARK 924 INTRA-LIGAND FREE ENERGY PREDICTED BY IDOCK:   -0.74 KCAL/MOL
REMARK 927      BINDING AFFINITY PREDICTED BY RF-SCORE:    0.00 PKD
ROOT
HETATM    1  C   UNL     1      -5.837   8.028  69.418  1.00  0.00    -0.030 C  
HETATM    2  C   UNL     1      -7.272   7.637  69.199  1.00  0.00    -0.080 A  
HETATM    3  C   UNL     1      -7.733   6.511  69.917  1.00  0.00    -0.109 A  
HETATM    4  C   UNL     1      -9.038   6.026  69.800  1.00  0.00    -0.145 A  
HETATM    5  C   UNL     1      -8.129   8.264  68.268  1.00  0.00    -0.124 A  
HETATM    6  C   UNL     1      -9.920   6.725  68.978  1.00  0.00    -0.161 A  
HETATM    7  C   UNL     1     -10.523   8.593  67.423  1.00  0.00    -0.351 C  
HETATM    8  C   UNL     1      -9.490   7.848  68.231  1.00  0.00    -0.149 A  
ENDROOT
BRANCH   4   9
HETATM    9  C   UNL     1      -9.361   4.771  70.503  1.00  0.00    -0.219 C  
HETATM   10  C   UNL     1      -9.003   3.533  70.135  1.00  0.00    -0.174 C  
HETATM   11  C   UNL     1      -9.425   2.394  70.880  1.00  0.00    -0.144 C  
HETATM   12  N   UNL     1      -9.782   1.474  71.488  1.00  0.00    -0.126 NA 
ENDBRANCH   4   9
BRANCH   5  13
HETATM   13  N   UNL     1      -7.654   9.203  67.315  1.00  0.00    -0.088 NA 
HETATM   14  H   UNL     1      -7.351   8.794  66.431  1.00  0.00     0.000 HD 
BRANCH  13  15
HETATM   15  C   UNL     1      -7.530  10.609  67.386  1.00  0.00    -0.094 A  
HETATM   16  C   UNL     1      -6.276  11.163  67.243  1.00  0.00    -0.073 A  
HETATM   17  C   UNL     1      -6.200  12.533  67.307  1.00  0.00    -0.122 A  
HETATM   18  N   UNL     1      -7.271  13.327  67.480  1.00  0.00    -0.160 NA 
HETATM   19  C   UNL     1      -8.457  12.715  67.617  1.00  0.00    -0.173 A  
HETATM   20  N   UNL     1      -8.606  11.383  67.567  1.00  0.00    -0.134 NA 
BRANCH  19  21
HETATM   21  N   UNL     1      -9.555  13.553  67.821  1.00  0.00    -0.212 NA 
HETATM   22  H   UNL     1     -10.380  13.085  68.196  1.00  0.00     0.000 HD 
BRANCH  21  23
HETATM   23  C   UNL     1      -9.718  14.927  67.598  1.00  0.00    -0.212 A  
HETATM   24  C   UNL     1      -9.789  15.871  68.628  1.00  0.00    -0.212 A  
HETATM   25  C   UNL     1      -9.907  17.236  68.373  1.00  0.00    -0.309 A  
HETATM   26  C   UNL     1      -9.980  17.690  67.056  1.00  0.00    -0.320 A  
HETATM   27  C   UNL     1     -10.059  19.095  66.798  1.00  0.00    -0.381 C  
HETATM   28  C   UNL     1      -9.968  16.767  66.011  1.00  0.00    -0.334 A  
HETATM   29  C   UNL     1      -9.844  15.398  66.280  1.00  0.00    -0.320 A  
HETATM   30  N   UNL     1     -10.109  20.239  66.597  1.00  0.00    -0.442 NA 
ENDBRANCH  21  23
ENDBRANCH  19  21
ENDBRANCH  13  15
ENDBRANCH   5  13
TORSDOF 5
ENDMDL
MODEL      170
REMARK 921   NORMALIZED FREE ENERGY PREDICTED BY IDOCK:   -4.13 KCAL/MOL
REMARK 922        TOTAL FREE ENERGY PREDICTED BY IDOCK:   -6.11 KCAL/MOL
REMARK 923 INTER-LIGAND FREE ENERGY PREDICTED BY IDOCK:   -5.06 KCAL/MOL
REMARK 924 INTRA-LIGAND FREE ENERGY PREDICTED BY IDOCK:   -1.05 KCAL/MOL
REMARK 927      BINDING AFFINITY PREDICTED BY RF-SCORE:    0.00 PKD
ROOT
HETATM    1  C   UNL     1     -10.545  10.423  69.806  1.00  0.00    -0.302 C  
HETATM    2  C   UNL     1      -9.929  10.111  68.471  1.00  0.00    -0.177 A  
HETATM    3  C   UNL     1     -10.442  10.818  67.362  1.00  0.00    -0.268 A  
HETATM    4  C   UNL     1      -9.975  10.619  66.060  1.00  0.00    -0.295 A  
HETATM    5  C   UNL     1      -8.957   9.107  68.264  1.00  0.00    -0.129 A  
HETATM    6  C   UNL     1      -8.925   9.721  65.877  1.00  0.00    -0.189 A  
HETATM    7  C   UNL     1      -7.213   8.085  66.693  1.00  0.00    -0.081 C  
HETATM    8  C   UNL     1      -8.396   8.982  66.962  1.00  0.00    -0.116 A  
ENDROOT
BRANCH   4   9
HETATM    9  C   UNL     1     -10.676  11.324  64.972  1.00  0.00    -0.322 C  
HETATM   10  C   UNL     1     -11.338  12.485  65.067  1.00  0.00    -0.353 C  
HETATM   11  C   UNL     1     -12.018  13.039  63.943  1.00  0.00    -0.485 C  
HETATM   12  N   UNL     1     -12.575  13.474  63.024  1.00  0.00    -0.589 NA 
ENDBRANCH   4   9
BRANCH   5  13
HETATM   13  N   UNL     1      -8.610   8.170  69.273  1.00  0.00    -0.134 NA 
HETATM   14  H   UNL     1      -7.821   8.447  69.856  1.00  0.00     0.000 HD 
BRANCH  13  15
HETATM   15  C   UNL     1      -9.176   6.918  69.605  1.00  0.00    -0.146 A  
HETATM   16  C   UNL     1     -10.038   6.853  70.679  1.00  0.00    -0.208 A  
HETATM   17  C   UNL     1     -10.574   5.621  70.962  1.00  0.00    -0.249 A  
HETATM   18  N   UNL     1     -10.312   4.516  70.242  1.00  0.00    -0.061 NA 
HETATM   19  C   UNL     1      -9.460   4.656  69.216  1.00  0.00    -0.162 A  
HETATM   20  N   UNL     1      -8.897   5.827  68.882  1.00  0.00    -0.110 NA 
BRANCH  19  21
HETATM   21  N   UNL     1      -9.179   3.494  68.494  1.00  0.00    -0.152 NA 
HETATM   22  H   UNL     1      -9.533   2.637  68.919  1.00  0.00     0.000 HD 
BRANCH  21  23
HETATM   23  C   UNL     1      -8.495   3.303  67.287  1.00  0.00    -0.099 A  
HETATM   24  C   UNL     1      -7.180   2.829  67.214  1.00  0.00    -0.053 A  
HETATM   25  C   UNL     1      -6.541   2.609  65.995  1.00  0.00    -0.028 A  
HETATM   26  C   UNL     1      -7.212   2.883  64.802  1.00  0.00    -0.062 A  
HETATM   27  C   UNL     1      -6.567   2.615  63.553  1.00  0.00    -0.030 C  
HETATM   28  C   UNL     1      -8.501   3.409  64.846  1.00  0.00    -0.101 A  
HETATM   29  C   UNL     1      -9.135   3.622  66.077  1.00  0.00    -0.155 A  
HETATM   30  N   UNL     1      -6.041   2.381  62.544  1.00  0.00    -0.009 NA 
ENDBRANCH  21  23
ENDBRANCH  19  21
ENDBRANCH  13  15
ENDBRANCH   5  13
TORSDOF 5
ENDMDL
MODEL      171
REMARK 921   NORMALIZED FREE ENERGY PREDICTED BY IDOCK:   -4.10 KCAL/MOL
REMARK 922        TOTAL FREE ENERGY PREDICTED BY IDOCK:   -6.08 KCAL/MOL
REMARK 923 INTER-LIGAND FREE ENERGY PREDICTED BY IDOCK:   -5.10 KCAL/MOL
REMARK 924 INTRA-LIGAND FREE ENERGY PREDICTED BY IDOCK:   -0.98 KCAL/MOL
REMARK 927      BINDING AFFINITY PREDICTED BY RF-SCORE:    0.00 PKD
ROOT
HETATM    1  C   UNL     1      -7.227   9.132  70.457  1.00  0.00    -0.097 C  
HETATM    2  C   UNL     1      -8.689   8.862  70.684  1.00  0.00    -0.230 A  
HETATM    3  C   UNL     1      -9.027   7.562  71.121  1.00  0.00    -0.144 A  
HETATM    4  C   UNL     1     -10.345   7.166  71.357  1.00  0.00    -0.210 A  
HETATM    5  C   UNL     1      -9.717   9.787  70.400  1.00  0.00    -0.184 A  
HETATM    6  C   UNL     1     -11.348   8.121  71.201  1.00  0.00    -0.299 A  
HETATM    7  C   UNL     1     -12.182  10.423  70.677  1.00  0.00    -0.441 C  
HETATM    8  C   UNL     1     -11.050   9.429  70.750  1.00  0.00    -0.365 A  
ENDROOT
BRANCH   4   9
HETATM    9  C   UNL     1     -10.580   5.749  71.687  1.00  0.00    -0.302 C  
HETATM   10  C   UNL     1     -10.055   5.069  72.716  1.00  0.00    -0.214 C  
HETATM   11  C   UNL     1     -10.325   3.682  72.897  1.00  0.00    -0.166 C  
HETATM   12  N   UNL     1     -10.545   2.551  73.028  1.00  0.00    -0.155 NA 
ENDBRANCH   4   9
BRANCH   5  13
HETATM   13  N   UNL     1      -9.476  10.995  69.694  1.00  0.00    -0.280 NA 
HETATM   14  H   UNL     1      -9.170  11.774  70.277  1.00  0.00     0.000 HD 
BRANCH  13  15
HETATM   15  C   UNL     1      -9.587  11.299  68.318  1.00  0.00    -0.193 A  
HETATM   16  C   UNL     1      -9.652  12.624  67.944  1.00  0.00    -0.211 A  
HETATM   17  C   UNL     1      -9.748  12.876  66.597  1.00  0.00    -0.254 A  
HETATM   18  N   UNL     1      -9.763  11.912  65.661  1.00  0.00    -0.233 NA 
HETATM   19  C   UNL     1      -9.702  10.647  66.102  1.00  0.00    -0.205 A  
HETATM   20  N   UNL     1      -9.609  10.325  67.401  1.00  0.00    -0.156 NA 
BRANCH  19  21
HETATM   21  N   UNL     1      -9.744   9.656  65.119  1.00  0.00    -0.422 NA 
HETATM   22  H   UNL     1     -10.440   9.813  64.390  1.00  0.00     0.000 HD 
BRANCH  21  23
HETATM   23  C   UNL     1      -8.993   8.484  64.961  1.00  0.00     0.050 A  
HETATM   24  C   UNL     1      -7.957   8.353  64.030  1.00  0.00    -0.151 A  
HETATM   25  C   UNL     1      -7.199   7.187  63.927  1.00  0.00    -0.077 A  
HETATM   26  C   UNL     1      -7.483   6.102  64.757  1.00  0.00    -0.084 A  
HETATM   27  C   UNL     1      -6.676   4.923  64.676  1.00  0.00    -0.048 C  
HETATM   28  C   UNL     1      -8.546   6.185  65.654  1.00  0.00    -0.148 A  
HETATM   29  C   UNL     1      -9.297   7.363  65.751  1.00  0.00     0.141 A  
HETATM   30  N   UNL     1      -6.006   3.975  64.615  1.00  0.00    -0.021 NA 
ENDBRANCH  21  23
ENDBRANCH  19  21
ENDBRANCH  13  15
ENDBRANCH   5  13
TORSDOF 5
ENDMDL
MODEL      172
REMARK 921   NORMALIZED FREE ENERGY PREDICTED BY IDOCK:   -4.07 KCAL/MOL
REMARK 922        TOTAL FREE ENERGY PREDICTED BY IDOCK:   -6.04 KCAL/MOL
REMARK 923 INTER-LIGAND FREE ENERGY PREDICTED BY IDOCK:   -5.14 KCAL/MOL
REMARK 924 INTRA-LIGAND FREE ENERGY PREDICTED BY IDOCK:   -0.91 KCAL/MOL
REMARK 927      BINDING AFFINITY PREDICTED BY RF-SCORE:    0.00 PKD
ROOT
HETATM    1  C   UNL     1     -12.270   9.366  71.622  1.00  0.00    -0.467 C  
HETATM    2  C   UNL     1     -11.050   9.673  70.800  1.00  0.00    -0.403 A  
HETATM    3  C   UNL     1     -11.258  10.432  69.627  1.00  0.00    -0.333 A  
HETATM    4  C   UNL     1     -10.219  10.779  68.761  1.00  0.00    -0.207 A  
HETATM    5  C   UNL     1      -9.760   9.175  71.083  1.00  0.00    -0.290 A  
HETATM    6  C   UNL     1      -8.925  10.397  69.111  1.00  0.00    -0.188 A  
HETATM    7  C   UNL     1      -7.245   9.311  70.617  1.00  0.00    -0.120 C  
HETATM    8  C   UNL     1      -8.680   9.621  70.270  1.00  0.00    -0.248 A  
ENDROOT
BRANCH   4   9
HETATM    9  C   UNL     1     -10.581  11.464  67.507  1.00  0.00    -0.252 C  
HETATM   10  C   UNL     1     -11.776  11.983  67.194  1.00  0.00    -0.344 C  
HETATM   11  C   UNL     1     -12.010  12.580  65.922  1.00  0.00    -0.409 C  
HETATM   12  N   UNL     1     -12.190  13.054  64.879  1.00  0.00    -0.414 NA 
ENDBRANCH   4   9
BRANCH   5  13
HETATM   13  N   UNL     1      -9.532   8.179  72.070  1.00  0.00    -0.192 NA 
HETATM   14  H   UNL     1      -9.198   8.538  72.965  1.00  0.00     0.000 HD 
BRANCH  13  15
HETATM   15  C   UNL     1      -9.690   6.776  72.020  1.00  0.00    -0.153 A  
HETATM   16  C   UNL     1     -10.917   6.244  72.358  1.00  0.00    -0.291 A  
HETATM   17  C   UNL     1     -11.032   4.877  72.287  1.00  0.00    -0.044 A  
HETATM   18  N   UNL     1     -10.033   4.068  71.895  1.00  0.00    -0.182 NA 
HETATM   19  C   UNL     1      -8.868   4.658  71.587  1.00  0.00    -0.125 A  
HETATM   20  N   UNL     1      -8.682   5.986  71.636  1.00  0.00    -0.135 NA 
BRANCH  19  21
HETATM   21  N   UNL     1      -7.834   3.802  71.206  1.00  0.00    -0.059 NA 
HETATM   22  H   UNL     1      -7.289   3.425  71.982  1.00  0.00     0.000 HD 
BRANCH  21  23
HETATM   23  C   UNL     1      -7.415   3.371  69.940  1.00  0.00    -0.044 A  
HETATM   24  C   UNL     1      -7.851   3.953  68.745  1.00  0.00    -0.063 A  
HETATM   25  C   UNL     1      -7.382   3.530  67.502  1.00  0.00    -0.059 A  
HETATM   26  C   UNL     1      -6.465   2.481  67.430  1.00  0.00    -0.035 A  
HETATM   27  C   UNL     1      -5.955   2.078  66.155  1.00  0.00    -0.022 C  
HETATM   28  C   UNL     1      -6.056   1.846  68.600  1.00  0.00    -0.024 A  
HETATM   29  C   UNL     1      -6.531   2.283  69.844  1.00  0.00    -0.029 A  
HETATM   30  N   UNL     1      -5.534   1.767  65.117  1.00  0.00    -0.005 NA 
ENDBRANCH  21  23
ENDBRANCH  19  21
ENDBRANCH  13  15
ENDBRANCH   5  13
TORSDOF 5
ENDMDL
MODEL      173
REMARK 921   NORMALIZED FREE ENERGY PREDICTED BY IDOCK:   -4.07 KCAL/MOL
REMARK 922        TOTAL FREE ENERGY PREDICTED BY IDOCK:   -6.04 KCAL/MOL
REMARK 923 INTER-LIGAND FREE ENERGY PREDICTED BY IDOCK:   -5.12 KCAL/MOL
REMARK 924 INTRA-LIGAND FREE ENERGY PREDICTED BY IDOCK:   -0.92 KCAL/MOL
REMARK 927      BINDING AFFINITY PREDICTED BY RF-SCORE:    0.00 PKD
ROOT
HETATM    1  C   UNL     1      -9.985   8.428  72.581  1.00  0.00    -0.329 C  
HETATM    2  C   UNL     1      -9.317   8.643  71.251  1.00  0.00    -0.288 A  
HETATM    3  C   UNL     1      -9.804   9.713  70.469  1.00  0.00    -0.294 A  
HETATM    4  C   UNL     1      -9.289  10.020  69.208  1.00  0.00    -0.224 A  
HETATM    5  C   UNL     1      -8.320   7.795  70.721  1.00  0.00    -0.116 A  
HETATM    6  C   UNL     1      -8.217   9.261  68.742  1.00  0.00    -0.112 A  
HETATM    7  C   UNL     1      -6.503   7.447  68.950  1.00  0.00    -0.040 C  
HETATM    8  C   UNL     1      -7.712   8.171  69.491  1.00  0.00    -0.102 A  
ENDROOT
BRANCH   4   9
HETATM    9  C   UNL     1      -9.965  11.079  68.437  1.00  0.00    -0.194 C  
HETATM   10  C   UNL     1     -11.123  10.969  67.772  1.00  0.00    -0.356 C  
HETATM   11  C   UNL     1     -11.647  12.061  67.021  1.00  0.00    -0.317 C  
HETATM   12  N   UNL     1     -12.059  12.954  66.406  1.00  0.00    -0.464 NA 
ENDBRANCH   4   9
BRANCH   5  13
HETATM   13  N   UNL     1      -7.990   6.549  71.317  1.00  0.00    -0.107 NA 
HETATM   14  H   UNL     1      -7.180   6.576  71.937  1.00  0.00     0.000 HD 
BRANCH  13  15
HETATM   15  C   UNL     1      -8.597   5.278  71.197  1.00  0.00    -0.124 A  
HETATM   16  C   UNL     1      -9.288   4.778  72.279  1.00  0.00    -0.158 A  
HETATM   17  C   UNL     1      -9.872   3.545  72.117  1.00  0.00    -0.168 A  
HETATM   18  N   UNL     1      -9.810   2.840  70.974  1.00  0.00    -0.077 NA 
HETATM   19  C   UNL     1      -9.115   3.389  69.967  1.00  0.00    -0.129 A  
HETATM   20  N   UNL     1      -8.518   4.587  70.054  1.00  0.00    -0.069 NA 
BRANCH  19  21
HETATM   21  N   UNL     1      -9.040   2.633  68.796  1.00  0.00    -0.135 NA 
HETATM   22  H   UNL     1      -8.777   1.658  68.938  1.00  0.00     0.000 HD 
BRANCH  21  23
HETATM   23  C   UNL     1      -9.264   2.984  67.458  1.00  0.00    -0.193 A  
HETATM   24  C   UNL     1      -8.791   2.233  66.375  1.00  0.00    -0.126 A  
HETATM   25  C   UNL     1      -9.068   2.585  65.055  1.00  0.00    -0.137 A  
HETATM   26  C   UNL     1      -9.822   3.728  64.788  1.00  0.00    -0.191 A  
HETATM   27  C   UNL     1     -10.139   4.062  63.433  1.00  0.00    -0.133 C  
HETATM   28  C   UNL     1     -10.258   4.525  65.845  1.00  0.00    -0.289 A  
HETATM   29  C   UNL     1      -9.977   4.159  67.167  1.00  0.00    -0.102 A  
HETATM   30  N   UNL     1     -10.404   4.318  62.331  1.00  0.00    -0.144 NA 
ENDBRANCH  21  23
ENDBRANCH  19  21
ENDBRANCH  13  15
ENDBRANCH   5  13
TORSDOF 5
ENDMDL
MODEL      174
REMARK 921   NORMALIZED FREE ENERGY PREDICTED BY IDOCK:   -4.06 KCAL/MOL
REMARK 922        TOTAL FREE ENERGY PREDICTED BY IDOCK:   -6.03 KCAL/MOL
REMARK 923 INTER-LIGAND FREE ENERGY PREDICTED BY IDOCK:   -5.22 KCAL/MOL
REMARK 924 INTRA-LIGAND FREE ENERGY PREDICTED BY IDOCK:   -0.81 KCAL/MOL
REMARK 927      BINDING AFFINITY PREDICTED BY RF-SCORE:    0.00 PKD
ROOT
HETATM    1  C   UNL     1      -9.090  12.422  66.938  1.00  0.00    -0.211 C  
HETATM    2  C   UNL     1      -8.545  13.599  67.699  1.00  0.00    -0.185 A  
HETATM    3  C   UNL     1      -9.150  14.848  67.442  1.00  0.00    -0.196 A  
HETATM    4  C   UNL     1      -8.736  16.028  68.065  1.00  0.00    -0.171 A  
HETATM    5  C   UNL     1      -7.428  13.534  68.561  1.00  0.00    -0.122 A  
HETATM    6  C   UNL     1      -7.719  15.940  69.013  1.00  0.00    -0.209 A  
HETATM    7  C   UNL     1      -6.036  14.683  70.377  1.00  0.00    -0.173 C  
HETATM    8  C   UNL     1      -7.077  14.707  69.285  1.00  0.00    -0.150 A  
ENDROOT
BRANCH   4   9
HETATM    9  C   UNL     1      -9.362  17.287  67.620  1.00  0.00    -0.237 C  
HETATM   10  C   UNL     1      -9.369  17.780  66.374  1.00  0.00    -0.264 C  
HETATM   11  C   UNL     1      -9.971  19.039  66.084  1.00  0.00    -0.364 C  
HETATM   12  N   UNL     1     -10.455  20.069  65.863  1.00  0.00    -0.461 NA 
ENDBRANCH   4   9
BRANCH   5  13
HETATM   13  N   UNL     1      -6.600  12.383  68.641  1.00  0.00    -0.073 NA 
HETATM   14  H   UNL     1      -5.877  12.330  67.924  1.00  0.00     0.000 HD 
BRANCH  13  15
HETATM   15  C   UNL     1      -6.608  11.300  69.549  1.00  0.00    -0.129 A  
HETATM   16  C   UNL     1      -5.519  11.132  70.378  1.00  0.00    -0.112 A  
HETATM   17  C   UNL     1      -5.572  10.074  71.253  1.00  0.00    -0.061 A  
HETATM   18  N   UNL     1      -6.620   9.237  71.340  1.00  0.00    -0.230 NA 
HETATM   19  C   UNL     1      -7.640   9.461  70.499  1.00  0.00    -0.150 A  
HETATM   20  N   UNL     1      -7.656  10.472  69.617  1.00  0.00    -0.150 NA 
BRANCH  19  21
HETATM   21  N   UNL     1      -8.708   8.567  70.586  1.00  0.00    -0.143 NA 
HETATM   22  H   UNL     1      -9.508   8.914  71.115  1.00  0.00     0.000 HD 
BRANCH  21  23
HETATM   23  C   UNL     1      -8.870   7.273  70.072  1.00  0.00    -0.141 A  
HETATM   24  C   UNL     1      -8.208   6.810  68.930  1.00  0.00    -0.121 A  
HETATM   25  C   UNL     1      -8.356   5.504  68.468  1.00  0.00    -0.101 A  
HETATM   26  C   UNL     1      -9.204   4.624  69.142  1.00  0.00    -0.184 A  
HETATM   27  C   UNL     1      -9.321   3.272  68.689  1.00  0.00    -0.169 C  
HETATM   28  C   UNL     1      -9.920   5.075  70.249  1.00  0.00    -0.325 A  
HETATM   29  C   UNL     1      -9.759   6.389  70.706  1.00  0.00    -0.197 A  
HETATM   30  N   UNL     1      -9.399   2.171  68.322  1.00  0.00    -0.196 NA 
ENDBRANCH  21  23
ENDBRANCH  19  21
ENDBRANCH  13  15
ENDBRANCH   5  13
TORSDOF 5
ENDMDL
MODEL      175
REMARK 921   NORMALIZED FREE ENERGY PREDICTED BY IDOCK:   -3.97 KCAL/MOL
REMARK 922        TOTAL FREE ENERGY PREDICTED BY IDOCK:   -5.91 KCAL/MOL
REMARK 923 INTER-LIGAND FREE ENERGY PREDICTED BY IDOCK:   -5.18 KCAL/MOL
REMARK 924 INTRA-LIGAND FREE ENERGY PREDICTED BY IDOCK:   -0.73 KCAL/MOL
REMARK 927      BINDING AFFINITY PREDICTED BY RF-SCORE:    0.00 PKD
ROOT
HETATM    1  C   UNL     1      -9.417  17.006  65.937  1.00  0.00    -0.116 C  
HETATM    2  C   UNL     1      -9.634  15.944  66.979  1.00  0.00    -0.232 A  
HETATM    3  C   UNL     1      -8.758  15.963  68.087  1.00  0.00    -0.171 A  
HETATM    4  C   UNL     1      -8.833  15.028  69.122  1.00  0.00    -0.184 A  
HETATM    5  C   UNL     1     -10.579  14.902  66.861  1.00  0.00    -0.300 A  
HETATM    6  C   UNL     1      -9.852  14.079  69.068  1.00  0.00     0.005 A  
HETATM    7  C   UNL     1     -11.857  13.009  68.018  1.00  0.00    -0.391 C  
HETATM    8  C   UNL     1     -10.738  14.019  67.965  1.00  0.00    -0.253 A  
ENDROOT
BRANCH   4   9
HETATM    9  C   UNL     1      -7.785  15.076  70.158  1.00  0.00     0.362 C  
HETATM   10  C   UNL     1      -6.815  14.174  70.356  1.00  0.00     0.251 C  
HETATM   11  C   UNL     1      -5.888  14.314  71.430  1.00  0.00    -0.161 C  
HETATM   12  N   UNL     1      -5.146  14.434  72.312  1.00  0.00    -0.184 NA 
ENDBRANCH   4   9
BRANCH   5  13
HETATM   13  N   UNL     1     -11.286  14.654  65.654  1.00  0.00    -0.334 NA 
HETATM   14  H   UNL     1     -11.834  15.444  65.313  1.00  0.00     0.000 HD 
BRANCH  13  15
HETATM   15  C   UNL     1     -11.358  13.497  64.847  1.00  0.00    -0.334 A  
HETATM   16  C   UNL     1     -12.507  13.278  64.117  1.00  0.00    -0.330 A  
HETATM   17  C   UNL     1     -12.531  12.148  63.337  1.00  0.00    -0.512 A  
HETATM   18  N   UNL     1     -11.504  11.285  63.248  1.00  0.00     0.019 NA 
HETATM   19  C   UNL     1     -10.423  11.562  63.992  1.00  0.00    -0.370 A  
HETATM   20  N   UNL     1     -10.329  12.645  64.778  1.00  0.00    -0.309 NA 
BRANCH  19  21
HETATM   21  N   UNL     1      -9.375  10.643  63.908  1.00  0.00    -0.243 NA 
HETATM   22  H   UNL     1      -8.751  10.785  63.114  1.00  0.00     0.000 HD 
BRANCH  21  23
HETATM   23  C   UNL     1      -9.034   9.558  64.727  1.00  0.00    -0.218 A  
HETATM   24  C   UNL     1      -8.068   8.606  64.382  1.00  0.00    -0.156 A  
HETATM   25  C   UNL     1      -7.720   7.563  65.238  1.00  0.00    -0.112 A  
HETATM   26  C   UNL     1      -8.360   7.438  66.472  1.00  0.00    -0.124 A  
HETATM   27  C   UNL     1      -7.970   6.391  67.365  1.00  0.00    -0.116 C  
HETATM   28  C   UNL     1      -9.365   8.339  66.818  1.00  0.00    -0.232 A  
HETATM   29  C   UNL     1      -9.703   9.386  65.951  1.00  0.00    -0.355 A  
HETATM   30  N   UNL     1      -7.636   5.546  68.091  1.00  0.00    -0.080 NA 
ENDBRANCH  21  23
ENDBRANCH  19  21
ENDBRANCH  13  15
ENDBRANCH   5  13
TORSDOF 5
ENDMDL
MODEL      176
REMARK 921   NORMALIZED FREE ENERGY PREDICTED BY IDOCK:   -3.86 KCAL/MOL
REMARK 922        TOTAL FREE ENERGY PREDICTED BY IDOCK:   -5.77 KCAL/MOL
REMARK 923 INTER-LIGAND FREE ENERGY PREDICTED BY IDOCK:   -4.81 KCAL/MOL
REMARK 924 INTRA-LIGAND FREE ENERGY PREDICTED BY IDOCK:   -0.96 KCAL/MOL
REMARK 927      BINDING AFFINITY PREDICTED BY RF-SCORE:    0.00 PKD
ROOT
HETATM    1  C   UNL     1     -10.654   6.847  67.818  1.00  0.00    -0.305 C  
HETATM    2  C   UNL     1     -10.816   7.985  68.788  1.00  0.00     0.019 A  
HETATM    3  C   UNL     1     -10.483   9.270  68.309  1.00  0.00    -0.260 A  
HETATM    4  C   UNL     1     -10.570  10.416  69.103  1.00  0.00    -0.255 A  
HETATM    5  C   UNL     1     -11.181   7.822  70.142  1.00  0.00    -0.159 A  
HETATM    6  C   UNL     1     -11.056  10.271  70.402  1.00  0.00    -0.391 A  
HETATM    7  C   UNL     1     -11.972   8.933  72.310  1.00  0.00    -0.380 C  
HETATM    8  C   UNL     1     -11.384   8.996  70.922  1.00  0.00    -0.351 A  
ENDROOT
BRANCH   4   9
HETATM    9  C   UNL     1     -10.075  11.680  68.529  1.00  0.00    -0.210 C  
HETATM   10  C   UNL     1      -8.819  11.949  68.149  1.00  0.00    -0.178 C  
HETATM   11  C   UNL     1      -8.460  13.235  67.651  1.00  0.00    -0.191 C  
HETATM   12  N   UNL     1      -8.177  14.288  67.257  1.00  0.00    -0.199 NA 
ENDBRANCH   4   9
BRANCH   5  13
HETATM   13  N   UNL     1     -11.248   6.546  70.761  1.00  0.00    -0.300 NA 
HETATM   14  H   UNL     1     -12.193   6.222  70.965  1.00  0.00     0.000 HD 
BRANCH  13  15
HETATM   15  C   UNL     1     -10.223   5.649  71.141  1.00  0.00    -0.220 A  
HETATM   16  C   UNL     1      -9.637   5.812  72.378  1.00  0.00    -0.164 A  
HETATM   17  C   UNL     1      -8.653   4.913  72.712  1.00  0.00    -0.115 A  
HETATM   18  N   UNL     1      -8.268   3.904  71.913  1.00  0.00    -0.081 NA 
HETATM   19  C   UNL     1      -8.881   3.813  70.723  1.00  0.00    -0.082 A  
HETATM   20  N   UNL     1      -9.847   4.655  70.328  1.00  0.00    -0.228 NA 
BRANCH  19  21
HETATM   21  N   UNL     1      -8.451   2.774  69.895  1.00  0.00    -0.051 NA 
HETATM   22  H   UNL     1      -8.160   1.931  70.390  1.00  0.00     0.000 HD 
BRANCH  21  23
HETATM   23  C   UNL     1      -8.352   2.691  68.500  1.00  0.00    -0.065 A  
HETATM   24  C   UNL     1      -7.662   3.625  67.720  1.00  0.00    -0.070 A  
HETATM   25  C   UNL     1      -7.544   3.491  66.337  1.00  0.00    -0.077 A  
HETATM   26  C   UNL     1      -8.145   2.409  65.694  1.00  0.00    -0.084 A  
HETATM   27  C   UNL     1      -7.987   2.252  64.281  1.00  0.00    -0.077 C  
HETATM   28  C   UNL     1      -8.887   1.493  66.439  1.00  0.00    -0.117 A  
HETATM   29  C   UNL     1      -8.994   1.637  67.828  1.00  0.00    -0.166 A  
HETATM   30  N   UNL     1      -7.840   2.125  63.134  1.00  0.00    -0.059 NA 
ENDBRANCH  21  23
ENDBRANCH  19  21
ENDBRANCH  13  15
ENDBRANCH   5  13
TORSDOF 5
ENDMDL
MODEL      177
REMARK 921   NORMALIZED FREE ENERGY PREDICTED BY IDOCK:   -3.81 KCAL/MOL
REMARK 922        TOTAL FREE ENERGY PREDICTED BY IDOCK:   -5.70 KCAL/MOL
REMARK 923 INTER-LIGAND FREE ENERGY PREDICTED BY IDOCK:   -5.09 KCAL/MOL
REMARK 924 INTRA-LIGAND FREE ENERGY PREDICTED BY IDOCK:   -0.61 KCAL/MOL
REMARK 927      BINDING AFFINITY PREDICTED BY RF-SCORE:    0.00 PKD
ROOT
HETATM    1  C   UNL     1      -9.122   9.739  64.797  1.00  0.00    -0.290 C  
HETATM    2  C   UNL     1      -9.179   8.758  65.935  1.00  0.00    -0.282 A  
HETATM    3  C   UNL     1      -9.282   7.394  65.583  1.00  0.00     0.157 A  
HETATM    4  C   UNL     1      -9.359   6.375  66.535  1.00  0.00    -0.181 A  
HETATM    5  C   UNL     1      -9.231   9.128  67.296  1.00  0.00    -0.133 A  
HETATM    6  C   UNL     1      -9.278   6.733  67.879  1.00  0.00    -0.112 A  
HETATM    7  C   UNL     1      -9.034   8.390  69.741  1.00  0.00    -0.146 C  
HETATM    8  C   UNL     1      -9.191   8.091  68.270  1.00  0.00    -0.134 A  
ENDROOT
BRANCH   4   9
HETATM    9  C   UNL     1      -9.590   5.004  66.044  1.00  0.00    -0.179 C  
HETATM   10  C   UNL     1      -8.885   4.362  65.103  1.00  0.00    -0.138 C  
HETATM   11  C   UNL     1      -9.244   3.048  64.683  1.00  0.00    -0.144 C  
HETATM   12  N   UNL     1      -9.552   1.983  64.343  1.00  0.00    -0.126 NA 
ENDBRANCH   4   9
BRANCH   5  13
HETATM   13  N   UNL     1      -9.422  10.474  67.709  1.00  0.00    -0.148 NA 
HETATM   14  H   UNL     1     -10.390  10.720  67.915  1.00  0.00     0.000 HD 
BRANCH  13  15
HETATM   15  C   UNL     1      -8.497  11.528  67.882  1.00  0.00    -0.142 A  
HETATM   16  C   UNL     1      -7.213  11.354  67.412  1.00  0.00    -0.115 A  
HETATM   17  C   UNL     1      -6.348  12.406  67.590  1.00  0.00    -0.131 A  
HETATM   18  N   UNL     1      -6.701  13.566  68.171  1.00  0.00    -0.103 NA 
HETATM   19  C   UNL     1      -7.965  13.658  68.608  1.00  0.00    -0.083 A  
HETATM   20  N   UNL     1      -8.864  12.672  68.470  1.00  0.00    -0.103 NA 
BRANCH  19  21
HETATM   21  N   UNL     1      -8.309  14.860  69.231  1.00  0.00    -0.332 NA 
HETATM   22  H   UNL     1      -8.809  14.751  70.113  1.00  0.00     0.000 HD 
BRANCH  21  23
HETATM   23  C   UNL     1      -8.083  16.190  68.852  1.00  0.00    -0.228 A  
HETATM   24  C   UNL     1      -6.810  16.766  68.784  1.00  0.00    -0.188 A  
HETATM   25  C   UNL     1      -6.615  18.080  68.361  1.00  0.00    -0.210 A  
HETATM   26  C   UNL     1      -7.714  18.864  68.011  1.00  0.00    -0.298 A  
HETATM   27  C   UNL     1      -7.506  20.198  67.538  1.00  0.00    -0.297 C  
HETATM   28  C   UNL     1      -8.998  18.334  68.123  1.00  0.00    -0.314 A  
HETATM   29  C   UNL     1      -9.181  17.011  68.545  1.00  0.00    -0.266 A  
HETATM   30  N   UNL     1      -7.327  21.276  67.140  1.00  0.00    -0.428 NA 
ENDBRANCH  21  23
ENDBRANCH  19  21
ENDBRANCH  13  15
ENDBRANCH   5  13
TORSDOF 5
ENDMDL
MODEL      178
REMARK 921   NORMALIZED FREE ENERGY PREDICTED BY IDOCK:   -3.78 KCAL/MOL
REMARK 922        TOTAL FREE ENERGY PREDICTED BY IDOCK:   -5.67 KCAL/MOL
REMARK 923 INTER-LIGAND FREE ENERGY PREDICTED BY IDOCK:   -4.73 KCAL/MOL
REMARK 924 INTRA-LIGAND FREE ENERGY PREDICTED BY IDOCK:   -0.94 KCAL/MOL
REMARK 927      BINDING AFFINITY PREDICTED BY RF-SCORE:    0.00 PKD
ROOT
HETATM    1  C   UNL     1      -9.372   9.236  71.010  1.00  0.00    -0.298 C  
HETATM    2  C   UNL     1      -9.109   9.473  69.549  1.00  0.00    -0.193 A  
HETATM    3  C   UNL     1     -10.089  10.206  68.845  1.00  0.00    -0.211 A  
HETATM    4  C   UNL     1      -9.984  10.488  67.481  1.00  0.00    -0.204 A  
HETATM    5  C   UNL     1      -8.009   8.933  68.846  1.00  0.00    -0.104 A  
HETATM    6  C   UNL     1      -8.833  10.066  66.817  1.00  0.00    -0.144 A  
HETATM    7  C   UNL     1      -6.589   8.959  66.715  1.00  0.00    -0.064 C  
HETATM    8  C   UNL     1      -7.837   9.315  67.486  1.00  0.00    -0.096 A  
ENDROOT
BRANCH   4   9
HETATM    9  C   UNL     1     -11.130  11.150  66.834  1.00  0.00    -0.313 C  
HETATM   10  C   UNL     1     -11.078  12.149  65.941  1.00  0.00    -0.360 C  
HETATM   11  C   UNL     1     -12.269  12.737  65.425  1.00  0.00    -0.478 C  
HETATM   12  N   UNL     1     -13.245  13.215  65.019  1.00  0.00    -0.657 NA 
ENDBRANCH   4   9
BRANCH   5  13
HETATM   13  N   UNL     1      -7.149   7.959  69.418  1.00  0.00    -0.062 NA 
HETATM   14  H   UNL     1      -6.306   8.337  69.849  1.00  0.00     0.000 HD 
BRANCH  13  15
HETATM   15  C   UNL     1      -7.266   6.552  69.491  1.00  0.00    -0.082 A  
HETATM   16  C   UNL     1      -7.520   5.979  70.719  1.00  0.00    -0.091 A  
HETATM   17  C   UNL     1      -7.637   4.611  70.744  1.00  0.00    -0.057 A  
HETATM   18  N   UNL     1      -7.535   3.838  69.649  1.00  0.00    -0.052 NA 
HETATM   19  C   UNL     1      -7.283   4.466  68.492  1.00  0.00    -0.060 A  
HETATM   20  N   UNL     1      -7.154   5.798  68.391  1.00  0.00    -0.075 NA 
BRANCH  19  21
HETATM   21  N   UNL     1      -7.156   3.646  67.369  1.00  0.00    -0.058 NA 
HETATM   22  H   UNL     1      -6.270   3.145  67.310  1.00  0.00     0.000 HD 
BRANCH  21  23
HETATM   23  C   UNL     1      -8.036   3.395  66.308  1.00  0.00    -0.092 A  
HETATM   24  C   UNL     1      -7.856   2.356  65.388  1.00  0.00    -0.078 A  
HETATM   25  C   UNL     1      -8.774   2.104  64.369  1.00  0.00    -0.097 A  
HETATM   26  C   UNL     1      -9.901   2.916  64.238  1.00  0.00    -0.131 A  
HETATM   27  C   UNL     1     -10.862   2.628  63.217  1.00  0.00    -0.231 C  
HETATM   28  C   UNL     1     -10.077   3.992  65.106  1.00  0.00    -0.189 A  
HETATM   29  C   UNL     1      -9.150   4.232  66.128  1.00  0.00    -0.133 A  
HETATM   30  N   UNL     1     -11.644   2.378  62.394  1.00  0.00    -0.127 NA 
ENDBRANCH  21  23
ENDBRANCH  19  21
ENDBRANCH  13  15
ENDBRANCH   5  13
TORSDOF 5
ENDMDL
MODEL      179
REMARK 921   NORMALIZED FREE ENERGY PREDICTED BY IDOCK:   -3.75 KCAL/MOL
REMARK 922        TOTAL FREE ENERGY PREDICTED BY IDOCK:   -5.63 KCAL/MOL
REMARK 923 INTER-LIGAND FREE ENERGY PREDICTED BY IDOCK:   -4.83 KCAL/MOL
REMARK 924 INTRA-LIGAND FREE ENERGY PREDICTED BY IDOCK:   -0.80 KCAL/MOL
REMARK 927      BINDING AFFINITY PREDICTED BY RF-SCORE:    0.00 PKD
ROOT
HETATM    1  C   UNL     1      -5.544  12.449  67.355  1.00  0.00    -0.126 C  
HETATM    2  C   UNL     1      -6.690  13.342  67.743  1.00  0.00    -0.154 A  
HETATM    3  C   UNL     1      -6.377  14.698  67.980  1.00  0.00    -0.165 A  
HETATM    4  C   UNL     1      -7.339  15.637  68.361  1.00  0.00    -0.116 A  
HETATM    5  C   UNL     1      -8.007  12.884  67.967  1.00  0.00    -0.158 A  
HETATM    6  C   UNL     1      -8.662  15.210  68.456  1.00  0.00    -0.172 A  
HETATM    7  C   UNL     1     -10.474  13.490  68.290  1.00  0.00    -0.258 C  
HETATM    8  C   UNL     1      -9.011  13.855  68.241  1.00  0.00    -0.187 A  
ENDROOT
BRANCH   4   9
HETATM    9  C   UNL     1      -6.867  16.991  68.702  1.00  0.00    -0.187 C  
HETATM   10  C   UNL     1      -7.571  18.128  68.616  1.00  0.00    -0.306 C  
HETATM   11  C   UNL     1      -6.980  19.386  68.932  1.00  0.00    -0.349 C  
HETATM   12  N   UNL     1      -6.485  20.404  69.181  1.00  0.00    -0.268 NA 
ENDBRANCH   4   9
BRANCH   5  13
HETATM   13  N   UNL     1      -8.329  11.503  68.030  1.00  0.00    -0.139 NA 
HETATM   14  H   UNL     1      -8.451  11.138  68.974  1.00  0.00     0.000 HD 
BRANCH  13  15
HETATM   15  C   UNL     1      -8.509  10.549  67.003  1.00  0.00    -0.128 A  
HETATM   16  C   UNL     1      -8.797  11.001  65.732  1.00  0.00    -0.200 A  
HETATM   17  C   UNL     1      -8.954  10.043  64.761  1.00  0.00    -0.212 A  
HETATM   18  N   UNL     1      -8.824   8.725  64.992  1.00  0.00    -0.153 NA 
HETATM   19  C   UNL     1      -8.548   8.361  66.253  1.00  0.00    -0.135 A  
HETATM   20  N   UNL     1      -8.384   9.241  67.253  1.00  0.00    -0.124 NA 
BRANCH  19  21
HETATM   21  N   UNL     1      -8.441   6.988  66.481  1.00  0.00    -0.120 NA 
HETATM   22  H   UNL     1      -7.827   6.734  67.255  1.00  0.00     0.000 HD 
BRANCH  21  23
HETATM   23  C   UNL     1      -9.031   5.898  65.828  1.00  0.00    -0.120 A  
HETATM   24  C   UNL     1     -10.261   5.347  66.207  1.00  0.00    -0.234 A  
HETATM   25  C   UNL     1     -10.844   4.290  65.511  1.00  0.00     0.100 A  
HETATM   26  C   UNL     1     -10.184   3.739  64.411  1.00  0.00    -0.227 A  
HETATM   27  C   UNL     1     -10.806   2.682  63.674  1.00  0.00    -0.122 C  
HETATM   28  C   UNL     1      -8.932   4.230  64.046  1.00  0.00    -0.145 A  
HETATM   29  C   UNL     1      -8.359   5.296  64.751  1.00  0.00    -0.145 A  
HETATM   30  N   UNL     1     -11.324   1.834  63.072  1.00  0.00    -0.278 NA 
ENDBRANCH  21  23
ENDBRANCH  19  21
ENDBRANCH  13  15
ENDBRANCH   5  13
TORSDOF 5
ENDMDL
MODEL      180
REMARK 921   NORMALIZED FREE ENERGY PREDICTED BY IDOCK:   -3.71 KCAL/MOL
REMARK 922        TOTAL FREE ENERGY PREDICTED BY IDOCK:   -5.58 KCAL/MOL
REMARK 923 INTER-LIGAND FREE ENERGY PREDICTED BY IDOCK:   -4.82 KCAL/MOL
REMARK 924 INTRA-LIGAND FREE ENERGY PREDICTED BY IDOCK:   -0.76 KCAL/MOL
REMARK 927      BINDING AFFINITY PREDICTED BY RF-SCORE:    0.00 PKD
ROOT
HETATM    1  C   UNL     1      -6.436   8.822  71.788  1.00  0.00    -0.073 C  
HETATM    2  C   UNL     1      -7.820   8.263  71.607  1.00  0.00    -0.139 A  
HETATM    3  C   UNL     1      -8.004   6.912  71.971  1.00  0.00    -0.095 A  
HETATM    4  C   UNL     1      -9.232   6.258  71.843  1.00  0.00    -0.147 A  
HETATM    5  C   UNL     1      -8.889   8.975  71.021  1.00  0.00    -0.230 A  
HETATM    6  C   UNL     1     -10.319   7.000  71.386  1.00  0.00    -0.211 A  
HETATM    7  C   UNL     1     -11.409   9.107  70.582  1.00  0.00    -0.323 C  
HETATM    8  C   UNL     1     -10.169   8.353  70.996  1.00  0.00    -0.245 A  
ENDROOT
BRANCH   4   9
HETATM    9  C   UNL     1      -9.267   4.814  72.137  1.00  0.00    -0.155 C  
HETATM   10  C   UNL     1      -8.211   3.998  72.264  1.00  0.00    -0.097 C  
HETATM   11  C   UNL     1      -8.384   2.603  72.503  1.00  0.00    -0.063 C  
HETATM   12  N   UNL     1      -8.537   1.469  72.687  1.00  0.00    -0.057 NA 
ENDBRANCH   4   9
BRANCH   5  13
HETATM   13  N   UNL     1      -8.702  10.225  70.374  1.00  0.00    -0.258 NA 
HETATM   14  H   UNL     1      -8.903  11.039  70.956  1.00  0.00     0.000 HD 
BRANCH  13  15
HETATM   15  C   UNL     1      -8.284  10.532  69.059  1.00  0.00    -0.145 A  
HETATM   16  C   UNL     1      -8.544   9.618  68.060  1.00  0.00    -0.119 A  
HETATM   17  C   UNL     1      -8.131   9.959  66.795  1.00  0.00    -0.117 A  
HETATM   18  N   UNL     1      -7.518  11.119  66.502  1.00  0.00    -0.145 NA 
HETATM   19  C   UNL     1      -7.294  11.954  67.527  1.00  0.00    -0.132 A  
HETATM   20  N   UNL     1      -7.668  11.688  68.788  1.00  0.00    -0.131 NA 
BRANCH  19  21
HETATM   21  N   UNL     1      -6.635  13.144  67.210  1.00  0.00    -0.427 NA 
HETATM   22  H   UNL     1      -5.798  13.024  66.639  1.00  0.00     0.000 HD 
BRANCH  21  23
HETATM   23  C   UNL     1      -6.925  14.474  67.543  1.00  0.00    -0.164 A  
HETATM   24  C   UNL     1      -6.013  15.523  67.386  1.00  0.00    -0.010 A  
HETATM   25  C   UNL     1      -6.346  16.843  67.685  1.00  0.00    -0.166 A  
HETATM   26  C   UNL     1      -7.618  17.141  68.176  1.00  0.00    -0.208 A  
HETATM   27  C   UNL     1      -7.970  18.502  68.441  1.00  0.00    -0.315 C  
HETATM   28  C   UNL     1      -8.528  16.108  68.395  1.00  0.00    -0.184 A  
HETATM   29  C   UNL     1      -8.182  14.786  68.086  1.00  0.00    -0.142 A  
HETATM   30  N   UNL     1      -8.252  19.612  68.640  1.00  0.00    -0.316 NA 
ENDBRANCH  21  23
ENDBRANCH  19  21
ENDBRANCH  13  15
ENDBRANCH   5  13
TORSDOF 5
ENDMDL
MODEL      181
REMARK 921   NORMALIZED FREE ENERGY PREDICTED BY IDOCK:   -3.64 KCAL/MOL
REMARK 922        TOTAL FREE ENERGY PREDICTED BY IDOCK:   -5.48 KCAL/MOL
REMARK 923 INTER-LIGAND FREE ENERGY PREDICTED BY IDOCK:   -4.61 KCAL/MOL
REMARK 924 INTRA-LIGAND FREE ENERGY PREDICTED BY IDOCK:   -0.87 KCAL/MOL
REMARK 927      BINDING AFFINITY PREDICTED BY RF-SCORE:    0.00 PKD
ROOT
HETATM    1  C   UNL     1     -11.046  12.126  66.848  1.00  0.00    -0.348 C  
HETATM    2  C   UNL     1      -9.967  13.021  67.391  1.00  0.00    -0.228 A  
HETATM    3  C   UNL     1     -10.126  14.405  67.164  1.00  0.00    -0.253 A  
HETATM    4  C   UNL     1      -9.195  15.352  67.599  1.00  0.00    -0.187 A  
HETATM    5  C   UNL     1      -8.791  12.551  68.016  1.00  0.00    -0.187 A  
HETATM    6  C   UNL     1      -8.099  14.897  68.330  1.00  0.00    -0.137 A  
HETATM    7  C   UNL     1      -6.727  13.111  69.425  1.00  0.00    -0.022 C  
HETATM    8  C   UNL     1      -7.898  13.515  68.564  1.00  0.00    -0.125 A  
ENDROOT
BRANCH   4   9
HETATM    9  C   UNL     1      -9.409  16.752  67.192  1.00  0.00    -0.236 C  
HETATM   10  C   UNL     1     -10.239  17.634  67.765  1.00  0.00    -0.354 C  
HETATM   11  C   UNL     1     -10.390  18.951  67.241  1.00  0.00    -0.418 C  
HETATM   12  N   UNL     1     -10.511  20.016  66.799  1.00  0.00    -0.439 NA 
ENDBRANCH   4   9
BRANCH   5  13
HETATM   13  N   UNL     1      -8.432  11.178  68.019  1.00  0.00    -0.130 NA 
HETATM   14  H   UNL     1      -7.843  10.891  67.237  1.00  0.00     0.000 HD 
BRANCH  13  15
HETATM   15  C   UNL     1      -8.753  10.141  68.925  1.00  0.00    -0.149 A  
HETATM   16  C   UNL     1      -9.558  10.440  70.003  1.00  0.00     0.141 A  
HETATM   17  C   UNL     1      -9.855   9.402  70.853  1.00  0.00    -0.268 A  
HETATM   18  N   UNL     1      -9.419   8.144  70.667  1.00  0.00    -0.161 NA 
HETATM   19  C   UNL     1      -8.637   7.932  69.599  1.00  0.00    -0.133 A  
HETATM   20  N   UNL     1      -8.303   8.896  68.728  1.00  0.00    -0.122 NA 
BRANCH  19  21
HETATM   21  N   UNL     1      -8.172   6.625  69.435  1.00  0.00    -0.122 NA 
HETATM   22  H   UNL     1      -7.830   6.413  68.498  1.00  0.00     0.000 HD 
BRANCH  21  23
HETATM   23  C   UNL     1      -8.096   5.556  70.337  1.00  0.00    -0.103 A  
HETATM   24  C   UNL     1      -7.070   5.414  71.278  1.00  0.00    -0.070 A  
HETATM   25  C   UNL     1      -7.045   4.362  72.192  1.00  0.00    -0.060 A  
HETATM   26  C   UNL     1      -8.056   3.400  72.166  1.00  0.00    -0.067 A  
HETATM   27  C   UNL     1      -8.049   2.345  73.133  1.00  0.00    -0.051 C  
HETATM   28  C   UNL     1      -9.059   3.485  71.203  1.00  0.00    -0.177 A  
HETATM   29  C   UNL     1      -9.076   4.550  70.293  1.00  0.00    -0.159 A  
HETATM   30  N   UNL     1      -8.044   1.500  73.931  1.00  0.00    -0.044 NA 
ENDBRANCH  21  23
ENDBRANCH  19  21
ENDBRANCH  13  15
ENDBRANCH   5  13
TORSDOF 5
ENDMDL
MODEL      182
REMARK 921   NORMALIZED FREE ENERGY PREDICTED BY IDOCK:   -3.52 KCAL/MOL
REMARK 922        TOTAL FREE ENERGY PREDICTED BY IDOCK:   -5.33 KCAL/MOL
REMARK 923 INTER-LIGAND FREE ENERGY PREDICTED BY IDOCK:   -4.55 KCAL/MOL
REMARK 924 INTRA-LIGAND FREE ENERGY PREDICTED BY IDOCK:   -0.78 KCAL/MOL
REMARK 927      BINDING AFFINITY PREDICTED BY RF-SCORE:    0.00 PKD
ROOT
HETATM    1  C   UNL     1      -6.623   8.324  69.049  1.00  0.00    -0.048 C  
HETATM    2  C   UNL     1      -7.240   8.021  67.711  1.00  0.00    -0.091 A  
HETATM    3  C   UNL     1      -7.481   6.660  67.425  1.00  0.00    -0.096 A  
HETATM    4  C   UNL     1      -8.035   6.232  66.216  1.00  0.00    -0.110 A  
HETATM    5  C   UNL     1      -7.493   8.994  66.720  1.00  0.00    -0.086 A  
HETATM    6  C   UNL     1      -8.406   7.205  65.290  1.00  0.00    -0.101 A  
HETATM    7  C   UNL     1      -8.661   9.573  64.515  1.00  0.00    -0.232 C  
HETATM    8  C   UNL     1      -8.164   8.578  65.535  1.00  0.00    -0.138 A  
ENDROOT
BRANCH   4   9
HETATM    9  C   UNL     1      -8.122   4.778  65.986  1.00  0.00    -0.107 C  
HETATM   10  C   UNL     1      -9.233   4.029  66.009  1.00  0.00    -0.153 C  
HETATM   11  C   UNL     1      -9.173   2.618  65.817  1.00  0.00    -0.073 C  
HETATM   12  N   UNL     1      -9.111   1.470  65.670  1.00  0.00    -0.107 NA 
ENDBRANCH   4   9
BRANCH   5  13
HETATM   13  N   UNL     1      -7.013  10.326  66.825  1.00  0.00    -0.089 NA 
HETATM   14  H   UNL     1      -6.039  10.449  66.549  1.00  0.00     0.000 HD 
BRANCH  13  15
HETATM   15  C   UNL     1      -7.659  11.510  67.248  1.00  0.00    -0.143 A  
HETATM   16  C   UNL     1      -8.961  11.423  67.693  1.00  0.00    -0.140 A  
HETATM   17  C   UNL     1      -9.548  12.594  68.105  1.00  0.00    -0.219 A  
HETATM   18  N   UNL     1      -8.915  13.780  68.107  1.00  0.00    -0.185 NA 
HETATM   19  C   UNL     1      -7.652  13.787  67.656  1.00  0.00    -0.181 A  
HETATM   20  N   UNL     1      -7.015  12.683  67.235  1.00  0.00    -0.138 NA 
BRANCH  19  21
HETATM   21  N   UNL     1      -7.017  15.031  67.641  1.00  0.00    -0.169 NA 
HETATM   22  H   UNL     1      -6.001  14.987  67.712  1.00  0.00     0.000 HD 
BRANCH  21  23
HETATM   23  C   UNL     1      -7.538  16.328  67.547  1.00  0.00    -0.146 A  
HETATM   24  C   UNL     1      -7.850  16.946  66.330  1.00  0.00    -0.348 A  
HETATM   25  C   UNL     1      -8.408  18.222  66.271  1.00  0.00    -0.230 A  
HETATM   26  C   UNL     1      -8.649  18.926  67.451  1.00  0.00    -0.293 A  
HETATM   27  C   UNL     1      -9.260  20.219  67.388  1.00  0.00    -0.380 C  
HETATM   28  C   UNL     1      -8.296  18.359  68.674  1.00  0.00    -0.319 A  
HETATM   29  C   UNL     1      -7.740  17.074  68.720  1.00  0.00    -0.249 A  
HETATM   30  N   UNL     1      -9.770  21.261  67.328  1.00  0.00     0.023 NA 
ENDBRANCH  21  23
ENDBRANCH  19  21
ENDBRANCH  13  15
ENDBRANCH   5  13
TORSDOF 5
ENDMDL
MODEL      183
REMARK 921   NORMALIZED FREE ENERGY PREDICTED BY IDOCK:   -3.52 KCAL/MOL
REMARK 922        TOTAL FREE ENERGY PREDICTED BY IDOCK:   -5.33 KCAL/MOL
REMARK 923 INTER-LIGAND FREE ENERGY PREDICTED BY IDOCK:   -5.31 KCAL/MOL
REMARK 924 INTRA-LIGAND FREE ENERGY PREDICTED BY IDOCK:   -0.02 KCAL/MOL
REMARK 927      BINDING AFFINITY PREDICTED BY RF-SCORE:    0.00 PKD
ROOT
HETATM    1  C   UNL     1      -8.302  14.338  67.844  1.00  0.00    -0.162 C  
HETATM    2  C   UNL     1      -8.577  15.816  67.832  1.00  0.00    -0.160 A  
HETATM    3  C   UNL     1      -7.639  16.635  68.498  1.00  0.00    -0.212 A  
HETATM    4  C   UNL     1      -7.774  18.023  68.580  1.00  0.00    -0.304 A  
HETATM    5  C   UNL     1      -9.741  16.399  67.286  1.00  0.00    -0.239 A  
HETATM    6  C   UNL     1      -8.857  18.610  67.928  1.00  0.00    -0.308 A  
HETATM    7  C   UNL     1     -10.927  18.536  66.521  1.00  0.00     0.103 C  
HETATM    8  C   UNL     1      -9.826  17.820  67.264  1.00  0.00    -0.312 A  
ENDROOT
BRANCH   4   9
HETATM    9  C   UNL     1      -6.798  18.753  69.409  1.00  0.00    -0.217 C  
HETATM   10  C   UNL     1      -7.047  19.813  70.190  1.00  0.00     0.134 C  
HETATM   11  C   UNL     1      -5.999  20.461  70.907  1.00  0.00    -0.220 C  
HETATM   12  N   UNL     1      -5.137  20.986  71.477  1.00  0.00    -0.550 NA 
ENDBRANCH   4   9
BRANCH   5  13
HETATM   13  N   UNL     1     -10.851  15.621  66.863  1.00  0.00    -0.308 NA 
HETATM   14  H   UNL     1     -11.702  16.155  66.687  1.00  0.00     0.000 HD 
BRANCH  13  15
HETATM   15  C   UNL     1     -10.975  14.230  66.646  1.00  0.00    -0.310 A  
HETATM   16  C   UNL     1     -11.525  13.457  67.647  1.00  0.00    -0.353 A  
HETATM   17  C   UNL     1     -11.637  12.112  67.391  1.00  0.00    -0.340 A  
HETATM   18  N   UNL     1     -11.259  11.544  66.233  1.00  0.00    -0.271 NA 
HETATM   19  C   UNL     1     -10.728  12.358  65.310  1.00  0.00    -0.287 A  
HETATM   20  N   UNL     1     -10.585  13.680  65.490  1.00  0.00    -0.287 NA 
BRANCH  19  21
HETATM   21  N   UNL     1     -10.318  11.748  64.123  1.00  0.00    -0.301 NA 
HETATM   22  H   UNL     1     -10.839  12.039  63.296  1.00  0.00     0.000 HD 
BRANCH  21  23
HETATM   23  C   UNL     1      -9.314  10.803  63.873  1.00  0.00    -0.253 A  
HETATM   24  C   UNL     1      -8.054  10.839  64.482  1.00  0.00     0.134 A  
HETATM   25  C   UNL     1      -7.091   9.859  64.246  1.00  0.00    -0.131 A  
HETATM   26  C   UNL     1      -7.369   8.815  63.363  1.00  0.00    -0.100 A  
HETATM   27  C   UNL     1      -6.393   7.789  63.157  1.00  0.00    -0.067 C  
HETATM   28  C   UNL     1      -8.594   8.785  62.700  1.00  0.00    -0.152 A  
HETATM   29  C   UNL     1      -9.555   9.773  62.949  1.00  0.00     0.196 A  
HETATM   30  N   UNL     1      -5.601   6.952  63.006  1.00  0.00    -0.035 NA 
ENDBRANCH  21  23
ENDBRANCH  19  21
ENDBRANCH  13  15
ENDBRANCH   5  13
TORSDOF 5
ENDMDL
MODEL      184
REMARK 921   NORMALIZED FREE ENERGY PREDICTED BY IDOCK:   -3.46 KCAL/MOL
REMARK 922        TOTAL FREE ENERGY PREDICTED BY IDOCK:   -5.26 KCAL/MOL
REMARK 923 INTER-LIGAND FREE ENERGY PREDICTED BY IDOCK:   -4.14 KCAL/MOL
REMARK 924 INTRA-LIGAND FREE ENERGY PREDICTED BY IDOCK:   -1.12 KCAL/MOL
REMARK 927      BINDING AFFINITY PREDICTED BY RF-SCORE:    0.00 PKD
ROOT
HETATM    1  C   UNL     1      -6.854  13.161  67.394  1.00  0.00    -0.113 C  
HETATM    2  C   UNL     1      -7.791  14.229  66.901  1.00  0.00     0.214 A  
HETATM    3  C   UNL     1      -7.367  15.564  67.071  1.00  0.00    -0.172 A  
HETATM    4  C   UNL     1      -8.141  16.657  66.674  1.00  0.00    -0.309 A  
HETATM    5  C   UNL     1      -9.078  13.971  66.379  1.00  0.00    -0.093 A  
HETATM    6  C   UNL     1      -9.354  16.398  66.040  1.00  0.00    -0.335 A  
HETATM    7  C   UNL     1     -11.108  14.874  65.106  1.00  0.00    -0.399 C  
HETATM    8  C   UNL     1      -9.820  15.072  65.866  1.00  0.00    -0.369 A  
ENDROOT
BRANCH   4   9
HETATM    9  C   UNL     1      -7.646  18.002  67.019  1.00  0.00    -0.237 C  
HETATM   10  C   UNL     1      -6.452  18.303  67.548  1.00  0.00    -0.195 C  
HETATM   11  C   UNL     1      -6.113  19.647  67.882  1.00  0.00    -0.209 C  
HETATM   12  N   UNL     1      -5.852  20.742  68.158  1.00  0.00    -0.290 NA 
ENDBRANCH   4   9
BRANCH   5  13
HETATM   13  N   UNL     1      -9.680  12.687  66.446  1.00  0.00    -0.255 NA 
HETATM   14  H   UNL     1      -9.662  12.163  65.571  1.00  0.00     0.000 HD 
BRANCH  13  15
HETATM   15  C   UNL     1     -10.299  12.013  67.523  1.00  0.00    -0.200 A  
HETATM   16  C   UNL     1      -9.969  10.693  67.745  1.00  0.00    -0.192 A  
HETATM   17  C   UNL     1     -10.585  10.077  68.808  1.00  0.00    -0.217 A  
HETATM   18  N   UNL     1     -11.455  10.699  69.622  1.00  0.00    -0.268 NA 
HETATM   19  C   UNL     1     -11.730  11.981  69.340  1.00  0.00    -0.340 A  
HETATM   20  N   UNL     1     -11.169  12.645  68.318  1.00  0.00    -0.252 NA 
BRANCH  19  21
HETATM   21  N   UNL     1     -12.655  12.604  70.180  1.00  0.00     0.011 NA 
HETATM   22  H   UNL     1     -13.597  12.216  70.134  1.00  0.00     0.000 HD 
BRANCH  21  23
HETATM   23  C   UNL     1     -12.510  13.672  71.076  1.00  0.00    -0.377 A  
HETATM   24  C   UNL     1     -12.035  13.521  72.383  1.00  0.00     1.326 A  
HETATM   25  C   UNL     1     -11.861  14.610  73.236  1.00  0.00    -0.037 A  
HETATM   26  C   UNL     1     -12.186  15.893  72.795  1.00  0.00    -0.604 A  
HETATM   27  C   UNL     1     -11.966  17.012  73.659  1.00  0.00     0.074 C  
HETATM   28  C   UNL     1     -12.714  16.066  71.517  1.00  0.00    -0.255 A  
HETATM   29  C   UNL     1     -12.880  14.965  70.667  1.00  0.00    -0.406 A  
HETATM   30  N   UNL     1     -11.770  17.917  74.363  1.00  0.00     0.358 NA 
ENDBRANCH  21  23
ENDBRANCH  19  21
ENDBRANCH  13  15
ENDBRANCH   5  13
TORSDOF 5
ENDMDL
MODEL      185
REMARK 921   NORMALIZED FREE ENERGY PREDICTED BY IDOCK:   -3.45 KCAL/MOL
REMARK 922        TOTAL FREE ENERGY PREDICTED BY IDOCK:   -5.24 KCAL/MOL
REMARK 923 INTER-LIGAND FREE ENERGY PREDICTED BY IDOCK:   -4.80 KCAL/MOL
REMARK 924 INTRA-LIGAND FREE ENERGY PREDICTED BY IDOCK:   -0.43 KCAL/MOL
REMARK 927      BINDING AFFINITY PREDICTED BY RF-SCORE:    0.00 PKD
ROOT
HETATM    1  C   UNL     1      -8.418   9.087  66.344  1.00  0.00    -0.126 C  
HETATM    2  C   UNL     1      -8.293   7.780  67.076  1.00  0.00    -0.117 A  
HETATM    3  C   UNL     1      -8.298   6.612  66.283  1.00  0.00    -0.125 A  
HETATM    4  C   UNL     1      -8.204   5.330  66.828  1.00  0.00    -0.108 A  
HETATM    5  C   UNL     1      -8.266   7.661  68.483  1.00  0.00    -0.125 A  
HETATM    6  C   UNL     1      -8.047   5.221  68.209  1.00  0.00    -0.094 A  
HETATM    7  C   UNL     1      -7.804   6.171  70.513  1.00  0.00    -0.106 C  
HETATM    8  C   UNL     1      -8.053   6.368  69.038  1.00  0.00    -0.111 A  
ENDROOT
BRANCH   4   9
HETATM    9  C   UNL     1      -8.348   4.187  65.908  1.00  0.00    -0.109 C  
HETATM   10  C   UNL     1      -9.405   3.914  65.131  1.00  0.00    -0.158 C  
HETATM   11  C   UNL     1      -9.438   2.744  64.318  1.00  0.00    -0.137 C  
HETATM   12  N   UNL     1      -9.457   1.784  63.668  1.00  0.00    -0.105 NA 
ENDBRANCH   4   9
BRANCH   5  13
HETATM   13  N   UNL     1      -8.546   8.758  69.341  1.00  0.00    -0.131 NA 
HETATM   14  H   UNL     1      -9.360   8.629  69.942  1.00  0.00     0.000 HD 
BRANCH  13  15
HETATM   15  C   UNL     1      -7.886   9.997  69.502  1.00  0.00    -0.154 A  
HETATM   16  C   UNL     1      -6.643  10.003  70.098  1.00  0.00    -0.117 A  
HETATM   17  C   UNL     1      -6.031  11.226  70.226  1.00  0.00    -0.154 A  
HETATM   18  N   UNL     1      -6.573  12.376  69.789  1.00  0.00    -0.025 NA 
HETATM   19  C   UNL     1      -7.786  12.291  69.224  1.00  0.00     0.472 A  
HETATM   20  N   UNL     1      -8.445  11.132  69.068  1.00  0.00    -0.093 NA 
BRANCH  19  21
HETATM   21  N   UNL     1      -8.346  13.497  68.798  1.00  0.00    -0.347 NA 
HETATM   22  H   UNL     1      -8.048  14.313  69.332  1.00  0.00     0.000 HD 
BRANCH  21  23
HETATM   23  C   UNL     1      -9.246  13.779  67.762  1.00  0.00    -0.206 A  
HETATM   24  C   UNL     1      -9.050  14.802  66.828  1.00  0.00    -0.291 A  
HETATM   25  C   UNL     1      -9.942  15.029  65.782  1.00  0.00    -0.376 A  
HETATM   26  C   UNL     1     -11.083  14.234  65.661  1.00  0.00    -0.316 A  
HETATM   27  C   UNL     1     -11.975  14.444  64.562  1.00  0.00    -0.472 C  
HETATM   28  C   UNL     1     -11.333  13.244  66.610  1.00  0.00    -0.353 A  
HETATM   29  C   UNL     1     -10.425  13.023  67.654  1.00  0.00    -0.228 A  
HETATM   30  N   UNL     1     -12.686  14.611  63.658  1.00  0.00    -0.588 NA 
ENDBRANCH  21  23
ENDBRANCH  19  21
ENDBRANCH  13  15
ENDBRANCH   5  13
TORSDOF 5
ENDMDL
MODEL      186
REMARK 921   NORMALIZED FREE ENERGY PREDICTED BY IDOCK:   -3.41 KCAL/MOL
REMARK 922        TOTAL FREE ENERGY PREDICTED BY IDOCK:   -5.19 KCAL/MOL
REMARK 923 INTER-LIGAND FREE ENERGY PREDICTED BY IDOCK:   -5.15 KCAL/MOL
REMARK 924 INTRA-LIGAND FREE ENERGY PREDICTED BY IDOCK:   -0.04 KCAL/MOL
REMARK 927      BINDING AFFINITY PREDICTED BY RF-SCORE:    0.00 PKD
ROOT
HETATM    1  C   UNL     1      -7.834  11.263  66.724  1.00  0.00    -0.155 C  
HETATM    2  C   UNL     1      -9.014  11.968  66.114  1.00  0.00    -0.079 A  
HETATM    3  C   UNL     1      -9.152  13.339  66.418  1.00  0.00    -0.062 A  
HETATM    4  C   UNL     1     -10.208  14.116  65.934  1.00  0.00    -0.332 A  
HETATM    5  C   UNL     1     -10.012  11.322  65.352  1.00  0.00    -0.250 A  
HETATM    6  C   UNL     1     -11.121  13.507  65.075  1.00  0.00    -0.338 A  
HETATM    7  C   UNL     1     -12.008  11.565  63.766  1.00  0.00    -0.196 C  
HETATM    8  C   UNL     1     -11.024  12.130  64.760  1.00  0.00    -0.356 A  
ENDROOT
BRANCH   4   9
HETATM    9  C   UNL     1     -10.312  15.502  66.423  1.00  0.00    -0.303 C  
HETATM   10  C   UNL     1      -9.622  16.048  67.434  1.00  0.00    -0.225 C  
HETATM   11  C   UNL     1      -9.853  17.394  67.841  1.00  0.00    -0.287 C  
HETATM   12  N   UNL     1     -10.058  18.487  68.170  1.00  0.00    -0.357 NA 
ENDBRANCH   4   9
BRANCH   5  13
HETATM   13  N   UNL     1     -10.092   9.908  65.250  1.00  0.00    -0.323 NA 
HETATM   14  H   UNL     1     -10.943   9.562  64.809  1.00  0.00     0.000 HD 
BRANCH  13  15
HETATM   15  C   UNL     1      -9.189   8.900  65.658  1.00  0.00    -0.204 A  
HETATM   16  C   UNL     1      -8.203   8.510  64.777  1.00  0.00    -0.164 A  
HETATM   17  C   UNL     1      -7.340   7.535  65.216  1.00  0.00    -0.072 A  
HETATM   18  N   UNL     1      -7.407   6.981  66.439  1.00  0.00    -0.078 NA 
HETATM   19  C   UNL     1      -8.396   7.409  67.238  1.00  0.00    -0.119 A  
HETATM   20  N   UNL     1      -9.277   8.354  66.876  1.00  0.00    -0.148 NA 
BRANCH  19  21
HETATM   21  N   UNL     1      -8.467   6.805  68.495  1.00  0.00    -0.123 NA 
HETATM   22  H   UNL     1      -8.894   5.879  68.495  1.00  0.00     0.000 HD 
BRANCH  21  23
HETATM   23  C   UNL     1      -8.053   7.254  69.756  1.00  0.00    -0.128 A  
HETATM   24  C   UNL     1      -6.784   6.997  70.286  1.00  0.00    -0.052 A  
HETATM   25  C   UNL     1      -6.386   7.495  71.526  1.00  0.00    -0.035 A  
HETATM   26  C   UNL     1      -7.277   8.256  72.283  1.00  0.00    -0.121 A  
HETATM   27  C   UNL     1      -6.850   8.800  73.536  1.00  0.00     0.117 C  
HETATM   28  C   UNL     1      -8.567   8.480  71.806  1.00  0.00    -0.254 A  
HETATM   29  C   UNL     1      -8.953   7.978  70.556  1.00  0.00    -0.152 A  
HETATM   30  N   UNL     1      -6.491   9.249  74.546  1.00  0.00    -0.359 NA 
ENDBRANCH  21  23
ENDBRANCH  19  21
ENDBRANCH  13  15
ENDBRANCH   5  13
TORSDOF 5
ENDMDL
MODEL      187
REMARK 921   NORMALIZED FREE ENERGY PREDICTED BY IDOCK:   -3.30 KCAL/MOL
REMARK 922        TOTAL FREE ENERGY PREDICTED BY IDOCK:   -5.04 KCAL/MOL
REMARK 923 INTER-LIGAND FREE ENERGY PREDICTED BY IDOCK:   -4.99 KCAL/MOL
REMARK 924 INTRA-LIGAND FREE ENERGY PREDICTED BY IDOCK:   -0.06 KCAL/MOL
REMARK 927      BINDING AFFINITY PREDICTED BY RF-SCORE:    0.00 PKD
ROOT
HETATM    1  C   UNL     1      -7.720   9.183  68.849  1.00  0.00    -0.083 C  
HETATM    2  C   UNL     1      -9.072   9.688  69.269  1.00  0.00    -0.174 A  
HETATM    3  C   UNL     1      -9.690  10.619  68.407  1.00  0.00    -0.172 A  
HETATM    4  C   UNL     1     -10.939  11.183  68.678  1.00  0.00    -0.268 A  
HETATM    5  C   UNL     1      -9.693   9.360  70.494  1.00  0.00    -0.271 A  
HETATM    6  C   UNL     1     -11.609  10.759  69.824  1.00  0.00    -0.393 A  
HETATM    7  C   UNL     1     -11.834   9.375  71.899  1.00  0.00    -0.402 C  
HETATM    8  C   UNL     1     -11.014   9.839  70.721  1.00  0.00    -0.406 A  
ENDROOT
BRANCH   4   9
HETATM    9  C   UNL     1     -11.421  12.236  67.766  1.00  0.00    -0.392 C  
HETATM   10  C   UNL     1     -10.842  12.633  66.624  1.00  0.00    -0.286 C  
HETATM   11  C   UNL     1     -11.387  13.702  65.855  1.00  0.00    -0.309 C  
HETATM   12  N   UNL     1     -11.835  14.579  65.243  1.00  0.00    -0.362 NA 
ENDBRANCH   4   9
BRANCH   5  13
HETATM   13  N   UNL     1      -9.009   8.667  71.528  1.00  0.00    -0.214 NA 
HETATM   14  H   UNL     1      -9.399   8.805  72.461  1.00  0.00     0.000 HD 
BRANCH  13  15
HETATM   15  C   UNL     1      -7.879   7.819  71.482  1.00  0.00    -0.088 A  
HETATM   16  C   UNL     1      -6.645   8.357  71.777  1.00  0.00    -0.070 A  
HETATM   17  C   UNL     1      -5.575   7.497  71.731  1.00  0.00    -0.036 A  
HETATM   18  N   UNL     1      -5.686   6.191  71.437  1.00  0.00    -0.026 NA 
HETATM   19  C   UNL     1      -6.918   5.741  71.156  1.00  0.00    -0.067 A  
HETATM   20  N   UNL     1      -8.008   6.523  71.179  1.00  0.00    -0.110 NA 
BRANCH  19  21
HETATM   21  N   UNL     1      -7.012   4.387  70.827  1.00  0.00    -0.036 NA 
HETATM   22  H   UNL     1      -6.642   3.754  71.536  1.00  0.00     0.000 HD 
BRANCH  21  23
HETATM   23  C   UNL     1      -7.528   3.750  69.691  1.00  0.00    -0.052 A  
HETATM   24  C   UNL     1      -8.898   3.635  69.428  1.00  0.00    -0.150 A  
HETATM   25  C   UNL     1      -9.379   3.033  68.267  1.00  0.00    -0.253 A  
HETATM   26  C   UNL     1      -8.481   2.506  67.338  1.00  0.00    -0.108 A  
HETATM   27  C   UNL     1      -8.979   1.926  66.128  1.00  0.00    -0.094 C  
HETATM   28  C   UNL     1      -7.114   2.556  67.601  1.00  0.00    -0.048 A  
HETATM   29  C   UNL     1      -6.642   3.168  68.769  1.00  0.00    -0.037 A  
HETATM   30  N   UNL     1      -9.391   1.471  65.141  1.00  0.00    -0.078 NA 
ENDBRANCH  21  23
ENDBRANCH  19  21
ENDBRANCH  13  15
ENDBRANCH   5  13
TORSDOF 5
ENDMDL
MODEL      188
REMARK 921   NORMALIZED FREE ENERGY PREDICTED BY IDOCK:   -3.23 KCAL/MOL
REMARK 922        TOTAL FREE ENERGY PREDICTED BY IDOCK:   -4.95 KCAL/MOL
REMARK 923 INTER-LIGAND FREE ENERGY PREDICTED BY IDOCK:   -5.41 KCAL/MOL
REMARK 924 INTRA-LIGAND FREE ENERGY PREDICTED BY IDOCK:    0.46 KCAL/MOL
REMARK 927      BINDING AFFINITY PREDICTED BY RF-SCORE:    0.00 PKD
ROOT
HETATM    1  C   UNL     1      -7.979  11.763  62.353  1.00  0.00     0.920 C  
HETATM    2  C   UNL     1      -8.308  10.706  63.371  1.00  0.00    -0.069 A  
HETATM    3  C   UNL     1      -7.423   9.609  63.446  1.00  0.00    -0.118 A  
HETATM    4  C   UNL     1      -7.613   8.548  64.334  1.00  0.00    -0.117 A  
HETATM    5  C   UNL     1      -9.476  10.711  64.165  1.00  0.00    -0.281 A  
HETATM    6  C   UNL     1      -8.696   8.617  65.208  1.00  0.00    -0.200 A  
HETATM    7  C   UNL     1     -10.717   9.732  66.180  1.00  0.00     0.115 C  
HETATM    8  C   UNL     1      -9.614   9.694  65.151  1.00  0.00    -0.324 A  
ENDROOT
BRANCH   4   9
HETATM    9  C   UNL     1      -6.691   7.402  64.230  1.00  0.00    -0.051 C  
HETATM   10  C   UNL     1      -6.987   6.114  64.452  1.00  0.00    -0.051 C  
HETATM   11  C   UNL     1      -5.987   5.103  64.365  1.00  0.00    -0.022 C  
HETATM   12  N   UNL     1      -5.162   4.291  64.300  1.00  0.00    -0.012 NA 
ENDBRANCH   4   9
BRANCH   5  13
HETATM   13  N   UNL     1     -10.542  11.620  63.939  1.00  0.00    -0.351 NA 
HETATM   14  H   UNL     1     -10.927  11.598  62.994  1.00  0.00     0.000 HD 
BRANCH  13  15
HETATM   15  C   UNL     1     -11.161  12.552  64.803  1.00  0.00    -0.306 A  
HETATM   16  C   UNL     1     -11.960  13.529  64.248  1.00  0.00    -0.479 A  
HETATM   17  C   UNL     1     -12.551  14.408  65.123  1.00  0.00    -0.315 A  
HETATM   18  N   UNL     1     -12.399  14.341  66.457  1.00  0.00    -0.406 NA 
HETATM   19  C   UNL     1     -11.603  13.366  66.922  1.00  0.00    -0.365 A  
HETATM   20  N   UNL     1     -10.992  12.475  66.127  1.00  0.00    -0.275 NA 
BRANCH  19  21
HETATM   21  N   UNL     1     -11.436  13.326  68.308  1.00  0.00    -0.294 NA 
HETATM   22  H   UNL     1     -10.892  14.099  68.690  1.00  0.00     0.000 HD 
BRANCH  21  23
HETATM   23  C   UNL     1     -11.888  12.406  69.262  1.00  0.00    -0.304 A  
HETATM   24  C   UNL     1     -12.018  11.036  69.010  1.00  0.00    -0.364 A  
HETATM   25  C   UNL     1     -12.429  10.139  69.995  1.00  0.00    -0.020 A  
HETATM   26  C   UNL     1     -12.744  10.609  71.270  1.00  0.00    -0.537 A  
HETATM   27  C   UNL     1     -13.126   9.679  72.289  1.00  0.00    -0.382 C  
HETATM   28  C   UNL     1     -12.678  11.975  71.534  1.00  0.00    -0.360 A  
HETATM   29  C   UNL     1     -12.259  12.866  70.537  1.00  0.00    -0.395 A  
HETATM   30  N   UNL     1     -13.420   8.916  73.115  1.00  0.00    -0.047 NA 
ENDBRANCH  21  23
ENDBRANCH  19  21
ENDBRANCH  13  15
ENDBRANCH   5  13
TORSDOF 5
ENDMDL
MODEL      189
REMARK 921   NORMALIZED FREE ENERGY PREDICTED BY IDOCK:   -3.19 KCAL/MOL
REMARK 922        TOTAL FREE ENERGY PREDICTED BY IDOCK:   -4.91 KCAL/MOL
REMARK 923 INTER-LIGAND FREE ENERGY PREDICTED BY IDOCK:   -3.75 KCAL/MOL
REMARK 924 INTRA-LIGAND FREE ENERGY PREDICTED BY IDOCK:   -1.16 KCAL/MOL
REMARK 927      BINDING AFFINITY PREDICTED BY RF-SCORE:    0.00 PKD
ROOT
HETATM    1  C   UNL     1      -6.431   8.808  71.816  1.00  0.00    -0.073 C  
HETATM    2  C   UNL     1      -7.801   8.190  71.766  1.00  0.00    -0.135 A  
HETATM    3  C   UNL     1      -7.927   6.897  72.320  1.00  0.00    -0.093 A  
HETATM    4  C   UNL     1      -9.136   6.197  72.330  1.00  0.00    -0.137 A  
HETATM    5  C   UNL     1      -8.913   8.782  71.128  1.00  0.00    -0.222 A  
HETATM    6  C   UNL     1     -10.262   6.837  71.815  1.00  0.00    -0.206 A  
HETATM    7  C   UNL     1     -11.448   8.778  70.769  1.00  0.00    -0.309 C  
HETATM    8  C   UNL     1     -10.171   8.126  71.237  1.00  0.00    -0.240 A  
ENDROOT
BRANCH   4   9
HETATM    9  C   UNL     1      -9.112   4.807  72.821  1.00  0.00    -0.133 C  
HETATM   10  C   UNL     1      -8.026   4.048  73.020  1.00  0.00    -0.085 C  
HETATM   11  C   UNL     1      -8.143   2.696  73.455  1.00  0.00    -0.063 C  
HETATM   12  N   UNL     1      -8.251   1.594  73.800  1.00  0.00    -0.045 NA 
ENDBRANCH   4   9
BRANCH   5  13
HETATM   13  N   UNL     1      -8.790   9.935  70.308  1.00  0.00    -0.344 NA 
HETATM   14  H   UNL     1      -9.049  10.810  70.764  1.00  0.00     0.000 HD 
BRANCH  13  15
HETATM   15  C   UNL     1      -8.367  10.074  68.966  1.00  0.00    -0.134 A  
HETATM   16  C   UNL     1      -7.652  11.200  68.619  1.00  0.00    -0.127 A  
HETATM   17  C   UNL     1      -7.251  11.292  67.308  1.00  0.00    -0.114 A  
HETATM   18  N   UNL     1      -7.505  10.346  66.388  1.00  0.00    -0.113 NA 
HETATM   19  C   UNL     1      -8.210   9.281  66.799  1.00  0.00    -0.115 A  
HETATM   20  N   UNL     1      -8.636   9.126  68.062  1.00  0.00    -0.125 NA 
BRANCH  19  21
HETATM   21  N   UNL     1      -8.487   8.321  65.825  1.00  0.00    -0.143 NA 
HETATM   22  H   UNL     1      -8.878   8.695  64.961  1.00  0.00     0.000 HD 
BRANCH  21  23
HETATM   23  C   UNL     1      -8.319   6.930  65.830  1.00  0.00    -0.137 A  
HETATM   24  C   UNL     1      -7.245   6.281  65.211  1.00  0.00    -0.070 A  
HETATM   25  C   UNL     1      -7.082   4.898  65.271  1.00  0.00    -0.063 A  
HETATM   26  C   UNL     1      -8.022   4.120  65.949  1.00  0.00    -0.094 A  
HETATM   27  C   UNL     1      -7.828   2.706  66.044  1.00  0.00    -0.081 C  
HETATM   28  C   UNL     1      -9.131   4.734  66.527  1.00  0.00    -0.121 A  
HETATM   29  C   UNL     1      -9.281   6.125  66.463  1.00  0.00    -0.161 A  
HETATM   30  N   UNL     1      -7.656   1.559  66.129  1.00  0.00    -0.060 NA 
ENDBRANCH  21  23
ENDBRANCH  19  21
ENDBRANCH  13  15
ENDBRANCH   5  13
TORSDOF 5
ENDMDL
MODEL      190
REMARK 921   NORMALIZED FREE ENERGY PREDICTED BY IDOCK:   -3.17 KCAL/MOL
REMARK 922        TOTAL FREE ENERGY PREDICTED BY IDOCK:   -4.88 KCAL/MOL
REMARK 923 INTER-LIGAND FREE ENERGY PREDICTED BY IDOCK:   -3.86 KCAL/MOL
REMARK 924 INTRA-LIGAND FREE ENERGY PREDICTED BY IDOCK:   -1.02 KCAL/MOL
REMARK 927      BINDING AFFINITY PREDICTED BY RF-SCORE:    0.00 PKD
ROOT
HETATM    1  C   UNL     1     -11.346  17.260  67.178  1.00  0.00     0.585 C  
HETATM    2  C   UNL     1     -11.014  15.796  67.258  1.00  0.00    -0.259 A  
HETATM    3  C   UNL     1     -11.797  15.022  68.141  1.00  0.00    -0.286 A  
HETATM    4  C   UNL     1     -11.591  13.653  68.328  1.00  0.00    -0.374 A  
HETATM    5  C   UNL     1      -9.929  15.194  66.584  1.00  0.00    -0.251 A  
HETATM    6  C   UNL     1     -10.603  13.034  67.564  1.00  0.00    -0.237 A  
HETATM    7  C   UNL     1      -8.791  13.026  65.836  1.00  0.00     0.591 C  
HETATM    8  C   UNL     1      -9.788  13.781  66.680  1.00  0.00    -0.286 A  
ENDROOT
BRANCH   4   9
HETATM    9  C   UNL     1     -12.389  12.982  69.370  1.00  0.00    -0.025 C  
HETATM   10  C   UNL     1     -11.944  12.097  70.272  1.00  0.00    -0.389 C  
HETATM   11  C   UNL     1     -12.834  11.481  71.199  1.00  0.00    -0.315 C  
HETATM   12  N   UNL     1     -13.569  10.979  71.942  1.00  0.00    -0.161 NA 
ENDBRANCH   4   9
BRANCH   5  13
HETATM   13  N   UNL     1      -8.935  15.957  65.915  1.00  0.00    -0.293 NA 
HETATM   14  H   UNL     1      -9.088  16.066  64.912  1.00  0.00     0.000 HD 
BRANCH  13  15
HETATM   15  C   UNL     1      -7.771  16.591  66.406  1.00  0.00    -0.259 A  
HETATM   16  C   UNL     1      -7.385  17.784  65.832  1.00  0.00    -0.234 A  
HETATM   17  C   UNL     1      -6.255  18.373  66.345  1.00  0.00    -0.181 A  
HETATM   18  N   UNL     1      -5.546  17.855  67.363  1.00  0.00    -0.132 NA 
HETATM   19  C   UNL     1      -5.980  16.690  67.866  1.00  0.00    -0.126 A  
HETATM   20  N   UNL     1      -7.074  16.056  67.414  1.00  0.00    -0.170 NA 
BRANCH  19  21
HETATM   21  N   UNL     1      -5.219  16.153  68.905  1.00  0.00    -0.110 NA 
HETATM   22  H   UNL     1      -4.519  16.789  69.289  1.00  0.00     0.000 HD 
BRANCH  21  23
HETATM   23  C   UNL     1      -5.250  14.891  69.513  1.00  0.00    -0.088 A  
HETATM   24  C   UNL     1      -5.197  14.702  70.898  1.00  0.00    -0.132 A  
HETATM   25  C   UNL     1      -5.274  13.435  71.474  1.00  0.00    -0.186 A  
HETATM   26  C   UNL     1      -5.388  12.309  70.658  1.00  0.00    -0.153 A  
HETATM   27  C   UNL     1      -5.509  11.015  71.255  1.00  0.00     0.018 C  
HETATM   28  C   UNL     1      -5.386  12.464  69.273  1.00  0.00    -0.069 A  
HETATM   29  C   UNL     1      -5.312  13.743  68.706  1.00  0.00    -0.078 A  
HETATM   30  N   UNL     1      -5.622   9.968  71.749  1.00  0.00    -0.260 NA 
ENDBRANCH  21  23
ENDBRANCH  19  21
ENDBRANCH  13  15
ENDBRANCH   5  13
TORSDOF 5
ENDMDL
MODEL      191
REMARK 921   NORMALIZED FREE ENERGY PREDICTED BY IDOCK:   -3.09 KCAL/MOL
REMARK 922        TOTAL FREE ENERGY PREDICTED BY IDOCK:   -4.78 KCAL/MOL
REMARK 923 INTER-LIGAND FREE ENERGY PREDICTED BY IDOCK:   -5.54 KCAL/MOL
REMARK 924 INTRA-LIGAND FREE ENERGY PREDICTED BY IDOCK:    0.76 KCAL/MOL
REMARK 927      BINDING AFFINITY PREDICTED BY RF-SCORE:    0.00 PKD
ROOT
HETATM    1  C   UNL     1     -10.815   8.181  72.621  1.00  0.00    -0.429 C  
HETATM    2  C   UNL     1     -10.543   8.349  71.152  1.00  0.00    -0.266 A  
HETATM    3  C   UNL     1      -9.447   7.628  70.629  1.00  0.00    -0.163 A  
HETATM    4  C   UNL     1      -9.070   7.700  69.286  1.00  0.00    -0.145 A  
HETATM    5  C   UNL     1     -11.250   9.240  70.314  1.00  0.00    -0.231 A  
HETATM    6  C   UNL     1      -9.849   8.479  68.433  1.00  0.00    -0.189 A  
HETATM    7  C   UNL     1     -11.781   9.989  67.924  1.00  0.00     0.847 C  
HETATM    8  C   UNL     1     -10.945   9.229  68.924  1.00  0.00    -0.050 A  
ENDROOT
BRANCH   4   9
HETATM    9  C   UNL     1      -7.834   7.001  68.889  1.00  0.00    -0.115 C  
HETATM   10  C   UNL     1      -7.703   5.692  68.633  1.00  0.00    -0.092 C  
HETATM   11  C   UNL     1      -6.436   5.130  68.304  1.00  0.00    -0.040 C  
HETATM   12  N   UNL     1      -5.397   4.682  68.047  1.00  0.00    -0.011 NA 
ENDBRANCH   4   9
BRANCH   5  13
HETATM   13  N   UNL     1     -12.162  10.199  70.828  1.00  0.00    -0.317 NA 
HETATM   14  H   UNL     1     -12.904   9.811  71.410  1.00  0.00     0.000 HD 
BRANCH  13  15
HETATM   15  C   UNL     1     -12.214  11.603  70.668  1.00  0.00    -0.366 A  
HETATM   16  C   UNL     1     -12.696  12.363  71.712  1.00  0.00    -0.249 A  
HETATM   17  C   UNL     1     -12.720  13.723  71.520  1.00  0.00    -0.346 A  
HETATM   18  N   UNL     1     -12.288  14.321  70.396  1.00  0.00    -0.333 NA 
HETATM   19  C   UNL     1     -11.837  13.515  69.423  1.00  0.00    -0.335 A  
HETATM   20  N   UNL     1     -11.787  12.180  69.539  1.00  0.00    -0.322 NA 
BRANCH  19  21
HETATM   21  N   UNL     1     -11.416  14.151  68.253  1.00  0.00    -0.286 NA 
HETATM   22  H   UNL     1     -11.748  13.715  67.392  1.00  0.00     0.000 HD 
BRANCH  21  23
HETATM   23  C   UNL     1     -10.615  15.284  68.059  1.00  0.00    -0.261 A  
HETATM   24  C   UNL     1     -10.947  16.554  68.543  1.00  0.00    -0.350 A  
HETATM   25  C   UNL     1     -10.108  17.653  68.371  1.00  0.00    -0.368 A  
HETATM   26  C   UNL     1      -8.905  17.504  67.680  1.00  0.00    -0.228 A  
HETATM   27  C   UNL     1      -8.027  18.625  67.542  1.00  0.00    -0.244 C  
HETATM   28  C   UNL     1      -8.575  16.263  67.138  1.00  0.00    -0.207 A  
HETATM   29  C   UNL     1      -9.425  15.164  67.322  1.00  0.00    -0.214 A  
HETATM   30  N   UNL     1      -7.313  19.538  67.448  1.00  0.00    -0.228 NA 
ENDBRANCH  21  23
ENDBRANCH  19  21
ENDBRANCH  13  15
ENDBRANCH   5  13
TORSDOF 5
ENDMDL
MODEL      192
REMARK 921   NORMALIZED FREE ENERGY PREDICTED BY IDOCK:   -3.05 KCAL/MOL
REMARK 922        TOTAL FREE ENERGY PREDICTED BY IDOCK:   -4.72 KCAL/MOL
REMARK 923 INTER-LIGAND FREE ENERGY PREDICTED BY IDOCK:   -3.75 KCAL/MOL
REMARK 924 INTRA-LIGAND FREE ENERGY PREDICTED BY IDOCK:   -0.97 KCAL/MOL
REMARK 927      BINDING AFFINITY PREDICTED BY RF-SCORE:    0.00 PKD
ROOT
HETATM    1  C   UNL     1     -11.377  18.467  67.072  1.00  0.00     0.733 C  
HETATM    2  C   UNL     1     -10.980  17.080  67.497  1.00  0.00    -0.119 A  
HETATM    3  C   UNL     1     -11.782  16.472  68.487  1.00  0.00     0.128 A  
HETATM    4  C   UNL     1     -11.523  15.194  68.987  1.00  0.00    -0.325 A  
HETATM    5  C   UNL     1      -9.822  16.414  67.037  1.00  0.00    -0.251 A  
HETATM    6  C   UNL     1     -10.455  14.486  68.437  1.00  0.00    -0.246 A  
HETATM    7  C   UNL     1      -8.531  14.210  66.859  1.00  0.00    -0.117 C  
HETATM    8  C   UNL     1      -9.619  15.069  67.455  1.00  0.00    -0.203 A  
ENDROOT
BRANCH   4   9
HETATM    9  C   UNL     1     -12.356  14.720  70.106  1.00  0.00    -0.381 C  
HETATM   10  C   UNL     1     -12.739  15.431  71.175  1.00  0.00    -0.503 C  
HETATM   11  C   UNL     1     -13.509  14.837  72.217  1.00  0.00    -0.409 C  
HETATM   12  N   UNL     1     -14.127  14.340  73.063  1.00  0.00    -0.200 NA 
ENDBRANCH   4   9
BRANCH   5  13
HETATM   13  N   UNL     1      -8.824  17.071  66.271  1.00  0.00    -0.391 NA 
HETATM   14  H   UNL     1      -9.028  17.135  65.273  1.00  0.00     0.000 HD 
BRANCH  13  15
HETATM   15  C   UNL     1      -7.596  17.653  66.658  1.00  0.00    -0.238 A  
HETATM   16  C   UNL     1      -7.066  18.650  65.867  1.00  0.00    -0.290 A  
HETATM   17  C   UNL     1      -5.876  19.197  66.284  1.00  0.00    -0.161 A  
HETATM   18  N   UNL     1      -5.241  18.820  67.408  1.00  0.00    -0.155 NA 
HETATM   19  C   UNL     1      -5.815  17.841  68.122  1.00  0.00    -0.161 A  
HETATM   20  N   UNL     1      -6.974  17.260  67.775  1.00  0.00    -0.158 NA 
BRANCH  19  21
HETATM   21  N   UNL     1      -5.130  17.445  69.273  1.00  0.00    -0.161 NA 
HETATM   22  H   UNL     1      -4.459  18.129  69.622  1.00  0.00     0.000 HD 
BRANCH  21  23
HETATM   23  C   UNL     1      -5.206  16.268  70.029  1.00  0.00    -0.152 A  
HETATM   24  C   UNL     1      -5.224  14.988  69.463  1.00  0.00    -0.088 A  
HETATM   25  C   UNL     1      -5.255  13.835  70.245  1.00  0.00    -0.099 A  
HETATM   26  C   UNL     1      -5.292  13.942  71.635  1.00  0.00    -0.215 A  
HETATM   27  C   UNL     1      -5.282  12.756  72.434  1.00  0.00     0.207 C  
HETATM   28  C   UNL     1      -5.332  15.205  72.225  1.00  0.00     0.130 A  
HETATM   29  C   UNL     1      -5.295  16.357  71.429  1.00  0.00     0.135 A  
HETATM   30  N   UNL     1      -5.259  11.787  73.076  1.00  0.00    -0.058 NA 
ENDBRANCH  21  23
ENDBRANCH  19  21
ENDBRANCH  13  15
ENDBRANCH   5  13
TORSDOF 5
ENDMDL
MODEL      193
REMARK 921   NORMALIZED FREE ENERGY PREDICTED BY IDOCK:   -2.78 KCAL/MOL
REMARK 922        TOTAL FREE ENERGY PREDICTED BY IDOCK:   -4.38 KCAL/MOL
REMARK 923 INTER-LIGAND FREE ENERGY PREDICTED BY IDOCK:   -3.46 KCAL/MOL
REMARK 924 INTRA-LIGAND FREE ENERGY PREDICTED BY IDOCK:   -0.92 KCAL/MOL
REMARK 927      BINDING AFFINITY PREDICTED BY RF-SCORE:    0.00 PKD
ROOT
HETATM    1  C   UNL     1      -6.434  16.613  66.317  1.00  0.00     0.401 C  
HETATM    2  C   UNL     1      -7.270  16.088  67.451  1.00  0.00    -0.219 A  
HETATM    3  C   UNL     1      -6.601  15.297  68.410  1.00  0.00    -0.110 A  
HETATM    4  C   UNL     1      -7.254  14.731  69.508  1.00  0.00    -0.160 A  
HETATM    5  C   UNL     1      -8.668  16.264  67.550  1.00  0.00    -0.181 A  
HETATM    6  C   UNL     1      -8.609  15.014  69.675  1.00  0.00     0.005 A  
HETATM    7  C   UNL     1     -10.761  16.111  69.016  1.00  0.00    -0.287 C  
HETATM    8  C   UNL     1      -9.316  15.790  68.725  1.00  0.00    -0.218 A  
ENDROOT
BRANCH   4   9
HETATM    9  C   UNL     1      -6.474  13.823  70.368  1.00  0.00     0.084 C  
HETATM   10  C   UNL     1      -6.530  12.484  70.375  1.00  0.00     0.465 C  
HETATM   11  C   UNL     1      -5.755  11.720  71.295  1.00  0.00     0.269 C  
HETATM   12  N   UNL     1      -5.127  11.109  72.055  1.00  0.00    -0.321 NA 
ENDBRANCH   4   9
BRANCH   5  13
HETATM   13  N   UNL     1      -9.442  16.794  66.484  1.00  0.00    -0.253 NA 
HETATM   14  H   UNL     1      -9.296  17.788  66.307  1.00  0.00     0.000 HD 
BRANCH  13  15
HETATM   15  C   UNL     1     -10.381  16.176  65.628  1.00  0.00    -0.382 A  
HETATM   16  C   UNL     1     -11.090  16.970  64.752  1.00  0.00     0.227 A  
HETATM   17  C   UNL     1     -11.984  16.329  63.930  1.00  0.00     0.972 A  
HETATM   18  N   UNL     1     -12.173  14.999  63.935  1.00  0.00    -0.574 NA 
HETATM   19  C   UNL     1     -11.451  14.293  64.817  1.00  0.00    -0.393 A  
HETATM   20  N   UNL     1     -10.562  14.851  65.653  1.00  0.00    -0.321 NA 
BRANCH  19  21
HETATM   21  N   UNL     1     -11.678  12.915  64.827  1.00  0.00    -0.329 NA 
HETATM   22  H   UNL     1     -12.650  12.648  64.981  1.00  0.00     0.000 HD 
BRANCH  21  23
HETATM   23  C   UNL     1     -10.799  11.837  64.661  1.00  0.00    -0.307 A  
HETATM   24  C   UNL     1     -10.421  11.337  63.410  1.00  0.00    -0.424 A  
HETATM   25  C   UNL     1      -9.510  10.291  63.276  1.00  0.00    -0.342 A  
HETATM   26  C   UNL     1      -8.965   9.699  64.416  1.00  0.00    -0.276 A  
HETATM   27  C   UNL     1      -7.999   8.653  64.274  1.00  0.00    -0.148 C  
HETATM   28  C   UNL     1      -9.367  10.138  65.676  1.00  0.00    -0.250 A  
HETATM   29  C   UNL     1     -10.280  11.194  65.797  1.00  0.00    -0.310 A  
HETATM   30  N   UNL     1      -7.204   7.814  64.149  1.00  0.00    -0.075 NA 
ENDBRANCH  21  23
ENDBRANCH  19  21
ENDBRANCH  13  15
ENDBRANCH   5  13
TORSDOF 5
ENDMDL
MODEL      194
REMARK 921   NORMALIZED FREE ENERGY PREDICTED BY IDOCK:   -2.78 KCAL/MOL
REMARK 922        TOTAL FREE ENERGY PREDICTED BY IDOCK:   -4.37 KCAL/MOL
REMARK 923 INTER-LIGAND FREE ENERGY PREDICTED BY IDOCK:   -3.52 KCAL/MOL
REMARK 924 INTRA-LIGAND FREE ENERGY PREDICTED BY IDOCK:   -0.85 KCAL/MOL
REMARK 927      BINDING AFFINITY PREDICTED BY RF-SCORE:    0.00 PKD
ROOT
HETATM    1  C   UNL     1      -9.860  14.087  68.603  1.00  0.00    -0.191 C  
HETATM    2  C   UNL     1      -9.778  15.588  68.621  1.00  0.00    -0.208 A  
HETATM    3  C   UNL     1      -9.133  16.196  67.522  1.00  0.00    -0.207 A  
HETATM    4  C   UNL     1      -8.971  17.579  67.413  1.00  0.00    -0.230 A  
HETATM    5  C   UNL     1     -10.216  16.391  69.698  1.00  0.00    -0.198 A  
HETATM    6  C   UNL     1      -9.520  18.378  68.415  1.00  0.00    -0.352 A  
HETATM    7  C   UNL     1     -10.790  18.739  70.543  1.00  0.00     2.731 C  
HETATM    8  C   UNL     1     -10.159  17.804  69.540  1.00  0.00     0.126 A  
ENDROOT
BRANCH   4   9
HETATM    9  C   UNL     1      -8.172  18.083  66.282  1.00  0.00    -0.242 C  
HETATM   10  C   UNL     1      -7.361  19.150  66.288  1.00  0.00    -0.278 C  
HETATM   11  C   UNL     1      -6.678  19.561  65.107  1.00  0.00    -0.198 C  
HETATM   12  N   UNL     1      -6.135  19.893  64.137  1.00  0.00    -0.282 NA 
ENDBRANCH   4   9
BRANCH   5  13
HETATM   13  N   UNL     1     -10.604  15.837  70.946  1.00  0.00    -0.042 NA 
HETATM   14  H   UNL     1      -9.905  15.922  71.684  1.00  0.00     0.000 HD 
BRANCH  13  15
HETATM   15  C   UNL     1     -11.797  15.188  71.338  1.00  0.00    -0.362 A  
HETATM   16  C   UNL     1     -12.901  15.963  71.620  1.00  0.00    -0.422 A  
HETATM   17  C   UNL     1     -14.043  15.293  71.986  1.00  0.00    -0.562 A  
HETATM   18  N   UNL     1     -14.125  13.954  72.060  1.00  0.00    -0.490 NA 
HETATM   19  C   UNL     1     -13.009  13.267  71.777  1.00  0.00    -0.335 A  
HETATM   20  N   UNL     1     -11.857  13.854  71.414  1.00  0.00     0.043 NA 
BRANCH  19  21
HETATM   21  N   UNL     1     -13.104  11.878  71.883  1.00  0.00    -0.437 NA 
HETATM   22  H   UNL     1     -13.777  11.553  72.577  1.00  0.00     0.000 HD 
BRANCH  21  23
HETATM   23  C   UNL     1     -12.434  10.855  71.199  1.00  0.00    -0.405 A  
HETATM   24  C   UNL     1     -11.809   9.781  71.842  1.00  0.00    -0.193 A  
HETATM   25  C   UNL     1     -11.188   8.755  71.132  1.00  0.00    -0.339 A  
HETATM   26  C   UNL     1     -11.163   8.796  69.737  1.00  0.00    -0.002 A  
HETATM   27  C   UNL     1     -10.561   7.720  69.011  1.00  0.00    -0.166 C  
HETATM   28  C   UNL     1     -11.729   9.882  69.072  1.00  0.00     0.203 A  
HETATM   29  C   UNL     1     -12.354  10.905  69.797  1.00  0.00    -0.326 A  
HETATM   30  N   UNL     1     -10.083   6.834  68.429  1.00  0.00    -0.155 NA 
ENDBRANCH  21  23
ENDBRANCH  19  21
ENDBRANCH  13  15
ENDBRANCH   5  13
TORSDOF 5
ENDMDL
MODEL      195
REMARK 921   NORMALIZED FREE ENERGY PREDICTED BY IDOCK:   -2.70 KCAL/MOL
REMARK 922        TOTAL FREE ENERGY PREDICTED BY IDOCK:   -4.26 KCAL/MOL
REMARK 923 INTER-LIGAND FREE ENERGY PREDICTED BY IDOCK:   -5.24 KCAL/MOL
REMARK 924 INTRA-LIGAND FREE ENERGY PREDICTED BY IDOCK:    0.98 KCAL/MOL
REMARK 927      BINDING AFFINITY PREDICTED BY RF-SCORE:    0.00 PKD
ROOT
HETATM    1  C   UNL     1      -8.618  13.483  66.840  1.00  0.00    -0.114 C  
HETATM    2  C   UNL     1      -9.534  12.564  66.080  1.00  0.00    -0.154 A  
HETATM    3  C   UNL     1      -9.445  11.190  66.392  1.00  0.00    -0.216 A  
HETATM    4  C   UNL     1     -10.224  10.221  65.755  1.00  0.00    -0.289 A  
HETATM    5  C   UNL     1     -10.385  12.984  65.034  1.00  0.00    -0.318 A  
HETATM    6  C   UNL     1     -11.157  10.653  64.814  1.00  0.00     0.498 A  
HETATM    7  C   UNL     1     -12.347  12.415  63.491  1.00  0.00    -0.648 C  
HETATM    8  C   UNL     1     -11.263  12.021  64.463  1.00  0.00    -0.390 A  
ENDROOT
BRANCH   4   9
HETATM    9  C   UNL     1      -9.950   8.809  66.078  1.00  0.00    -0.153 C  
HETATM   10  C   UNL     1      -8.928   8.339  66.804  1.00  0.00    -0.174 C  
HETATM   11  C   UNL     1      -8.749   6.939  67.003  1.00  0.00    -0.119 C  
HETATM   12  N   UNL     1      -8.609   5.797  67.150  1.00  0.00    -0.110 NA 
ENDBRANCH   4   9
BRANCH   5  13
HETATM   13  N   UNL     1     -10.313  14.289  64.477  1.00  0.00    -0.593 NA 
HETATM   14  H   UNL     1     -10.393  14.321  63.461  1.00  0.00     0.000 HD 
BRANCH  13  15
HETATM   15  C   UNL     1     -10.151  15.549  65.095  1.00  0.00    -0.227 A  
HETATM   16  C   UNL     1     -11.092  16.526  64.846  1.00  0.00    -0.199 A  
HETATM   17  C   UNL     1     -10.904  17.733  65.474  1.00  0.00     0.087 A  
HETATM   18  N   UNL     1      -9.880  17.982  66.309  1.00  0.00    -0.441 NA 
HETATM   19  C   UNL     1      -9.002  16.986  66.497  1.00  0.00    -0.269 A  
HETATM   20  N   UNL     1      -9.121  15.782  65.916  1.00  0.00    -0.318 NA 
BRANCH  19  21
HETATM   21  N   UNL     1      -7.931  17.270  67.347  1.00  0.00    -0.183 NA 
HETATM   22  H   UNL     1      -7.511  18.188  67.205  1.00  0.00     0.000 HD 
BRANCH  21  23
HETATM   23  C   UNL     1      -7.334  16.509  68.361  1.00  0.00    -0.179 A  
HETATM   24  C   UNL     1      -5.965  16.548  68.648  1.00  0.00    -0.132 A  
HETATM   25  C   UNL     1      -5.408  15.812  69.692  1.00  0.00    -0.114 A  
HETATM   26  C   UNL     1      -6.223  14.991  70.472  1.00  0.00    -0.049 A  
HETATM   27  C   UNL     1      -5.654  14.270  71.569  1.00  0.00    -0.199 C  
HETATM   28  C   UNL     1      -7.581  14.890  70.173  1.00  0.00     0.330 A  
HETATM   29  C   UNL     1      -8.130  15.638  69.124  1.00  0.00    -0.238 A  
HETATM   30  N   UNL     1      -5.186  13.700  72.467  1.00  0.00    -0.332 NA 
ENDBRANCH  21  23
ENDBRANCH  19  21
ENDBRANCH  13  15
ENDBRANCH   5  13
TORSDOF 5
ENDMDL
MODEL      196
REMARK 921   NORMALIZED FREE ENERGY PREDICTED BY IDOCK:   -2.65 KCAL/MOL
REMARK 922        TOTAL FREE ENERGY PREDICTED BY IDOCK:   -4.21 KCAL/MOL
REMARK 923 INTER-LIGAND FREE ENERGY PREDICTED BY IDOCK:   -3.23 KCAL/MOL
REMARK 924 INTRA-LIGAND FREE ENERGY PREDICTED BY IDOCK:   -0.97 KCAL/MOL
REMARK 927      BINDING AFFINITY PREDICTED BY RF-SCORE:    0.00 PKD
ROOT
HETATM    1  C   UNL     1      -9.435   9.940  69.587  1.00  0.00    -0.252 C  
HETATM    2  C   UNL     1      -8.238  10.646  69.014  1.00  0.00    -0.151 A  
HETATM    3  C   UNL     1      -7.502  11.458  69.903  1.00  0.00     0.614 A  
HETATM    4  C   UNL     1      -6.377  12.184  69.505  1.00  0.00    -0.122 A  
HETATM    5  C   UNL     1      -7.881  10.614  67.648  1.00  0.00    -0.105 A  
HETATM    6  C   UNL     1      -5.949  12.048  68.186  1.00  0.00    -0.053 A  
HETATM    7  C   UNL     1      -6.102  11.103  65.872  1.00  0.00     0.006 C  
HETATM    8  C   UNL     1      -6.671  11.256  67.261  1.00  0.00    -0.104 A  
ENDROOT
BRANCH   4   9
HETATM    9  C   UNL     1      -5.769  13.092  70.495  1.00  0.00    -0.176 C  
HETATM   10  C   UNL     1      -6.414  13.809  71.426  1.00  0.00     0.977 C  
HETATM   11  C   UNL     1      -5.709  14.691  72.295  1.00  0.00     0.198 C  
HETATM   12  N   UNL     1      -5.126  15.413  72.989  1.00  0.00     0.239 NA 
ENDBRANCH   4   9
BRANCH   5  13
HETATM   13  N   UNL     1      -8.733  10.061  66.655  1.00  0.00    -0.128 NA 
HETATM   14  H   UNL     1      -8.893   9.058  66.745  1.00  0.00     0.000 HD 
BRANCH  13  15
HETATM   15  C   UNL     1      -9.396  10.667  65.564  1.00  0.00    -0.205 A  
HETATM   16  C   UNL     1      -9.588   9.923  64.420  1.00  0.00    -0.257 A  
HETATM   17  C   UNL     1     -10.246  10.546  63.387  1.00  0.00     0.032 A  
HETATM   18  N   UNL     1     -10.709  11.806  63.455  1.00  0.00    -0.416 NA 
HETATM   19  C   UNL     1     -10.479  12.468  64.598  1.00  0.00    -0.319 A  
HETATM   20  N   UNL     1      -9.842  11.926  65.647  1.00  0.00    -0.239 NA 
BRANCH  19  21
HETATM   21  N   UNL     1     -10.944  13.784  64.644  1.00  0.00    -0.386 NA 
HETATM   22  H   UNL     1     -11.587  14.032  63.891  1.00  0.00     0.000 HD 
BRANCH  21  23
HETATM   23  C   UNL     1     -10.679  14.823  65.545  1.00  0.00    -0.357 A  
HETATM   24  C   UNL     1      -9.856  15.914  65.243  1.00  0.00    -0.031 A  
HETATM   25  C   UNL     1      -9.647  16.955  66.146  1.00  0.00    -0.280 A  
HETATM   26  C   UNL     1     -10.252  16.912  67.402  1.00  0.00    -0.298 A  
HETATM   27  C   UNL     1     -10.068  18.003  68.311  1.00  0.00    -0.385 C  
HETATM   28  C   UNL     1     -11.030  15.811  67.752  1.00  0.00    -0.314 A  
HETATM   29  C   UNL     1     -11.237  14.773  66.833  1.00  0.00    -0.347 A  
HETATM   30  N   UNL     1      -9.925  18.899  69.036  1.00  0.00    -0.373 NA 
ENDBRANCH  21  23
ENDBRANCH  19  21
ENDBRANCH  13  15
ENDBRANCH   5  13
TORSDOF 5
ENDMDL
MODEL      197
REMARK 921   NORMALIZED FREE ENERGY PREDICTED BY IDOCK:   -2.08 KCAL/MOL
REMARK 922        TOTAL FREE ENERGY PREDICTED BY IDOCK:   -3.47 KCAL/MOL
REMARK 923 INTER-LIGAND FREE ENERGY PREDICTED BY IDOCK:   -2.38 KCAL/MOL
REMARK 924 INTRA-LIGAND FREE ENERGY PREDICTED BY IDOCK:   -1.09 KCAL/MOL
REMARK 927      BINDING AFFINITY PREDICTED BY RF-SCORE:    0.00 PKD
ROOT
HETATM    1  C   UNL     1      -6.410  16.613  66.373  1.00  0.00     0.241 C  
HETATM    2  C   UNL     1      -7.243  16.269  67.576  1.00  0.00    -0.179 A  
HETATM    3  C   UNL     1      -6.568  15.655  68.653  1.00  0.00    -0.110 A  
HETATM    4  C   UNL     1      -7.219  15.267  69.827  1.00  0.00    -0.146 A  
HETATM    5  C   UNL     1      -8.644  16.439  67.641  1.00  0.00    -0.174 A  
HETATM    6  C   UNL     1      -8.578  15.554  69.942  1.00  0.00     0.192 A  
HETATM    7  C   UNL     1     -10.742  16.499  69.108  1.00  0.00    -0.335 C  
HETATM    8  C   UNL     1      -9.291  16.155  68.876  1.00  0.00    -0.235 A  
ENDROOT
BRANCH   4   9
HETATM    9  C   UNL     1      -6.431  14.522  70.825  1.00  0.00     0.076 C  
HETATM   10  C   UNL     1      -6.732  14.357  72.121  1.00  0.00     1.904 C  
HETATM   11  C   UNL     1      -5.857  13.651  72.996  1.00  0.00     0.552 C  
HETATM   12  N   UNL     1      -5.132  13.084  73.700  1.00  0.00    -0.383 NA 
ENDBRANCH   4   9
BRANCH   5  13
HETATM   13  N   UNL     1      -9.420  16.777  66.502  1.00  0.00    -0.253 NA 
HETATM   14  H   UNL     1      -9.331  17.748  66.200  1.00  0.00     0.000 HD 
BRANCH  13  15
HETATM   15  C   UNL     1     -10.295  15.995  65.715  1.00  0.00    -0.378 A  
HETATM   16  C   UNL     1     -11.100  16.636  64.796  1.00  0.00    -0.120 A  
HETATM   17  C   UNL     1     -11.927  15.839  64.044  1.00  0.00     0.156 A  
HETATM   18  N   UNL     1     -11.968  14.500  64.154  1.00  0.00    -0.380 NA 
HETATM   19  C   UNL     1     -11.161  13.948  65.073  1.00  0.00    -0.353 A  
HETATM   20  N   UNL     1     -10.328  14.664  65.844  1.00  0.00    -0.303 NA 
BRANCH  19  21
HETATM   21  N   UNL     1     -11.233  12.559  65.192  1.00  0.00    -0.296 NA 
HETATM   22  H   UNL     1     -11.431  12.070  64.319  1.00  0.00     0.000 HD 
BRANCH  21  23
HETATM   23  C   UNL     1     -11.080  11.722  66.304  1.00  0.00    -0.311 A  
HETATM   24  C   UNL     1     -10.088  10.739  66.398  1.00  0.00    -0.278 A  
HETATM   25  C   UNL     1      -9.934   9.951  67.537  1.00  0.00    -0.229 A  
HETATM   26  C   UNL     1     -10.800  10.120  68.618  1.00  0.00    -0.272 A  
HETATM   27  C   UNL     1     -10.612   9.338  69.801  1.00  0.00    -0.231 C  
HETATM   28  C   UNL     1     -11.832  11.052  68.530  1.00  0.00    -0.286 A  
HETATM   29  C   UNL     1     -11.974  11.842  67.381  1.00  0.00    -0.050 A  
HETATM   30  N   UNL     1     -10.442   8.709  70.764  1.00  0.00    -0.197 NA 
ENDBRANCH  21  23
ENDBRANCH  19  21
ENDBRANCH  13  15
ENDBRANCH   5  13
TORSDOF 5
ENDMDL
MODEL      198
REMARK 921   NORMALIZED FREE ENERGY PREDICTED BY IDOCK:   -1.95 KCAL/MOL
REMARK 922        TOTAL FREE ENERGY PREDICTED BY IDOCK:   -3.30 KCAL/MOL
REMARK 923 INTER-LIGAND FREE ENERGY PREDICTED BY IDOCK:   -2.25 KCAL/MOL
REMARK 924 INTRA-LIGAND FREE ENERGY PREDICTED BY IDOCK:   -1.05 KCAL/MOL
REMARK 927      BINDING AFFINITY PREDICTED BY RF-SCORE:    0.00 PKD
ROOT
HETATM    1  C   UNL     1     -11.138  18.554  66.918  1.00  0.00     0.163 C  
HETATM    2  C   UNL     1     -11.171  17.182  67.533  1.00  0.00     0.172 A  
HETATM    3  C   UNL     1     -11.968  17.032  68.688  1.00  0.00     1.338 A  
HETATM    4  C   UNL     1     -12.081  15.819  69.373  1.00  0.00    -0.245 A  
HETATM    5  C   UNL     1     -10.392  16.094  67.081  1.00  0.00    -0.291 A  
HETATM    6  C   UNL     1     -11.414  14.713  68.849  1.00  0.00    -0.323 A  
HETATM    7  C   UNL     1      -9.964  13.571  67.157  1.00  0.00    -0.246 C  
HETATM    8  C   UNL     1     -10.593  14.830  67.702  1.00  0.00    -0.262 A  
ENDROOT
BRANCH   4   9
HETATM    9  C   UNL     1     -12.842  15.820  70.636  1.00  0.00    -0.269 C  
HETATM   10  C   UNL     1     -12.364  16.096  71.857  1.00  0.00    -0.442 C  
HETATM   11  C   UNL     1     -13.199  16.013  73.009  1.00  0.00    -0.498 C  
HETATM   12  N   UNL     1     -13.885  15.933  73.940  1.00  0.00     0.225 NA 
ENDBRANCH   4   9
BRANCH   5  13
HETATM   13  N   UNL     1      -9.362  16.249  66.116  1.00  0.00    -0.317 NA 
HETATM   14  H   UNL     1      -9.670  16.155  65.148  1.00  0.00     0.000 HD 
BRANCH  13  15
HETATM   15  C   UNL     1      -7.982  16.512  66.272  1.00  0.00    -0.272 A  
HETATM   16  C   UNL     1      -7.422  17.530  65.529  1.00  0.00     0.610 A  
HETATM   17  C   UNL     1      -6.081  17.760  65.718  1.00  0.00    -0.157 A  
HETATM   18  N   UNL     1      -5.325  17.065  66.585  1.00  0.00    -0.292 NA 
HETATM   19  C   UNL     1      -5.939  16.087  67.268  1.00  0.00    -0.071 A  
HETATM   20  N   UNL     1      -7.243  15.804  67.134  1.00  0.00    -0.213 NA 
BRANCH  19  21
HETATM   21  N   UNL     1      -5.133  15.359  68.145  1.00  0.00    -0.114 NA 
HETATM   22  H   UNL     1      -4.209  15.761  68.303  1.00  0.00     0.000 HD 
BRANCH  21  23
HETATM   23  C   UNL     1      -5.376  14.170  68.846  1.00  0.00    -0.083 A  
HETATM   24  C   UNL     1      -5.577  14.120  70.230  1.00  0.00    -0.124 A  
HETATM   25  C   UNL     1      -5.861  12.927  70.892  1.00  0.00    -0.008 A  
HETATM   26  C   UNL     1      -5.930  11.734  70.171  1.00  0.00    -0.162 A  
HETATM   27  C   UNL     1      -6.262  10.519  70.848  1.00  0.00     0.065 C  
HETATM   28  C   UNL     1      -5.679  11.747  68.800  1.00  0.00    -0.049 A  
HETATM   29  C   UNL     1      -5.399  12.953  68.145  1.00  0.00    -0.085 A  
HETATM   30  N   UNL     1      -6.548   9.538  71.404  1.00  0.00    -0.298 NA 
ENDBRANCH  21  23
ENDBRANCH  19  21
ENDBRANCH  13  15
ENDBRANCH   5  13
TORSDOF 5
ENDMDL
MODEL      199
REMARK 921   NORMALIZED FREE ENERGY PREDICTED BY IDOCK:   -1.88 KCAL/MOL
REMARK 922        TOTAL FREE ENERGY PREDICTED BY IDOCK:   -3.20 KCAL/MOL
REMARK 923 INTER-LIGAND FREE ENERGY PREDICTED BY IDOCK:   -3.41 KCAL/MOL
REMARK 924 INTRA-LIGAND FREE ENERGY PREDICTED BY IDOCK:    0.20 KCAL/MOL
REMARK 927      BINDING AFFINITY PREDICTED BY RF-SCORE:    0.00 PKD
ROOT
HETATM    1  C   UNL     1      -5.509  12.221  67.020  1.00  0.00    -0.020 C  
HETATM    2  C   UNL     1      -6.422  13.309  67.511  1.00  0.00    -0.143 A  
HETATM    3  C   UNL     1      -5.959  14.634  67.359  1.00  0.00     0.238 A  
HETATM    4  C   UNL     1      -6.694  15.743  67.784  1.00  0.00    -0.178 A  
HETATM    5  C   UNL     1      -7.642  13.074  68.183  1.00  0.00    -0.136 A  
HETATM    6  C   UNL     1      -7.956  15.515  68.329  1.00  0.00    -0.132 A  
HETATM    7  C   UNL     1      -9.852  14.042  69.042  1.00  0.00     0.005 C  
HETATM    8  C   UNL     1      -8.448  14.200  68.512  1.00  0.00    -0.157 A  
ENDROOT
BRANCH   4   9
HETATM    9  C   UNL     1      -6.049  17.065  67.685  1.00  0.00    -0.158 C  
HETATM   10  C   UNL     1      -6.535  18.228  68.138  1.00  0.00    -0.189 C  
HETATM   11  C   UNL     1      -5.830  19.450  67.935  1.00  0.00    -0.201 C  
HETATM   12  N   UNL     1      -5.252  20.439  67.754  1.00  0.00    -0.180 NA 
ENDBRANCH   4   9
BRANCH   5  13
HETATM   13  N   UNL     1      -8.027  11.781  68.624  1.00  0.00    -0.231 NA 
HETATM   14  H   UNL     1      -7.422  11.379  69.341  1.00  0.00     0.000 HD 
BRANCH  13  15
HETATM   15  C   UNL     1      -9.107  10.956  68.237  1.00  0.00    -0.158 A  
HETATM   16  C   UNL     1     -10.148  11.528  67.537  1.00  0.00    -0.203 A  
HETATM   17  C   UNL     1     -11.173  10.690  67.170  1.00  0.00    -0.100 A  
HETATM   18  N   UNL     1     -11.189   9.374  67.444  1.00  0.00     0.197 NA 
HETATM   19  C   UNL     1     -10.144   8.892  68.132  1.00  0.00    -0.189 A  
HETATM   20  N   UNL     1      -9.110   9.650  68.526  1.00  0.00    -0.130 NA 
BRANCH  19  21
HETATM   21  N   UNL     1     -10.189   7.528  68.430  1.00  0.00    -0.181 NA 
HETATM   22  H   UNL     1     -10.695   7.298  69.286  1.00  0.00     0.000 HD 
BRANCH  21  23
HETATM   23  C   UNL     1      -9.657   6.421  67.755  1.00  0.00    -0.121 A  
HETATM   24  C   UNL     1     -10.444   5.471  67.096  1.00  0.00    -0.321 A  
HETATM   25  C   UNL     1      -9.884   4.404  66.396  1.00  0.00    -0.245 A  
HETATM   26  C   UNL     1      -8.497   4.254  66.359  1.00  0.00    -0.112 A  
HETATM   27  C   UNL     1      -7.924   3.181  65.605  1.00  0.00    -0.086 C  
HETATM   28  C   UNL     1      -7.691   5.153  67.054  1.00  0.00    -0.092 A  
HETATM   29  C   UNL     1      -8.266   6.224  67.750  1.00  0.00    -0.118 A  
HETATM   30  N   UNL     1      -7.467   2.316  64.977  1.00  0.00    -0.066 NA 
ENDBRANCH  21  23
ENDBRANCH  19  21
ENDBRANCH  13  15
ENDBRANCH   5  13
TORSDOF 5
ENDMDL
MODEL      200
REMARK 921   NORMALIZED FREE ENERGY PREDICTED BY IDOCK:   -1.77 KCAL/MOL
REMARK 922        TOTAL FREE ENERGY PREDICTED BY IDOCK:   -3.07 KCAL/MOL
REMARK 923 INTER-LIGAND FREE ENERGY PREDICTED BY IDOCK:   -2.94 KCAL/MOL
REMARK 924 INTRA-LIGAND FREE ENERGY PREDICTED BY IDOCK:   -0.13 KCAL/MOL
REMARK 927      BINDING AFFINITY PREDICTED BY RF-SCORE:    0.00 PKD
ROOT
HETATM    1  C   UNL     1      -8.472  11.074  64.990  1.00  0.00     0.074 C  
HETATM    2  C   UNL     1      -7.823  11.126  66.345  1.00  0.00    -0.136 A  
HETATM    3  C   UNL     1      -7.905  12.355  67.034  1.00  0.00    -0.086 A  
HETATM    4  C   UNL     1      -7.335  12.552  68.294  1.00  0.00    -0.115 A  
HETATM    5  C   UNL     1      -7.076  10.066  66.904  1.00  0.00    -0.090 A  
HETATM    6  C   UNL     1      -6.710  11.465  68.902  1.00  0.00    -0.080 A  
HETATM    7  C   UNL     1      -5.967   9.075  68.989  1.00  0.00    -0.043 C  
HETATM    8  C   UNL     1      -6.594  10.222  68.235  1.00  0.00    -0.057 A  
ENDROOT
BRANCH   4   9
HETATM    9  C   UNL     1      -7.380  13.915  68.855  1.00  0.00    -0.088 C  
HETATM   10  C   UNL     1      -7.988  14.981  68.318  1.00  0.00    -0.128 C  
HETATM   11  C   UNL     1      -7.915  16.261  68.940  1.00  0.00    -0.230 C  
HETATM   12  N   UNL     1      -7.839  17.300  69.450  1.00  0.00     0.101 NA 
ENDBRANCH   4   9
BRANCH   5  13
HETATM   13  N   UNL     1      -6.710   8.918  66.153  1.00  0.00    -0.069 NA 
HETATM   14  H   UNL     1      -6.495   9.103  65.173  1.00  0.00     0.000 HD 
BRANCH  13  15
HETATM   15  C   UNL     1      -6.594   7.562  66.536  1.00  0.00    -0.053 A  
HETATM   16  C   UNL     1      -5.410   6.907  66.272  1.00  0.00    -0.022 A  
HETATM   17  C   UNL     1      -5.334   5.595  66.670  1.00  0.00    -0.012 A  
HETATM   18  N   UNL     1      -6.332   4.952  67.301  1.00  0.00    -0.039 NA 
HETATM   19  C   UNL     1      -7.455   5.653  67.517  1.00  0.00    -0.081 A  
HETATM   20  N   UNL     1      -7.601   6.937  67.155  1.00  0.00    -0.104 NA 
BRANCH  19  21
HETATM   21  N   UNL     1      -8.490   4.964  68.151  1.00  0.00    -0.102 NA 
HETATM   22  H   UNL     1      -9.023   4.345  67.539  1.00  0.00     0.000 HD 
BRANCH  21  23
HETATM   23  C   UNL     1      -8.924   4.976  69.483  1.00  0.00    -0.096 A  
HETATM   24  C   UNL     1      -8.968   6.134  70.268  1.00  0.00    -0.154 A  
HETATM   25  C   UNL     1      -9.446   6.122  71.577  1.00  0.00    -0.161 A  
HETATM   26  C   UNL     1      -9.879   4.923  72.144  1.00  0.00    -0.226 A  
HETATM   27  C   UNL     1     -10.407   4.922  73.474  1.00  0.00    -0.202 C  
HETATM   28  C   UNL     1      -9.793   3.744  71.405  1.00  0.00    -0.226 A  
HETATM   29  C   UNL     1      -9.315   3.770  70.089  1.00  0.00    -0.244 A  
HETATM   30  N   UNL     1     -10.849   4.934  74.549  1.00  0.00    -0.275 NA 
ENDBRANCH  21  23
ENDBRANCH  19  21
ENDBRANCH  13  15
ENDBRANCH   5  13
TORSDOF 5
ENDMDL
MODEL      201
REMARK 921   NORMALIZED FREE ENERGY PREDICTED BY IDOCK:   -1.76 KCAL/MOL
REMARK 922        TOTAL FREE ENERGY PREDICTED BY IDOCK:   -3.05 KCAL/MOL
REMARK 923 INTER-LIGAND FREE ENERGY PREDICTED BY IDOCK:   -4.20 KCAL/MOL
REMARK 924 INTRA-LIGAND FREE ENERGY PREDICTED BY IDOCK:    1.15 KCAL/MOL
REMARK 927      BINDING AFFINITY PREDICTED BY RF-SCORE:    0.00 PKD
ROOT
HETATM    1  C   UNL     1     -13.033  11.274  64.110  1.00  0.00     1.468 C  
HETATM    2  C   UNL     1     -11.569  11.356  64.439  1.00  0.00    -0.075 A  
HETATM    3  C   UNL     1     -10.717  10.477  63.736  1.00  0.00     0.529 A  
HETATM    4  C   UNL     1      -9.337  10.434  63.949  1.00  0.00    -0.322 A  
HETATM    5  C   UNL     1     -11.032  12.178  65.454  1.00  0.00    -0.302 A  
HETATM    6  C   UNL     1      -8.791  11.338  64.859  1.00  0.00     0.094 A  
HETATM    7  C   UNL     1      -8.941  13.219  66.505  1.00  0.00    -0.069 C  
HETATM    8  C   UNL     1      -9.616  12.223  65.594  1.00  0.00    -0.148 A  
ENDROOT
BRANCH   4   9
HETATM    9  C   UNL     1      -8.573   9.387  63.246  1.00  0.00    -0.218 C  
HETATM   10  C   UNL     1      -8.169   8.215  63.753  1.00  0.00    -0.065 C  
HETATM   11  C   UNL     1      -7.391   7.306  62.978  1.00  0.00    -0.085 C  
HETATM   12  N   UNL     1      -6.750   6.580  62.341  1.00  0.00    -0.038 NA 
ENDBRANCH   4   9
BRANCH   5  13
HETATM   13  N   UNL     1     -11.853  12.865  66.386  1.00  0.00    -0.400 NA 
HETATM   14  H   UNL     1     -12.791  12.478  66.491  1.00  0.00     0.000 HD 
BRANCH  13  15
HETATM   15  C   UNL     1     -11.589  13.995  67.194  1.00  0.00    -0.372 A  
HETATM   16  C   UNL     1     -12.109  14.022  68.470  1.00  0.00    -0.329 A  
HETATM   17  C   UNL     1     -11.821  15.133  69.226  1.00  0.00    -0.320 A  
HETATM   18  N   UNL     1     -11.060  16.151  68.787  1.00  0.00    -0.334 NA 
HETATM   19  C   UNL     1     -10.594  16.055  67.533  1.00  0.00    -0.313 A  
HETATM   20  N   UNL     1     -10.837  15.002  66.737  1.00  0.00    -0.314 NA 
BRANCH  19  21
HETATM   21  N   UNL     1      -9.827  17.132  67.084  1.00  0.00    -0.263 NA 
HETATM   22  H   UNL     1      -9.946  17.352  66.095  1.00  0.00     0.000 HD 
BRANCH  21  23
HETATM   23  C   UNL     1      -8.923  17.962  67.760  1.00  0.00    -0.254 A  
HETATM   24  C   UNL     1      -9.220  19.275  68.141  1.00  0.00    -0.387 A  
HETATM   25  C   UNL     1      -8.314  20.062  68.850  1.00  0.00     0.082 A  
HETATM   26  C   UNL     1      -7.061  19.545  69.181  1.00  0.00    -0.392 A  
HETATM   27  C   UNL     1      -6.150  20.341  69.946  1.00  0.00    -0.345 C  
HETATM   28  C   UNL     1      -6.717  18.260  68.766  1.00  0.00    -0.256 A  
HETATM   29  C   UNL     1      -7.638  17.478  68.057  1.00  0.00    -0.220 A  
HETATM   30  N   UNL     1      -5.423  20.989  70.580  1.00  0.00    -0.552 NA 
ENDBRANCH  21  23
ENDBRANCH  19  21
ENDBRANCH  13  15
ENDBRANCH   5  13
TORSDOF 5
ENDMDL
MODEL      202
REMARK 921   NORMALIZED FREE ENERGY PREDICTED BY IDOCK:   -1.55 KCAL/MOL
REMARK 922        TOTAL FREE ENERGY PREDICTED BY IDOCK:   -2.78 KCAL/MOL
REMARK 923 INTER-LIGAND FREE ENERGY PREDICTED BY IDOCK:   -4.30 KCAL/MOL
REMARK 924 INTRA-LIGAND FREE ENERGY PREDICTED BY IDOCK:    1.52 KCAL/MOL
REMARK 927      BINDING AFFINITY PREDICTED BY RF-SCORE:    0.00 PKD
ROOT
HETATM    1  C   UNL     1      -5.150  11.327  66.997  1.00  0.00    -0.070 C  
HETATM    2  C   UNL     1      -6.048  12.443  67.454  1.00  0.00    -0.158 A  
HETATM    3  C   UNL     1      -5.656  13.752  67.096  1.00  0.00     0.781 A  
HETATM    4  C   UNL     1      -6.385  14.884  67.465  1.00  0.00    -0.071 A  
HETATM    5  C   UNL     1      -7.178  12.260  68.281  1.00  0.00    -0.101 A  
HETATM    6  C   UNL     1      -7.572  14.691  68.171  1.00  0.00    -0.123 A  
HETATM    7  C   UNL     1      -9.320  13.266  69.258  1.00  0.00     0.790 C  
HETATM    8  C   UNL     1      -7.988  13.396  68.562  1.00  0.00    -0.107 A  
ENDROOT
BRANCH   4   9
HETATM    9  C   UNL     1      -5.807  16.200  67.140  1.00  0.00    -0.049 C  
HETATM   10  C   UNL     1      -6.443  17.235  66.573  1.00  0.00    -0.272 C  
HETATM   11  C   UNL     1      -5.753  18.443  66.265  1.00  0.00    -0.160 C  
HETATM   12  N   UNL     1      -5.179  19.418  66.010  1.00  0.00    -0.150 NA 
ENDBRANCH   4   9
BRANCH   5  13
HETATM   13  N   UNL     1      -7.462  11.020  68.911  1.00  0.00    -0.114 NA 
HETATM   14  H   UNL     1      -6.669  10.599  69.396  1.00  0.00     0.000 HD 
BRANCH  13  15
HETATM   15  C   UNL     1      -8.659  10.271  68.980  1.00  0.00    -0.162 A  
HETATM   16  C   UNL     1      -8.592   8.910  68.769  1.00  0.00    -0.136 A  
HETATM   17  C   UNL     1      -9.775   8.218  68.855  1.00  0.00    -0.164 A  
HETATM   18  N   UNL     1     -10.953   8.796  69.147  1.00  0.00    -0.042 NA 
HETATM   19  C   UNL     1     -10.939  10.124  69.334  1.00  0.00    -0.245 A  
HETATM   20  N   UNL     1      -9.823  10.865  69.263  1.00  0.00    -0.146 NA 
BRANCH  19  21
HETATM   21  N   UNL     1     -12.175  10.713  69.611  1.00  0.00    -0.514 NA 
HETATM   22  H   UNL     1     -12.975  10.228  69.204  1.00  0.00     0.000 HD 
BRANCH  21  23
HETATM   23  C   UNL     1     -12.504  11.855  70.352  1.00  0.00    -0.170 A  
HETATM   24  C   UNL     1     -12.232  13.158  69.921  1.00  0.00    -0.293 A  
HETATM   25  C   UNL     1     -12.612  14.277  70.661  1.00  0.00    -0.424 A  
HETATM   26  C   UNL     1     -13.266  14.109  71.881  1.00  0.00    -0.468 A  
HETATM   27  C   UNL     1     -13.691  15.260  72.618  1.00  0.00    -0.508 C  
HETATM   28  C   UNL     1     -13.500  12.822  72.363  1.00  0.00    -0.512 A  
HETATM   29  C   UNL     1     -13.118  11.706  71.608  1.00  0.00    -0.456 A  
HETATM   30  N   UNL     1     -14.046  16.200  73.202  1.00  0.00    -0.256 NA 
ENDBRANCH  21  23
ENDBRANCH  19  21
ENDBRANCH  13  15
ENDBRANCH   5  13
TORSDOF 5
ENDMDL
MODEL      203
REMARK 921   NORMALIZED FREE ENERGY PREDICTED BY IDOCK:   -1.03 KCAL/MOL
REMARK 922        TOTAL FREE ENERGY PREDICTED BY IDOCK:   -2.12 KCAL/MOL
REMARK 923 INTER-LIGAND FREE ENERGY PREDICTED BY IDOCK:   -3.17 KCAL/MOL
REMARK 924 INTRA-LIGAND FREE ENERGY PREDICTED BY IDOCK:    1.06 KCAL/MOL
REMARK 927      BINDING AFFINITY PREDICTED BY RF-SCORE:    0.00 PKD
ROOT
HETATM    1  C   UNL     1      -5.502  12.177  66.933  1.00  0.00    -0.002 C  
HETATM    2  C   UNL     1      -6.401  13.277  67.424  1.00  0.00    -0.027 A  
HETATM    3  C   UNL     1      -5.952  14.599  67.210  1.00  0.00     0.464 A  
HETATM    4  C   UNL     1      -6.676  15.718  67.626  1.00  0.00    -0.198 A  
HETATM    5  C   UNL     1      -7.592  13.060  68.151  1.00  0.00    -0.136 A  
HETATM    6  C   UNL     1      -7.915  15.503  68.228  1.00  0.00    -0.132 A  
HETATM    7  C   UNL     1      -9.772  14.045  69.063  1.00  0.00     0.046 C  
HETATM    8  C   UNL     1      -8.391  14.192  68.474  1.00  0.00    -0.155 A  
ENDROOT
BRANCH   4   9
HETATM    9  C   UNL     1      -6.044  17.038  67.458  1.00  0.00    -0.163 C  
HETATM   10  C   UNL     1      -6.521  18.215  67.887  1.00  0.00    -0.187 C  
HETATM   11  C   UNL     1      -5.831  19.432  67.616  1.00  0.00    -0.195 C  
HETATM   12  N   UNL     1      -5.266  20.416  67.381  1.00  0.00    -0.173 NA 
ENDBRANCH   4   9
BRANCH   5  13
HETATM   13  N   UNL     1      -7.951  11.780  68.650  1.00  0.00    -0.231 NA 
HETATM   14  H   UNL     1      -7.243  11.338  69.236  1.00  0.00     0.000 HD 
BRANCH  13  15
HETATM   15  C   UNL     1      -9.126  11.015  68.470  1.00  0.00    -0.173 A  
HETATM   16  C   UNL     1     -10.259  11.653  68.011  1.00  0.00    -0.202 A  
HETATM   17  C   UNL     1     -11.376  10.873  67.840  1.00  0.00    -0.308 A  
HETATM   18  N   UNL     1     -11.399   9.550  68.079  1.00  0.00     0.153 NA 
HETATM   19  C   UNL     1     -10.261   9.001  68.528  1.00  0.00    -0.200 A  
HETATM   20  N   UNL     1      -9.133   9.701  68.721  1.00  0.00    -0.132 NA 
BRANCH  19  21
HETATM   21  N   UNL     1     -10.310   7.631  68.795  1.00  0.00    -0.204 NA 
HETATM   22  H   UNL     1     -10.885   7.094  68.145  1.00  0.00     0.000 HD 
BRANCH  21  23
HETATM   23  C   UNL     1      -9.705   6.867  69.802  1.00  0.00    -0.164 A  
HETATM   24  C   UNL     1      -9.292   5.543  69.621  1.00  0.00    -0.172 A  
HETATM   25  C   UNL     1      -8.653   4.824  70.629  1.00  0.00    -0.118 A  
HETATM   26  C   UNL     1      -8.430   5.421  71.870  1.00  0.00    -0.127 A  
HETATM   27  C   UNL     1      -7.737   4.694  72.889  1.00  0.00    -0.088 C  
HETATM   28  C   UNL     1      -8.882   6.720  72.097  1.00  0.00    -0.134 A  
HETATM   29  C   UNL     1      -9.518   7.434  71.074  1.00  0.00    -0.157 A  
HETATM   30  N   UNL     1      -7.160   4.101  73.705  1.00  0.00    -0.060 NA 
ENDBRANCH  21  23
ENDBRANCH  19  21
ENDBRANCH  13  15
ENDBRANCH   5  13
TORSDOF 5
ENDMDL
MODEL      204
REMARK 921   NORMALIZED FREE ENERGY PREDICTED BY IDOCK:   -0.96 KCAL/MOL
REMARK 922        TOTAL FREE ENERGY PREDICTED BY IDOCK:   -2.03 KCAL/MOL
REMARK 923 INTER-LIGAND FREE ENERGY PREDICTED BY IDOCK:   -1.75 KCAL/MOL
REMARK 924 INTRA-LIGAND FREE ENERGY PREDICTED BY IDOCK:   -0.28 KCAL/MOL
REMARK 927      BINDING AFFINITY PREDICTED BY RF-SCORE:    0.00 PKD
ROOT
HETATM    1  C   UNL     1      -5.857  10.347  71.998  1.00  0.00     0.569 C  
HETATM    2  C   UNL     1      -6.729   9.166  71.674  1.00  0.00     0.017 A  
HETATM    3  C   UNL     1      -6.251   7.902  72.083  1.00  0.00    -0.042 A  
HETATM    4  C   UNL     1      -6.949   6.717  71.836  1.00  0.00    -0.070 A  
HETATM    5  C   UNL     1      -7.920   9.246  70.920  1.00  0.00    -0.122 A  
HETATM    6  C   UNL     1      -8.188   6.812  71.206  1.00  0.00    -0.119 A  
HETATM    7  C   UNL     1     -10.073   8.086  70.159  1.00  0.00    -0.194 C  
HETATM    8  C   UNL     1      -8.692   8.060  70.767  1.00  0.00    -0.139 A  
ENDROOT
BRANCH   4   9
HETATM    9  C   UNL     1      -6.287   5.451  72.200  1.00  0.00    -0.036 C  
HETATM   10  C   UNL     1      -6.482   4.254  71.630  1.00  0.00    -0.019 C  
HETATM   11  C   UNL     1      -5.811   3.092  72.110  1.00  0.00    -0.009 C  
HETATM   12  N   UNL     1      -5.267   2.152  72.516  1.00  0.00     0.000 NA 
ENDBRANCH   4   9
BRANCH   5  13
HETATM   13  N   UNL     1      -8.306  10.430  70.236  1.00  0.00    -0.321 NA 
HETATM   14  H   UNL     1      -9.224  10.790  70.496  1.00  0.00     0.000 HD 
BRANCH  13  15
HETATM   15  C   UNL     1      -7.630  11.192  69.256  1.00  0.00    -0.055 A  
HETATM   16  C   UNL     1      -6.481  10.672  68.700  1.00  0.00    -0.051 A  
HETATM   17  C   UNL     1      -5.861  11.439  67.745  1.00  0.00    -0.046 A  
HETATM   18  N   UNL     1      -6.328  12.630  67.332  1.00  0.00    -0.160 NA 
HETATM   19  C   UNL     1      -7.448  13.073  67.923  1.00  0.00    -0.137 A  
HETATM   20  N   UNL     1      -8.106  12.379  68.864  1.00  0.00     0.090 NA 
BRANCH  19  21
HETATM   21  N   UNL     1      -7.906  14.322  67.501  1.00  0.00    -0.181 NA 
HETATM   22  H   UNL     1      -7.318  15.106  67.784  1.00  0.00     0.000 HD 
BRANCH  21  23
HETATM   23  C   UNL     1      -9.035  14.685  66.755  1.00  0.00    -0.257 A  
HETATM   24  C   UNL     1      -9.052  15.755  65.853  1.00  0.00    -0.300 A  
HETATM   25  C   UNL     1     -10.178  16.063  65.093  1.00  0.00    -0.149 A  
HETATM   26  C   UNL     1     -11.340  15.304  65.238  1.00  0.00    -0.282 A  
HETATM   27  C   UNL     1     -12.480  15.598  64.425  1.00  0.00     0.212 C  
HETATM   28  C   UNL     1     -11.370  14.268  66.169  1.00  0.00    -0.342 A  
HETATM   29  C   UNL     1     -10.230  13.965  66.924  1.00  0.00    -0.257 A  
HETATM   30  N   UNL     1     -13.397  15.835  63.750  1.00  0.00     0.650 NA 
ENDBRANCH  21  23
ENDBRANCH  19  21
ENDBRANCH  13  15
ENDBRANCH   5  13
TORSDOF 5
ENDMDL
MODEL      205
REMARK 921   NORMALIZED FREE ENERGY PREDICTED BY IDOCK:   -0.41 KCAL/MOL
REMARK 922        TOTAL FREE ENERGY PREDICTED BY IDOCK:   -1.31 KCAL/MOL
REMARK 923 INTER-LIGAND FREE ENERGY PREDICTED BY IDOCK:   -0.59 KCAL/MOL
REMARK 924 INTRA-LIGAND FREE ENERGY PREDICTED BY IDOCK:   -0.72 KCAL/MOL
REMARK 927      BINDING AFFINITY PREDICTED BY RF-SCORE:    0.00 PKD
ROOT
HETATM    1  C   UNL     1      -6.054   7.217  72.612  1.00  0.00    -0.043 C  
HETATM    2  C   UNL     1      -7.467   7.523  72.199  1.00  0.00    -0.080 A  
HETATM    3  C   UNL     1      -8.409   6.484  72.363  1.00  0.00    -0.108 A  
HETATM    4  C   UNL     1      -9.753   6.622  72.008  1.00  0.00    -0.156 A  
HETATM    5  C   UNL     1      -7.867   8.730  71.585  1.00  0.00    -0.076 A  
HETATM    6  C   UNL     1     -10.173   7.859  71.523  1.00  0.00    -0.232 A  
HETATM    7  C   UNL     1      -9.801  10.248  70.870  1.00  0.00     1.079 C  
HETATM    8  C   UNL     1      -9.254   8.919  71.329  1.00  0.00    -0.328 A  
ENDROOT
BRANCH   4   9
HETATM    9  C   UNL     1     -10.609   5.426  72.109  1.00  0.00    -0.284 C  
HETATM   10  C   UNL     1     -11.617   5.235  72.971  1.00  0.00    -0.290 C  
HETATM   11  C   UNL     1     -12.339   4.007  72.998  1.00  0.00     0.832 C  
HETATM   12  N   UNL     1     -12.913   2.999  73.017  1.00  0.00     1.201 NA 
ENDBRANCH   4   9
BRANCH   5  13
HETATM   13  N   UNL     1      -6.930   9.695  71.129  1.00  0.00    -0.326 NA 
HETATM   14  H   UNL     1      -6.301  10.049  71.850  1.00  0.00     0.000 HD 
BRANCH  13  15
HETATM   15  C   UNL     1      -6.722  10.246  69.844  1.00  0.00    -0.125 A  
HETATM   16  C   UNL     1      -6.627   9.386  68.771  1.00  0.00    -0.052 A  
HETATM   17  C   UNL     1      -6.436   9.963  67.539  1.00  0.00    -0.068 A  
HETATM   18  N   UNL     1      -6.359  11.291  67.346  1.00  0.00    -0.068 NA 
HETATM   19  C   UNL     1      -6.455  12.063  68.438  1.00  0.00    -0.055 A  
HETATM   20  N   UNL     1      -6.639  11.570  69.672  1.00  0.00    -0.126 NA 
BRANCH  19  21
HETATM   21  N   UNL     1      -6.347  13.438  68.223  1.00  0.00    -0.090 NA 
HETATM   22  H   UNL     1      -5.408  13.757  67.987  1.00  0.00     0.000 HD 
BRANCH  21  23
HETATM   23  C   UNL     1      -7.309  14.456  68.276  1.00  0.00    -0.122 A  
HETATM   24  C   UNL     1      -6.989  15.818  68.306  1.00  0.00    -0.120 A  
HETATM   25  C   UNL     1      -7.970  16.808  68.314  1.00  0.00    -0.200 A  
HETATM   26  C   UNL     1      -9.317  16.446  68.313  1.00  0.00    -0.210 A  
HETATM   27  C   UNL     1     -10.321  17.466  68.279  1.00  0.00    -0.374 C  
HETATM   28  C   UNL     1      -9.666  15.097  68.340  1.00  0.00    -0.212 A  
HETATM   29  C   UNL     1      -8.670  14.111  68.327  1.00  0.00    -0.181 A  
HETATM   30  N   UNL     1     -11.129  18.300  68.236  1.00  0.00     0.219 NA 
ENDBRANCH  21  23
ENDBRANCH  19  21
ENDBRANCH  13  15
ENDBRANCH   5  13
TORSDOF 5
ENDMDL
MODEL      206
REMARK 921   NORMALIZED FREE ENERGY PREDICTED BY IDOCK:   -0.22 KCAL/MOL
REMARK 922        TOTAL FREE ENERGY PREDICTED BY IDOCK:   -1.06 KCAL/MOL
REMARK 923 INTER-LIGAND FREE ENERGY PREDICTED BY IDOCK:   -2.75 KCAL/MOL
REMARK 924 INTRA-LIGAND FREE ENERGY PREDICTED BY IDOCK:    1.68 KCAL/MOL
REMARK 927      BINDING AFFINITY PREDICTED BY RF-SCORE:    0.00 PKD
ROOT
HETATM    1  C   UNL     1      -8.617  10.369  64.456  1.00  0.00    -0.187 C  
HETATM    2  C   UNL     1      -8.084   9.616  65.643  1.00  0.00    -0.117 A  
HETATM    3  C   UNL     1      -7.880  10.364  66.822  1.00  0.00    -0.117 A  
HETATM    4  C   UNL     1      -7.375   9.799  67.995  1.00  0.00    -0.081 A  
HETATM    5  C   UNL     1      -7.698   8.257  65.608  1.00  0.00    -0.092 A  
HETATM    6  C   UNL     1      -7.117   8.429  67.998  1.00  0.00    -0.086 A  
HETATM    7  C   UNL     1      -7.063   6.162  66.936  1.00  0.00    -0.073 C  
HETATM    8  C   UNL     1      -7.294   7.649  66.830  1.00  0.00    -0.090 A  
ENDROOT
BRANCH   4   9
HETATM    9  C   UNL     1      -7.089  10.709  69.119  1.00  0.00    -0.095 C  
HETATM   10  C   UNL     1      -5.886  10.972  69.650  1.00  0.00    -0.062 C  
HETATM   11  C   UNL     1      -5.751  11.839  70.772  1.00  0.00    -0.074 C  
HETATM   12  N   UNL     1      -5.654  12.538  71.692  1.00  0.00    -0.363 NA 
ENDBRANCH   4   9
BRANCH   5  13
HETATM   13  N   UNL     1      -7.603   7.527  64.394  1.00  0.00    -0.104 NA 
HETATM   14  H   UNL     1      -7.747   8.084  63.552  1.00  0.00     0.000 HD 
BRANCH  13  15
HETATM   15  C   UNL     1      -7.342   6.159  64.157  1.00  0.00    -0.070 A  
HETATM   16  C   UNL     1      -6.491   5.824  63.125  1.00  0.00    -0.028 A  
HETATM   17  C   UNL     1      -6.256   4.484  62.935  1.00  0.00    -0.018 A  
HETATM   18  N   UNL     1      -6.792   3.521  63.704  1.00  0.00    -0.042 NA 
HETATM   19  C   UNL     1      -7.614   3.923  64.684  1.00  0.00    -0.077 A  
HETATM   20  N   UNL     1      -7.892   5.213  64.927  1.00  0.00    -0.089 NA 
BRANCH  19  21
HETATM   21  N   UNL     1      -8.182   2.909  65.457  1.00  0.00    -0.087 NA 
HETATM   22  H   UNL     1      -8.657   2.183  64.920  1.00  0.00     0.000 HD 
BRANCH  21  23
HETATM   23  C   UNL     1      -8.213   2.717  66.845  1.00  0.00    -0.083 A  
HETATM   24  C   UNL     1      -9.287   3.106  67.653  1.00  0.00    -0.247 A  
HETATM   25  C   UNL     1      -9.306   2.862  69.025  1.00  0.00    -0.215 A  
HETATM   26  C   UNL     1      -8.220   2.229  69.630  1.00  0.00    -0.066 A  
HETATM   27  C   UNL     1      -8.263   1.942  71.031  1.00  0.00    -0.049 C  
HETATM   28  C   UNL     1      -7.113   1.880  68.859  1.00  0.00    -0.039 A  
HETATM   29  C   UNL     1      -7.107   2.127  67.480  1.00  0.00    -0.047 A  
HETATM   30  N   UNL     1      -8.312   1.700  72.167  1.00  0.00    -0.048 NA 
ENDBRANCH  21  23
ENDBRANCH  19  21
ENDBRANCH  13  15
ENDBRANCH   5  13
TORSDOF 5
ENDMDL
MODEL      207
REMARK 921   NORMALIZED FREE ENERGY PREDICTED BY IDOCK:    3.52 KCAL/MOL
REMARK 922        TOTAL FREE ENERGY PREDICTED BY IDOCK:    3.77 KCAL/MOL
REMARK 923 INTER-LIGAND FREE ENERGY PREDICTED BY IDOCK:    3.87 KCAL/MOL
REMARK 924 INTRA-LIGAND FREE ENERGY PREDICTED BY IDOCK:   -0.10 KCAL/MOL
REMARK 927      BINDING AFFINITY PREDICTED BY RF-SCORE:    0.00 PKD
ROOT
HETATM    1  C   UNL     1     -12.158   6.523  66.908  1.00  0.00     3.046 C  
HETATM    2  C   UNL     1     -10.970   6.353  67.814  1.00  0.00    -0.425 A  
HETATM    3  C   UNL     1     -11.220   5.768  69.074  1.00  0.00    -0.001 A  
HETATM    4  C   UNL     1     -10.214   5.562  70.022  1.00  0.00    -0.337 A  
HETATM    5  C   UNL     1      -9.673   6.822  67.512  1.00  0.00    -0.128 A  
HETATM    6  C   UNL     1      -8.910   5.907  69.670  1.00  0.00    -0.131 A  
HETATM    7  C   UNL     1      -7.179   6.787  68.090  1.00  0.00    -0.091 C  
HETATM    8  C   UNL     1      -8.624   6.511  68.422  1.00  0.00    -0.119 A  
ENDROOT
BRANCH   4   9
HETATM    9  C   UNL     1     -10.621   5.060  71.346  1.00  0.00    -0.161 C  
HETATM   10  C   UNL     1     -11.875   4.900  71.790  1.00  0.00     1.397 C  
HETATM   11  C   UNL     1     -12.134   4.449  73.117  1.00  0.00     0.315 C  
HETATM   12  N   UNL     1     -12.332   4.090  74.202  1.00  0.00     1.698 NA 
ENDBRANCH   4   9
BRANCH   5  13
HETATM   13  N   UNL     1      -9.413   7.668  66.401  1.00  0.00    -0.301 NA 
HETATM   14  H   UNL     1      -9.634   7.257  65.494  1.00  0.00     0.000 HD 
BRANCH  13  15
HETATM   15  C   UNL     1      -8.900   8.984  66.342  1.00  0.00    -0.146 A  
HETATM   16  C   UNL     1      -9.128   9.724  65.202  1.00  0.00    -0.270 A  
HETATM   17  C   UNL     1      -8.623  11.001  65.189  1.00  0.00    -0.013 A  
HETATM   18  N   UNL     1      -7.951  11.543  66.220  1.00  0.00    -0.050 NA 
HETATM   19  C   UNL     1      -7.764  10.760  67.293  1.00  0.00    -0.109 A  
HETATM   20  N   UNL     1      -8.227   9.503  67.375  1.00  0.00    -0.113 NA 
BRANCH  19  21
HETATM   21  N   UNL     1      -7.043  11.329  68.344  1.00  0.00    -0.076 NA 
HETATM   22  H   UNL     1      -6.742  12.290  68.179  1.00  0.00     0.000 HD 
BRANCH  21  23
HETATM   23  C   UNL     1      -6.663  10.808  69.588  1.00  0.00    -0.122 A  
HETATM   24  C   UNL     1      -5.479  11.165  70.243  1.00  0.00    -0.102 A  
HETATM   25  C   UNL     1      -5.149  10.662  71.500  1.00  0.00    -0.071 A  
HETATM   26  C   UNL     1      -6.005   9.756  72.129  1.00  0.00     0.305 A  
HETATM   27  C   UNL     1      -5.683   9.274  73.437  1.00  0.00     0.048 C  
HETATM   28  C   UNL     1      -7.163   9.339  71.475  1.00  0.00     0.115 A  
HETATM   29  C   UNL     1      -7.485   9.856  70.213  1.00  0.00    -0.173 A  
HETATM   30  N   UNL     1      -5.421   8.899  74.506  1.00  0.00    -0.112 NA 
ENDBRANCH  21  23
ENDBRANCH  19  21
ENDBRANCH  13  15
ENDBRANCH   5  13
TORSDOF 5
ENDMDL
MODEL      208
REMARK 921   NORMALIZED FREE ENERGY PREDICTED BY IDOCK:    3.74 KCAL/MOL
REMARK 922        TOTAL FREE ENERGY PREDICTED BY IDOCK:    4.05 KCAL/MOL
REMARK 923 INTER-LIGAND FREE ENERGY PREDICTED BY IDOCK:    4.18 KCAL/MOL
REMARK 924 INTRA-LIGAND FREE ENERGY PREDICTED BY IDOCK:   -0.12 KCAL/MOL
REMARK 927      BINDING AFFINITY PREDICTED BY RF-SCORE:    0.00 PKD
ROOT
HETATM    1  C   UNL     1      -6.257   7.370  72.402  1.00  0.00    -0.043 C  
HETATM    2  C   UNL     1      -7.640   7.628  71.871  1.00  0.00    -0.086 A  
HETATM    3  C   UNL     1      -8.620   6.659  72.173  1.00  0.00    -0.118 A  
HETATM    4  C   UNL     1      -9.942   6.761  71.733  1.00  0.00    -0.184 A  
HETATM    5  C   UNL     1      -7.973   8.713  71.030  1.00  0.00    -0.132 A  
HETATM    6  C   UNL     1     -10.300   7.899  71.012  1.00  0.00    -0.221 A  
HETATM    7  C   UNL     1      -9.824  10.121  69.959  1.00  0.00    -0.179 C  
HETATM    8  C   UNL     1      -9.341   8.885  70.677  1.00  0.00    -0.256 A  
ENDROOT
BRANCH   4   9
HETATM    9  C   UNL     1     -10.839   5.624  72.005  1.00  0.00    -0.300 C  
HETATM   10  C   UNL     1     -11.933   5.636  72.779  1.00  0.00    -0.088 C  
HETATM   11  C   UNL     1     -12.691   4.450  73.000  1.00  0.00     1.151 C  
HETATM   12  N   UNL     1     -13.294   3.476  73.181  1.00  0.00     1.205 NA 
ENDBRANCH   4   9
BRANCH   5  13
HETATM   13  N   UNL     1      -6.986   9.557  70.455  1.00  0.00    -0.110 NA 
HETATM   14  H   UNL     1      -6.426  10.076  71.131  1.00  0.00     0.000 HD 
BRANCH  13  15
HETATM   15  C   UNL     1      -6.650   9.798  69.104  1.00  0.00    -0.052 A  
HETATM   16  C   UNL     1      -5.423  10.361  68.825  1.00  0.00    -0.041 A  
HETATM   17  C   UNL     1      -5.131  10.569  67.499  1.00  0.00    -0.036 A  
HETATM   18  N   UNL     1      -5.963  10.237  66.496  1.00  0.00    -0.061 NA 
HETATM   19  C   UNL     1      -7.140   9.698  66.846  1.00  0.00    -0.086 A  
HETATM   20  N   UNL     1      -7.494   9.469  68.119  1.00  0.00    -0.078 NA 
BRANCH  19  21
HETATM   21  N   UNL     1      -8.002   9.383  65.793  1.00  0.00    -0.108 NA 
HETATM   22  H   UNL     1      -8.453  10.189  65.360  1.00  0.00     0.000 HD 
BRANCH  21  23
HETATM   23  C   UNL     1      -8.353   8.149  65.230  1.00  0.00    -0.152 A  
HETATM   24  C   UNL     1      -9.235   8.018  64.152  1.00  0.00     1.454 A  
HETATM   25  C   UNL     1      -9.531   6.780  63.585  1.00  0.00     2.795 A  
HETATM   26  C   UNL     1      -8.955   5.623  64.111  1.00  0.00     0.360 A  
HETATM   27  C   UNL     1      -9.229   4.359  63.500  1.00  0.00    -0.121 C  
HETATM   28  C   UNL     1      -8.117   5.718  65.220  1.00  0.00    -0.130 A  
HETATM   29  C   UNL     1      -7.824   6.969  65.778  1.00  0.00    -0.109 A  
HETATM   30  N   UNL     1      -9.445   3.338  62.988  1.00  0.00    -0.094 NA 
ENDBRANCH  21  23
ENDBRANCH  19  21
ENDBRANCH  13  15
ENDBRANCH   5  13
TORSDOF 5
ENDMDL
MODEL      209
REMARK 921   NORMALIZED FREE ENERGY PREDICTED BY IDOCK:    4.16 KCAL/MOL
REMARK 922        TOTAL FREE ENERGY PREDICTED BY IDOCK:    4.59 KCAL/MOL
REMARK 923 INTER-LIGAND FREE ENERGY PREDICTED BY IDOCK:    5.64 KCAL/MOL
REMARK 924 INTRA-LIGAND FREE ENERGY PREDICTED BY IDOCK:   -1.05 KCAL/MOL
REMARK 927      BINDING AFFINITY PREDICTED BY RF-SCORE:    0.00 PKD
ROOT
HETATM    1  C   UNL     1      -8.733  13.832  65.221  1.00  0.00     2.422 C  
HETATM    2  C   UNL     1      -7.796  14.194  66.340  1.00  0.00     1.373 A  
HETATM    3  C   UNL     1      -7.336  13.128  67.143  1.00  0.00     0.052 A  
HETATM    4  C   UNL     1      -6.474  13.318  68.226  1.00  0.00    -0.099 A  
HETATM    5  C   UNL     1      -7.441  15.519  66.676  1.00  0.00     0.241 A  
HETATM    6  C   UNL     1      -6.021  14.612  68.477  1.00  0.00    -0.093 A  
HETATM    7  C   UNL     1      -5.880  17.065  67.991  1.00  0.00    -0.124 C  
HETATM    8  C   UNL     1      -6.474  15.708  67.703  1.00  0.00    -0.191 A  
ENDROOT
BRANCH   4   9
HETATM    9  C   UNL     1      -6.166  12.145  69.063  1.00  0.00    -0.081 C  
HETATM   10  C   UNL     1      -5.608  10.996  68.657  1.00  0.00    -0.043 C  
HETATM   11  C   UNL     1      -5.406   9.915  69.562  1.00  0.00    -0.034 C  
HETATM   12  N   UNL     1      -5.255   9.038  70.306  1.00  0.00    -0.027 NA 
ENDBRANCH   4   9
BRANCH   5  13
HETATM   13  N   UNL     1      -8.088  16.645  66.102  1.00  0.00    -0.362 NA 
HETATM   14  H   UNL     1      -7.695  16.952  65.212  1.00  0.00     0.000 HD 
BRANCH  13  15
HETATM   15  C   UNL     1      -9.185  17.412  66.557  1.00  0.00    -0.266 A  
HETATM   16  C   UNL     1      -9.817  18.246  65.659  1.00  0.00     0.370 A  
HETATM   17  C   UNL     1     -10.885  18.965  66.138  1.00  0.00    -0.130 A  
HETATM   18  N   UNL     1     -11.332  18.875  67.402  1.00  0.00     0.182 NA 
HETATM   19  C   UNL     1     -10.663  18.047  68.218  1.00  0.00    -0.191 A  
HETATM   20  N   UNL     1      -9.611  17.315  67.821  1.00  0.00    -0.257 NA 
BRANCH  19  21
HETATM   21  N   UNL     1     -11.125  17.984  69.534  1.00  0.00     0.731 NA 
HETATM   22  H   UNL     1     -11.220  18.890  69.993  1.00  0.00     0.000 HD 
BRANCH  21  23
HETATM   23  C   UNL     1     -11.481  16.889  70.333  1.00  0.00     0.695 A  
HETATM   24  C   UNL     1     -11.113  16.766  71.678  1.00  0.00     0.739 A  
HETATM   25  C   UNL     1     -11.520  15.685  72.459  1.00  0.00    -0.401 A  
HETATM   26  C   UNL     1     -12.300  14.677  71.892  1.00  0.00    -0.410 A  
HETATM   27  C   UNL     1     -12.750  13.591  72.708  1.00  0.00     0.170 C  
HETATM   28  C   UNL     1     -12.634  14.746  70.541  1.00  0.00    -0.416 A  
HETATM   29  C   UNL     1     -12.223  15.839  69.768  1.00  0.00    -0.236 A  
HETATM   30  N   UNL     1     -13.123  12.721  73.382  1.00  0.00     2.028 NA 
ENDBRANCH  21  23
ENDBRANCH  19  21
ENDBRANCH  13  15
ENDBRANCH   5  13
TORSDOF 5
ENDMDL
MODEL      210
REMARK 921   NORMALIZED FREE ENERGY PREDICTED BY IDOCK:    5.39 KCAL/MOL
REMARK 922        TOTAL FREE ENERGY PREDICTED BY IDOCK:    6.18 KCAL/MOL
REMARK 923 INTER-LIGAND FREE ENERGY PREDICTED BY IDOCK:    5.52 KCAL/MOL
REMARK 924 INTRA-LIGAND FREE ENERGY PREDICTED BY IDOCK:    0.66 KCAL/MOL
REMARK 927      BINDING AFFINITY PREDICTED BY RF-SCORE:    0.00 PKD
ROOT
HETATM    1  C   UNL     1      -8.460  15.449  64.536  1.00  0.00     8.013 C  
HETATM    2  C   UNL     1      -8.713  15.427  66.018  1.00  0.00     0.035 A  
HETATM    3  C   UNL     1      -9.372  16.552  66.560  1.00  0.00    -0.295 A  
HETATM    4  C   UNL     1      -9.659  16.674  67.921  1.00  0.00    -0.234 A  
HETATM    5  C   UNL     1      -8.253  14.410  66.883  1.00  0.00    -0.016 A  
HETATM    6  C   UNL     1      -9.320  15.609  68.754  1.00  0.00    -0.213 A  
HETATM    7  C   UNL     1      -8.379  13.332  69.202  1.00  0.00     0.540 C  
HETATM    8  C   UNL     1      -8.644  14.472  68.250  1.00  0.00    -0.171 A  
ENDROOT
BRANCH   4   9
HETATM    9  C   UNL     1     -10.236  17.949  68.383  1.00  0.00    -0.398 C  
HETATM   10  C   UNL     1      -9.585  18.945  68.999  1.00  0.00    -0.327 C  
HETATM   11  C   UNL     1     -10.274  20.112  69.440  1.00  0.00     0.061 C  
HETATM   12  N   UNL     1     -10.847  21.053  69.803  1.00  0.00     1.037 NA 
ENDBRANCH   4   9
BRANCH   5  13
HETATM   13  N   UNL     1      -7.344  13.406  66.456  1.00  0.00     0.395 NA 
HETATM   14  H   UNL     1      -6.772  13.666  65.653  1.00  0.00     0.000 HD 
BRANCH  13  15
HETATM   15  C   UNL     1      -7.098  12.108  66.958  1.00  0.00    -0.064 A  
HETATM   16  C   UNL     1      -5.790  11.710  67.130  1.00  0.00    -0.122 A  
HETATM   17  C   UNL     1      -5.594  10.445  67.630  1.00  0.00    -0.044 A  
HETATM   18  N   UNL     1      -6.599   9.617  67.964  1.00  0.00    -0.061 NA 
HETATM   19  C   UNL     1      -7.844  10.072  67.764  1.00  0.00    -0.094 A  
HETATM   20  N   UNL     1      -8.111  11.294  67.277  1.00  0.00    -0.134 NA 
BRANCH  19  21
HETATM   21  N   UNL     1      -8.876   9.190  68.092  1.00  0.00    -0.129 NA 
HETATM   22  H   UNL     1      -8.896   8.337  67.533  1.00  0.00     0.000 HD 
BRANCH  21  23
HETATM   23  C   UNL     1      -9.887   9.276  69.057  1.00  0.00    -0.166 A  
HETATM   24  C   UNL     1     -10.350  10.487  69.582  1.00  0.00    -0.231 A  
HETATM   25  C   UNL     1     -11.389  10.542  70.510  1.00  0.00    -0.400 A  
HETATM   26  C   UNL     1     -11.982   9.360  70.955  1.00  0.00    -0.351 A  
HETATM   27  C   UNL     1     -13.076   9.424  71.875  1.00  0.00    -0.424 C  
HETATM   28  C   UNL     1     -11.504   8.136  70.492  1.00  0.00    -0.179 A  
HETATM   29  C   UNL     1     -10.462   8.094  69.556  1.00  0.00    -0.227 A  
HETATM   30  N   UNL     1     -13.973   9.485  72.612  1.00  0.00    -0.283 NA 
ENDBRANCH  21  23
ENDBRANCH  19  21
ENDBRANCH  13  15
ENDBRANCH   5  13
TORSDOF 5
ENDMDL
MODEL      211
REMARK 921   NORMALIZED FREE ENERGY PREDICTED BY IDOCK:    9.05 KCAL/MOL
REMARK 922        TOTAL FREE ENERGY PREDICTED BY IDOCK:   10.92 KCAL/MOL
REMARK 923 INTER-LIGAND FREE ENERGY PREDICTED BY IDOCK:   11.49 KCAL/MOL
REMARK 924 INTRA-LIGAND FREE ENERGY PREDICTED BY IDOCK:   -0.57 KCAL/MOL
REMARK 927      BINDING AFFINITY PREDICTED BY RF-SCORE:    0.00 PKD
ROOT
HETATM    1  C   UNL     1     -12.575  12.563  67.436  1.00  0.00     1.308 C  
HETATM    2  C   UNL     1     -11.316  12.146  66.727  1.00  0.00    -0.398 A  
HETATM    3  C   UNL     1     -11.133  10.759  66.535  1.00  0.00    -0.061 A  
HETATM    4  C   UNL     1     -10.005  10.229  65.906  1.00  0.00    -0.321 A  
HETATM    5  C   UNL     1     -10.294  13.041  66.341  1.00  0.00    -0.281 A  
HETATM    6  C   UNL     1      -9.058  11.122  65.409  1.00  0.00    -0.193 A  
HETATM    7  C   UNL     1      -8.168  13.421  64.965  1.00  0.00     5.068 C  
HETATM    8  C   UNL     1      -9.199  12.518  65.597  1.00  0.00     0.191 A  
ENDROOT
BRANCH   4   9
HETATM    9  C   UNL     1      -9.870   8.761  65.878  1.00  0.00    -0.136 C  
HETATM   10  C   UNL     1      -9.309   7.991  66.821  1.00  0.00    -0.229 C  
HETATM   11  C   UNL     1      -9.197   6.581  66.649  1.00  0.00    -0.153 C  
HETATM   12  N   UNL     1      -9.104   5.436  66.493  1.00  0.00    -0.131 NA 
ENDBRANCH   4   9
BRANCH   5  13
HETATM   13  N   UNL     1     -10.278  14.398  66.757  1.00  0.00    -0.267 NA 
HETATM   14  H   UNL     1     -10.084  14.536  67.749  1.00  0.00     0.000 HD 
BRANCH  13  15
HETATM   15  C   UNL     1     -10.486  15.590  66.027  1.00  0.00    -0.323 A  
HETATM   16  C   UNL     1     -11.001  15.496  64.752  1.00  0.00    -0.416 A  
HETATM   17  C   UNL     1     -11.197  16.678  64.081  1.00  0.00     0.717 A  
HETATM   18  N   UNL     1     -10.932  17.884  64.611  1.00  0.00    -0.222 NA 
HETATM   19  C   UNL     1     -10.428  17.896  65.854  1.00  0.00    -0.253 A  
HETATM   20  N   UNL     1     -10.208  16.782  66.568  1.00  0.00    -0.307 NA 
BRANCH  19  21
HETATM   21  N   UNL     1     -10.134  19.156  66.380  1.00  0.00    -0.389 NA 
HETATM   22  H   UNL     1     -10.274  19.929  65.730  1.00  0.00     0.000 HD 
BRANCH  21  23
HETATM   23  C   UNL     1      -9.680  19.540  67.649  1.00  0.00    -0.344 A  
HETATM   24  C   UNL     1      -8.420  19.198  68.151  1.00  0.00    -0.355 A  
HETATM   25  C   UNL     1      -7.979  19.632  69.400  1.00  0.00     0.032 A  
HETATM   26  C   UNL     1      -8.817  20.415  70.195  1.00  0.00     1.558 A  
HETATM   27  C   UNL     1      -8.345  20.893  71.458  1.00  0.00     3.142 C  
HETATM   28  C   UNL     1     -10.099  20.724  69.744  1.00  0.00     0.813 A  
HETATM   29  C   UNL     1     -10.528  20.285  68.485  1.00  0.00    -0.177 A  
HETATM   30  N   UNL     1      -7.948  21.290  72.477  1.00  0.00     3.617 NA 
ENDBRANCH  21  23
ENDBRANCH  19  21
ENDBRANCH  13  15
ENDBRANCH   5  13
TORSDOF 5
ENDMDL
MODEL      212
REMARK 921   NORMALIZED FREE ENERGY PREDICTED BY IDOCK:    9.55 KCAL/MOL
REMARK 922        TOTAL FREE ENERGY PREDICTED BY IDOCK:   11.56 KCAL/MOL
REMARK 923 INTER-LIGAND FREE ENERGY PREDICTED BY IDOCK:   12.05 KCAL/MOL
REMARK 924 INTRA-LIGAND FREE ENERGY PREDICTED BY IDOCK:   -0.49 KCAL/MOL
REMARK 927      BINDING AFFINITY PREDICTED BY RF-SCORE:    0.00 PKD
ROOT
HETATM    1  C   UNL     1     -12.766  12.758  64.338  1.00  0.00    -0.370 C  
HETATM    2  C   UNL     1     -11.655  13.715  64.669  1.00  0.00    -0.393 A  
HETATM    3  C   UNL     1     -12.018  15.071  64.820  1.00  0.00    -0.313 A  
HETATM    4  C   UNL     1     -11.089  16.072  65.113  1.00  0.00    -0.291 A  
HETATM    5  C   UNL     1     -10.293  13.350  64.740  1.00  0.00    -0.379 A  
HETATM    6  C   UNL     1      -9.763  15.689  65.311  1.00  0.00    -0.068 A  
HETATM    7  C   UNL     1      -7.922  13.999  65.457  1.00  0.00     4.797 C  
HETATM    8  C   UNL     1      -9.359  14.342  65.152  1.00  0.00     0.798 A  
ENDROOT
BRANCH   4   9
HETATM    9  C   UNL     1     -11.570  17.465  65.121  1.00  0.00     1.613 C  
HETATM   10  C   UNL     1     -10.844  18.564  64.874  1.00  0.00     1.696 C  
HETATM   11  C   UNL     1     -11.422  19.863  64.963  1.00  0.00     1.650 C  
HETATM   12  N   UNL     1     -11.901  20.916  65.047  1.00  0.00     2.565 NA 
ENDBRANCH   4   9
BRANCH   5  13
HETATM   13  N   UNL     1      -9.827  12.077  64.319  1.00  0.00    -0.459 NA 
HETATM   14  H   UNL     1      -9.770  11.959  63.307  1.00  0.00     0.000 HD 
BRANCH  13  15
HETATM   15  C   UNL     1      -9.428  10.945  65.066  1.00  0.00    -0.233 A  
HETATM   16  C   UNL     1      -8.079  10.690  65.195  1.00  0.00    -0.065 A  
HETATM   17  C   UNL     1      -7.733   9.587  65.938  1.00  0.00    -0.100 A  
HETATM   18  N   UNL     1      -8.630   8.786  66.538  1.00  0.00    -0.115 NA 
HETATM   19  C   UNL     1      -9.923   9.095  66.362  1.00  0.00    -0.288 A  
HETATM   20  N   UNL     1     -10.335  10.154  65.648  1.00  0.00    -0.201 NA 
BRANCH  19  21
HETATM   21  N   UNL     1     -10.843   8.239  66.971  1.00  0.00    -0.399 NA 
HETATM   22  H   UNL     1     -11.507   7.806  66.328  1.00  0.00     0.000 HD 
BRANCH  21  23
HETATM   23  C   UNL     1     -11.010   7.871  68.312  1.00  0.00     0.209 A  
HETATM   24  C   UNL     1     -10.162   6.979  68.978  1.00  0.00    -0.191 A  
HETATM   25  C   UNL     1     -10.328   6.667  70.326  1.00  0.00    -0.235 A  
HETATM   26  C   UNL     1     -11.380   7.238  71.043  1.00  0.00    -0.301 A  
HETATM   27  C   UNL     1     -11.522   6.948  72.437  1.00  0.00    -0.259 C  
HETATM   28  C   UNL     1     -12.273   8.087  70.392  1.00  0.00     0.348 A  
HETATM   29  C   UNL     1     -12.092   8.396  69.038  1.00  0.00     2.443 A  
HETATM   30  N   UNL     1     -11.621   6.718  73.572  1.00  0.00     0.593 NA 
ENDBRANCH  21  23
ENDBRANCH  19  21
ENDBRANCH  13  15
ENDBRANCH   5  13
TORSDOF 5
ENDMDL
MODEL      213
REMARK 921   NORMALIZED FREE ENERGY PREDICTED BY IDOCK:   14.16 KCAL/MOL
REMARK 922        TOTAL FREE ENERGY PREDICTED BY IDOCK:   17.51 KCAL/MOL
REMARK 923 INTER-LIGAND FREE ENERGY PREDICTED BY IDOCK:   17.42 KCAL/MOL
REMARK 924 INTRA-LIGAND FREE ENERGY PREDICTED BY IDOCK:    0.09 KCAL/MOL
REMARK 927      BINDING AFFINITY PREDICTED BY RF-SCORE:    0.00 PKD
ROOT
HETATM    1  C   UNL     1     -11.880  18.422  66.530  1.00  0.00     2.808 C  
HETATM    2  C   UNL     1     -11.864  17.172  67.366  1.00  0.00     1.547 A  
HETATM    3  C   UNL     1     -12.610  17.208  68.564  1.00  0.00     3.691 A  
HETATM    4  C   UNL     1     -12.673  16.125  69.444  1.00  0.00     1.087 A  
HETATM    5  C   UNL     1     -11.085  16.033  67.067  1.00  0.00    -0.071 A  
HETATM    6  C   UNL     1     -12.009  14.954  69.083  1.00  0.00    -0.313 A  
HETATM    7  C   UNL     1     -10.609  13.562  67.542  1.00  0.00    -0.247 C  
HETATM    8  C   UNL     1     -11.237  14.887  67.898  1.00  0.00    -0.324 A  
ENDROOT
BRANCH   4   9
HETATM    9  C   UNL     1     -13.381  16.328  70.721  1.00  0.00     2.102 C  
HETATM   10  C   UNL     1     -12.877  16.161  71.951  1.00  0.00    -0.126 C  
HETATM   11  C   UNL     1     -13.686  16.344  73.110  1.00  0.00     0.237 C  
HETATM   12  N   UNL     1     -14.357  16.486  74.044  1.00  0.00     1.759 NA 
ENDBRANCH   4   9
BRANCH   5  13
HETATM   13  N   UNL     1     -10.098  16.036  66.046  1.00  0.00    -0.318 NA 
HETATM   14  H   UNL     1     -10.453  16.247  65.114  1.00  0.00     0.000 HD 
BRANCH  13  15
HETATM   15  C   UNL     1      -8.707  15.795  66.105  1.00  0.00    -0.258 A  
HETATM   16  C   UNL     1      -7.851  16.822  65.769  1.00  0.00     0.502 A  
HETATM   17  C   UNL     1      -6.507  16.551  65.851  1.00  0.00     1.623 A  
HETATM   18  N   UNL     1      -6.012  15.366  66.250  1.00  0.00     2.260 NA 
HETATM   19  C   UNL     1      -6.907  14.415  66.555  1.00  0.00     2.590 A  
HETATM   20  N   UNL     1      -8.233  14.607  66.497  1.00  0.00     0.183 NA 
BRANCH  19  21
HETATM   21  N   UNL     1      -6.377  13.183  66.944  1.00  0.00    -0.326 NA 
HETATM   22  H   UNL     1      -5.366  13.104  66.833  1.00  0.00     0.000 HD 
BRANCH  21  23
HETATM   23  C   UNL     1      -6.995  12.037  67.460  1.00  0.00    -0.130 A  
HETATM   24  C   UNL     1      -6.658  11.468  68.693  1.00  0.00    -0.064 A  
HETATM   25  C   UNL     1      -7.322  10.353  69.199  1.00  0.00    -0.102 A  
HETATM   26  C   UNL     1      -8.344   9.760  68.456  1.00  0.00    -0.110 A  
HETATM   27  C   UNL     1      -9.051   8.640  68.998  1.00  0.00    -0.145 C  
HETATM   28  C   UNL     1      -8.663  10.270  67.199  1.00  0.00    -0.131 A  
HETATM   29  C   UNL     1      -7.991  11.395  66.704  1.00  0.00    -0.148 A  
HETATM   30  N   UNL     1      -9.630   7.740  69.453  1.00  0.00    -0.156 NA 
ENDBRANCH  21  23
ENDBRANCH  19  21
ENDBRANCH  13  15
ENDBRANCH   5  13
TORSDOF 5
ENDMDL
MODEL      214
REMARK 921   NORMALIZED FREE ENERGY PREDICTED BY IDOCK:   16.10 KCAL/MOL
REMARK 922        TOTAL FREE ENERGY PREDICTED BY IDOCK:   20.02 KCAL/MOL
REMARK 923 INTER-LIGAND FREE ENERGY PREDICTED BY IDOCK:   18.34 KCAL/MOL
REMARK 924 INTRA-LIGAND FREE ENERGY PREDICTED BY IDOCK:    1.68 KCAL/MOL
REMARK 927      BINDING AFFINITY PREDICTED BY RF-SCORE:    0.00 PKD
ROOT
HETATM    1  C   UNL     1     -11.642   6.987  68.938  1.00  0.00     0.333 C  
HETATM    2  C   UNL     1     -10.955   8.090  68.182  1.00  0.00     0.139 A  
HETATM    3  C   UNL     1     -10.218   7.705  67.041  1.00  0.00    -0.371 A  
HETATM    4  C   UNL     1      -9.517   8.621  66.253  1.00  0.00    -0.307 A  
HETATM    5  C   UNL     1     -10.932   9.439  68.600  1.00  0.00    -0.032 A  
HETATM    6  C   UNL     1      -9.603   9.970  66.592  1.00  0.00    -0.234 A  
HETATM    7  C   UNL     1     -10.424  11.875  67.995  1.00  0.00    -0.228 C  
HETATM    8  C   UNL     1     -10.319  10.392  67.739  1.00  0.00    -0.245 A  
ENDROOT
BRANCH   4   9
HETATM    9  C   UNL     1      -8.684   8.081  65.163  1.00  0.00    -0.015 C  
HETATM   10  C   UNL     1      -8.743   6.845  64.648  1.00  0.00     0.387 C  
HETATM   11  C   UNL     1      -7.843   6.432  63.623  1.00  0.00    -0.110 C  
HETATM   12  N   UNL     1      -7.099   6.104  62.796  1.00  0.00    -0.048 NA 
ENDBRANCH   4   9
BRANCH   5  13
HETATM   13  N   UNL     1     -11.401   9.845  69.877  1.00  0.00    -0.324 NA 
HETATM   14  H   UNL     1     -11.424   9.102  70.576  1.00  0.00     0.000 HD 
BRANCH  13  15
HETATM   15  C   UNL     1     -11.841  11.104  70.343  1.00  0.00    -0.369 A  
HETATM   16  C   UNL     1     -13.173  11.254  70.666  1.00  0.00     0.242 A  
HETATM   17  C   UNL     1     -13.557  12.490  71.125  1.00  0.00     0.752 A  
HETATM   18  N   UNL     1     -12.707  13.520  71.281  1.00  0.00    -0.358 NA 
HETATM   19  C   UNL     1     -11.429  13.300  70.940  1.00  0.00     1.034 A  
HETATM   20  N   UNL     1     -10.982  12.120  70.484  1.00  0.00     1.344 NA 
BRANCH  19  21
HETATM   21  N   UNL     1     -10.565  14.387  71.085  1.00  0.00     0.649 NA 
HETATM   22  H   UNL     1      -9.683  14.168  71.549  1.00  0.00     0.000 HD 
BRANCH  21  23
HETATM   23  C   UNL     1     -10.701  15.728  70.702  1.00  0.00    -0.173 A  
HETATM   24  C   UNL     1      -9.623  16.617  70.615  1.00  0.00     2.566 A  
HETATM   25  C   UNL     1      -9.785  17.934  70.189  1.00  0.00     1.590 A  
HETATM   26  C   UNL     1     -11.056  18.402  69.854  1.00  0.00     2.624 A  
HETATM   27  C   UNL     1     -11.210  19.742  69.377  1.00  0.00     2.547 C  
HETATM   28  C   UNL     1     -12.155  17.555  69.985  1.00  0.00     5.154 A  
HETATM   29  C   UNL     1     -11.979  16.232  70.410  1.00  0.00     0.069 A  
HETATM   30  N   UNL     1     -11.325  20.827  68.976  1.00  0.00     1.725 NA 
ENDBRANCH  21  23
ENDBRANCH  19  21
ENDBRANCH  13  15
ENDBRANCH   5  13
TORSDOF 5
ENDMDL
MODEL      215
REMARK 921   NORMALIZED FREE ENERGY PREDICTED BY IDOCK:   17.24 KCAL/MOL
REMARK 922        TOTAL FREE ENERGY PREDICTED BY IDOCK:   21.50 KCAL/MOL
REMARK 923 INTER-LIGAND FREE ENERGY PREDICTED BY IDOCK:   21.87 KCAL/MOL
REMARK 924 INTRA-LIGAND FREE ENERGY PREDICTED BY IDOCK:   -0.37 KCAL/MOL
REMARK 927      BINDING AFFINITY PREDICTED BY RF-SCORE:    0.00 PKD
ROOT
HETATM    1  C   UNL     1     -11.880  18.422  66.530  1.00  0.00     2.808 C  
HETATM    2  C   UNL     1     -11.828  17.175  67.367  1.00  0.00     1.547 A  
HETATM    3  C   UNL     1     -12.558  17.198  68.576  1.00  0.00     3.691 A  
HETATM    4  C   UNL     1     -12.588  16.116  69.459  1.00  0.00     0.766 A  
HETATM    5  C   UNL     1     -11.032  16.049  67.060  1.00  0.00    -0.154 A  
HETATM    6  C   UNL     1     -11.906  14.957  69.090  1.00  0.00    -0.340 A  
HETATM    7  C   UNL     1     -10.503  13.589  67.531  1.00  0.00    -0.237 C  
HETATM    8  C   UNL     1     -11.151  14.902  67.894  1.00  0.00    -0.304 A  
ENDROOT
BRANCH   4   9
HETATM    9  C   UNL     1     -13.281  16.307  70.745  1.00  0.00     1.854 C  
HETATM   10  C   UNL     1     -12.756  16.152  71.968  1.00  0.00    -0.277 C  
HETATM   11  C   UNL     1     -13.552  16.322  73.138  1.00  0.00    -0.115 C  
HETATM   12  N   UNL     1     -14.212  16.453  74.082  1.00  0.00     1.725 NA 
ENDBRANCH   4   9
BRANCH   5  13
HETATM   13  N   UNL     1     -10.060  16.069  66.025  1.00  0.00    -0.318 NA 
HETATM   14  H   UNL     1     -10.433  16.272  65.097  1.00  0.00     0.000 HD 
BRANCH  13  15
HETATM   15  C   UNL     1      -8.664  15.855  66.064  1.00  0.00    -0.188 A  
HETATM   16  C   UNL     1      -8.182  14.613  65.712  1.00  0.00     2.437 A  
HETATM   17  C   UNL     1      -6.819  14.450  65.753  1.00  0.00     7.570 A  
HETATM   18  N   UNL     1      -5.965  15.429  66.096  1.00  0.00     2.901 NA 
HETATM   19  C   UNL     1      -6.508  16.609  66.432  1.00  0.00     0.224 A  
HETATM   20  N   UNL     1      -7.830  16.840  66.416  1.00  0.00    -0.298 NA 
BRANCH  19  21
HETATM   21  N   UNL     1      -5.609  17.608  66.809  1.00  0.00    -0.143 NA 
HETATM   22  H   UNL     1      -4.884  17.807  66.120  1.00  0.00     0.000 HD 
BRANCH  21  23
HETATM   23  C   UNL     1      -5.533  18.385  67.973  1.00  0.00    -0.158 A  
HETATM   24  C   UNL     1      -5.542  19.784  67.967  1.00  0.00    -0.224 A  
HETATM   25  C   UNL     1      -5.508  20.528  69.145  1.00  0.00    -0.352 A  
HETATM   26  C   UNL     1      -5.442  19.873  70.375  1.00  0.00    -0.283 A  
HETATM   27  C   UNL     1      -5.450  20.640  71.583  1.00  0.00    -0.152 C  
HETATM   28  C   UNL     1      -5.375  18.482  70.409  1.00  0.00    -0.244 A  
HETATM   29  C   UNL     1      -5.414  17.745  69.218  1.00  0.00    -0.195 A  
HETATM   30  N   UNL     1      -5.472  21.270  72.560  1.00  0.00     0.332 NA 
ENDBRANCH  21  23
ENDBRANCH  19  21
ENDBRANCH  13  15
ENDBRANCH   5  13
TORSDOF 5
ENDMDL
MODEL      216
REMARK 921   NORMALIZED FREE ENERGY PREDICTED BY IDOCK:   21.82 KCAL/MOL
REMARK 922        TOTAL FREE ENERGY PREDICTED BY IDOCK:   27.42 KCAL/MOL
REMARK 923 INTER-LIGAND FREE ENERGY PREDICTED BY IDOCK:   25.76 KCAL/MOL
REMARK 924 INTRA-LIGAND FREE ENERGY PREDICTED BY IDOCK:    1.66 KCAL/MOL
REMARK 927      BINDING AFFINITY PREDICTED BY RF-SCORE:    0.00 PKD
ROOT
HETATM    1  C   UNL     1      -8.452  16.029  64.012  1.00  0.00    12.561 C  
HETATM    2  C   UNL     1      -8.945  15.914  65.428  1.00  0.00     0.801 A  
HETATM    3  C   UNL     1      -9.838  16.916  65.865  1.00  0.00    -0.241 A  
HETATM    4  C   UNL     1     -10.364  16.944  67.159  1.00  0.00    -0.304 A  
HETATM    5  C   UNL     1      -8.498  14.936  66.343  1.00  0.00     0.134 A  
HETATM    6  C   UNL     1     -10.023  15.904  68.021  1.00  0.00    -0.220 A  
HETATM    7  C   UNL     1      -8.857  13.761  68.590  1.00  0.00    -0.047 C  
HETATM    8  C   UNL     1      -9.117  14.891  67.623  1.00  0.00    -0.183 A  
ENDROOT
BRANCH   4   9
HETATM    9  C   UNL     1     -11.186  18.109  67.534  1.00  0.00     0.293 C  
HETATM   10  C   UNL     1     -10.983  18.930  68.573  1.00  0.00     0.615 C  
HETATM   11  C   UNL     1     -11.884  19.997  68.855  1.00  0.00     4.272 C  
HETATM   12  N   UNL     1     -12.629  20.856  69.080  1.00  0.00     5.223 NA 
ENDBRANCH   4   9
BRANCH   5  13
HETATM   13  N   UNL     1      -7.396  14.085  66.063  1.00  0.00     2.448 NA 
HETATM   14  H   UNL     1      -6.821  14.380  65.275  1.00  0.00     0.000 HD 
BRANCH  13  15
HETATM   15  C   UNL     1      -6.964  12.896  66.694  1.00  0.00     1.102 A  
HETATM   16  C   UNL     1      -5.609  12.680  66.825  1.00  0.00     0.675 A  
HETATM   17  C   UNL     1      -5.231  11.519  67.454  1.00  0.00    -0.061 A  
HETATM   18  N   UNL     1      -6.105  10.624  67.945  1.00  0.00    -0.050 NA 
HETATM   19  C   UNL     1      -7.407  10.900  67.776  1.00  0.00    -0.093 A  
HETATM   20  N   UNL     1      -7.849  12.013  67.170  1.00  0.00    -0.168 NA 
BRANCH  19  21
HETATM   21  N   UNL     1      -8.301   9.948  68.270  1.00  0.00    -0.109 NA 
HETATM   22  H   UNL     1      -9.054  10.332  68.840  1.00  0.00     0.000 HD 
BRANCH  21  23
HETATM   23  C   UNL     1      -8.340   8.556  68.118  1.00  0.00    -0.127 A  
HETATM   24  C   UNL     1      -8.752   7.922  66.940  1.00  0.00    -0.136 A  
HETATM   25  C   UNL     1      -8.738   6.535  66.804  1.00  0.00    -0.123 A  
HETATM   26  C   UNL     1      -8.323   5.739  67.873  1.00  0.00    -0.104 A  
HETATM   27  C   UNL     1      -8.270   4.318  67.714  1.00  0.00    -0.095 C  
HETATM   28  C   UNL     1      -7.960   6.341  69.076  1.00  0.00    -0.110 A  
HETATM   29  C   UNL     1      -7.974   7.737  69.199  1.00  0.00    -0.119 A  
HETATM   30  N   UNL     1      -8.217   3.165  67.572  1.00  0.00    -0.080 NA 
ENDBRANCH  21  23
ENDBRANCH  19  21
ENDBRANCH  13  15
ENDBRANCH   5  13
TORSDOF 5
ENDMDL
MODEL      217
REMARK 921   NORMALIZED FREE ENERGY PREDICTED BY IDOCK:   28.72 KCAL/MOL
REMARK 922        TOTAL FREE ENERGY PREDICTED BY IDOCK:   36.33 KCAL/MOL
REMARK 923 INTER-LIGAND FREE ENERGY PREDICTED BY IDOCK:   36.22 KCAL/MOL
REMARK 924 INTRA-LIGAND FREE ENERGY PREDICTED BY IDOCK:    0.11 KCAL/MOL
REMARK 927      BINDING AFFINITY PREDICTED BY RF-SCORE:    0.00 PKD
ROOT
HETATM    1  C   UNL     1      -8.294  11.234  64.087  1.00  0.00     0.584 C  
HETATM    2  C   UNL     1      -9.756  11.094  63.764  1.00  0.00    -0.338 A  
HETATM    3  C   UNL     1     -10.557  12.239  63.966  1.00  0.00    -0.434 A  
HETATM    4  C   UNL     1     -11.932  12.250  63.723  1.00  0.00    -0.609 A  
HETATM    5  C   UNL     1     -10.366   9.882  63.371  1.00  0.00     1.672 A  
HETATM    6  C   UNL     1     -12.510  11.089  63.210  1.00  0.00     1.524 A  
HETATM    7  C   UNL     1     -12.427   8.727  62.384  1.00  0.00    18.410 C  
HETATM    8  C   UNL     1     -11.742   9.917  63.010  1.00  0.00     6.884 A  
ENDROOT
BRANCH   4   9
HETATM    9  C   UNL     1     -12.678  13.466  64.092  1.00  0.00    -0.078 C  
HETATM   10  C   UNL     1     -12.527  14.689  63.564  1.00  0.00     0.708 C  
HETATM   11  C   UNL     1     -13.281  15.797  64.046  1.00  0.00     2.212 C  
HETATM   12  N   UNL     1     -13.894  16.693  64.453  1.00  0.00     4.733 NA 
ENDBRANCH   4   9
BRANCH   5  13
HETATM   13  N   UNL     1      -9.684   8.638  63.427  1.00  0.00     1.277 NA 
HETATM   14  H   UNL     1      -9.975   7.963  62.720  1.00  0.00     0.000 HD 
BRANCH  13  15
HETATM   15  C   UNL     1      -8.670   8.179  64.298  1.00  0.00     0.307 A  
HETATM   16  C   UNL     1      -7.356   8.405  63.949  1.00  0.00    -0.102 A  
HETATM   17  C   UNL     1      -6.402   7.952  64.827  1.00  0.00    -0.048 A  
HETATM   18  N   UNL     1      -6.694   7.334  65.985  1.00  0.00    -0.052 NA 
HETATM   19  C   UNL     1      -7.994   7.145  66.254  1.00  0.00    -0.110 A  
HETATM   20  N   UNL     1      -8.980   7.558  65.442  1.00  0.00     0.084 NA 
BRANCH  19  21
HETATM   21  N   UNL     1      -8.279   6.480  67.447  1.00  0.00    -0.120 NA 
HETATM   22  H   UNL     1      -8.323   5.464  67.365  1.00  0.00     0.000 HD 
BRANCH  21  23
HETATM   23  C   UNL     1      -8.515   6.968  68.739  1.00  0.00    -0.122 A  
HETATM   24  C   UNL     1      -9.760   7.443  69.167  1.00  0.00    -0.165 A  
HETATM   25  C   UNL     1      -9.975   7.881  70.473  1.00  0.00    -0.191 A  
HETATM   26  C   UNL     1      -8.921   7.872  71.387  1.00  0.00    -0.161 A  
HETATM   27  C   UNL     1      -9.157   8.283  72.737  1.00  0.00    -0.262 C  
HETATM   28  C   UNL     1      -7.657   7.457  70.973  1.00  0.00    -0.086 A  
HETATM   29  C   UNL     1      -7.455   7.014  69.660  1.00  0.00    -0.098 A  
HETATM   30  N   UNL     1      -9.360   8.605  73.836  1.00  0.00     0.802 NA 
ENDBRANCH  21  23
ENDBRANCH  19  21
ENDBRANCH  13  15
ENDBRANCH   5  13
TORSDOF 5
ENDMDL
MODEL      218
REMARK 921   NORMALIZED FREE ENERGY PREDICTED BY IDOCK:   34.40 KCAL/MOL
REMARK 922        TOTAL FREE ENERGY PREDICTED BY IDOCK:   43.68 KCAL/MOL
REMARK 923 INTER-LIGAND FREE ENERGY PREDICTED BY IDOCK:   42.48 KCAL/MOL
REMARK 924 INTRA-LIGAND FREE ENERGY PREDICTED BY IDOCK:    1.20 KCAL/MOL
REMARK 927      BINDING AFFINITY PREDICTED BY RF-SCORE:    0.00 PKD
ROOT
HETATM    1  C   UNL     1      -8.713  13.896  65.134  1.00  0.00     2.871 C  
HETATM    2  C   UNL     1      -7.744  14.516  66.101  1.00  0.00     2.387 A  
HETATM    3  C   UNL     1      -7.467  13.778  67.273  1.00  0.00    -0.048 A  
HETATM    4  C   UNL     1      -6.598  14.239  68.265  1.00  0.00    -0.113 A  
HETATM    5  C   UNL     1      -7.187  15.804  65.945  1.00  0.00     2.810 A  
HETATM    6  C   UNL     1      -5.948  15.453  68.048  1.00  0.00    -0.154 A  
HETATM    7  C   UNL     1      -5.415  17.493  66.697  1.00  0.00    -0.214 C  
HETATM    8  C   UNL     1      -6.213  16.228  66.893  1.00  0.00     0.000 A  
ENDROOT
BRANCH   4   9
HETATM    9  C   UNL     1      -6.488  13.437  69.497  1.00  0.00    -0.083 C  
HETATM   10  C   UNL     1      -6.107  12.156  69.587  1.00  0.00    -0.129 C  
HETATM   11  C   UNL     1      -6.090  11.479  70.841  1.00  0.00     0.345 C  
HETATM   12  N   UNL     1      -6.089  10.936  71.866  1.00  0.00     0.475 NA 
ENDBRANCH   4   9
BRANCH   5  13
HETATM   13  N   UNL     1      -7.641  16.710  64.950  1.00  0.00     3.752 NA 
HETATM   14  H   UNL     1      -7.831  16.284  64.043  1.00  0.00     0.000 HD 
BRANCH  13  15
HETATM   15  C   UNL     1      -7.874  18.103  65.006  1.00  0.00     2.510 A  
HETATM   16  C   UNL     1      -8.761  18.654  64.106  1.00  0.00     9.504 A  
HETATM   17  C   UNL     1      -8.967  20.009  64.201  1.00  0.00     5.618 A  
HETATM   18  N   UNL     1      -8.370  20.787  65.120  1.00  0.00     0.996 NA 
HETATM   19  C   UNL     1      -7.516  20.181  65.957  1.00  0.00    -0.275 A  
HETATM   20  N   UNL     1      -7.264  18.863  65.922  1.00  0.00    -0.349 NA 
BRANCH  19  21
HETATM   21  N   UNL     1      -6.886  21.008  66.889  1.00  0.00    -0.442 NA 
HETATM   22  H   UNL     1      -6.430  21.827  66.487  1.00  0.00     0.000 HD 
BRANCH  21  23
HETATM   23  C   UNL     1      -6.771  20.905  68.281  1.00  0.00    -0.098 A  
HETATM   24  C   UNL     1      -5.568  21.092  68.971  1.00  0.00    -0.278 A  
HETATM   25  C   UNL     1      -5.495  21.027  70.361  1.00  0.00    -0.052 A  
HETATM   26  C   UNL     1      -6.644  20.747  71.102  1.00  0.00     1.060 A  
HETATM   27  C   UNL     1      -6.573  20.722  72.530  1.00  0.00     2.473 C  
HETATM   28  C   UNL     1      -7.845  20.500  70.438  1.00  0.00     1.776 A  
HETATM   29  C   UNL     1      -7.906  20.573  69.040  1.00  0.00     0.685 A  
HETATM   30  N   UNL     1      -6.510  20.718  73.691  1.00  0.00     7.451 NA 
ENDBRANCH  21  23
ENDBRANCH  19  21
ENDBRANCH  13  15
ENDBRANCH   5  13
TORSDOF 5
ENDMDL
MODEL      219
REMARK 921   NORMALIZED FREE ENERGY PREDICTED BY IDOCK:   37.20 KCAL/MOL
REMARK 922        TOTAL FREE ENERGY PREDICTED BY IDOCK:   47.29 KCAL/MOL
REMARK 923 INTER-LIGAND FREE ENERGY PREDICTED BY IDOCK:   46.45 KCAL/MOL
REMARK 924 INTRA-LIGAND FREE ENERGY PREDICTED BY IDOCK:    0.84 KCAL/MOL
REMARK 927      BINDING AFFINITY PREDICTED BY RF-SCORE:    0.00 PKD
ROOT
HETATM    1  C   UNL     1     -12.109   7.780  69.426  1.00  0.00     1.551 C  
HETATM    2  C   UNL     1     -11.376   8.940  68.813  1.00  0.00     0.510 A  
HETATM    3  C   UNL     1     -10.276   8.623  67.987  1.00  0.00    -0.261 A  
HETATM    4  C   UNL     1      -9.494   9.599  67.365  1.00  0.00    -0.170 A  
HETATM    5  C   UNL     1     -11.666  10.294  69.091  1.00  0.00    -0.037 A  
HETATM    6  C   UNL     1      -9.862  10.932  67.536  1.00  0.00    -0.192 A  
HETATM    7  C   UNL     1     -11.328  12.749  68.444  1.00  0.00    -0.331 C  
HETATM    8  C   UNL     1     -10.949  11.290  68.370  1.00  0.00    -0.268 A  
ENDROOT
BRANCH   4   9
HETATM    9  C   UNL     1      -8.299   9.146  66.631  1.00  0.00    -0.122 C  
HETATM   10  C   UNL     1      -8.134   9.132  65.301  1.00  0.00    -0.124 C  
HETATM   11  C   UNL     1      -6.941   8.621  64.712  1.00  0.00    -0.073 C  
HETATM   12  N   UNL     1      -5.970   8.194  64.245  1.00  0.00    -0.056 NA 
ENDBRANCH   4   9
BRANCH   5  13
HETATM   13  N   UNL     1     -12.559  10.681  70.125  1.00  0.00    -0.454 NA 
HETATM   14  H   UNL     1     -13.024   9.905  70.596  1.00  0.00     0.000 HD 
BRANCH  13  15
HETATM   15  C   UNL     1     -12.912  11.960  70.611  1.00  0.00     0.158 A  
HETATM   16  C   UNL     1     -14.055  12.555  70.118  1.00  0.00     5.106 A  
HETATM   17  C   UNL     1     -14.368  13.793  70.624  1.00  0.00     2.061 A  
HETATM   18  N   UNL     1     -13.636  14.417  71.563  1.00  0.00    -0.363 NA 
HETATM   19  C   UNL     1     -12.536  13.779  71.989  1.00  0.00    -0.053 A  
HETATM   20  N   UNL     1     -12.167  12.570  71.539  1.00  0.00     0.204 NA 
BRANCH  19  21
HETATM   21  N   UNL     1     -11.773  14.452  72.946  1.00  0.00     0.269 NA 
HETATM   22  H   UNL     1     -11.621  13.930  73.809  1.00  0.00     0.000 HD 
BRANCH  21  23
HETATM   23  C   UNL     1     -11.182  15.722  72.923  1.00  0.00     0.512 A  
HETATM   24  C   UNL     1     -10.068  16.066  73.697  1.00  0.00     8.408 A  
HETATM   25  C   UNL     1      -9.475  17.325  73.620  1.00  0.00    13.699 A  
HETATM   26  C   UNL     1     -10.008  18.290  72.765  1.00  0.00     6.990 A  
HETATM   27  C   UNL     1      -9.371  19.566  72.658  1.00  0.00     4.469 C  
HETATM   28  C   UNL     1     -11.151  17.993  72.024  1.00  0.00     2.817 A  
HETATM   29  C   UNL     1     -11.735  16.723  72.107  1.00  0.00     0.054 A  
HETATM   30  N   UNL     1      -8.839  20.596  72.567  1.00  0.00     2.150 NA 
ENDBRANCH  21  23
ENDBRANCH  19  21
ENDBRANCH  13  15
ENDBRANCH   5  13
TORSDOF 5
ENDMDL
MODEL      220
REMARK 921   NORMALIZED FREE ENERGY PREDICTED BY IDOCK:   42.06 KCAL/MOL
REMARK 922        TOTAL FREE ENERGY PREDICTED BY IDOCK:   53.57 KCAL/MOL
REMARK 923 INTER-LIGAND FREE ENERGY PREDICTED BY IDOCK:   53.82 KCAL/MOL
REMARK 924 INTRA-LIGAND FREE ENERGY PREDICTED BY IDOCK:   -0.25 KCAL/MOL
REMARK 927      BINDING AFFINITY PREDICTED BY RF-SCORE:    0.00 PKD
ROOT
HETATM    1  C   UNL     1     -10.843   8.264  72.460  1.00  0.00    -0.421 C  
HETATM    2  C   UNL     1     -11.074   8.381  70.979  1.00  0.00    -0.298 A  
HETATM    3  C   UNL     1     -10.625   7.303  70.186  1.00  0.00    -0.245 A  
HETATM    4  C   UNL     1     -10.760   7.283  68.796  1.00  0.00    -0.168 A  
HETATM    5  C   UNL     1     -11.617   9.525  70.351  1.00  0.00    -0.212 A  
HETATM    6  C   UNL     1     -11.413   8.355  68.190  1.00  0.00     1.212 A  
HETATM    7  C   UNL     1     -12.625  10.546  68.231  1.00  0.00     2.492 C  
HETATM    8  C   UNL     1     -11.863   9.461  68.951  1.00  0.00     1.001 A  
ENDROOT
BRANCH   4   9
HETATM    9  C   UNL     1     -10.139   6.161  68.069  1.00  0.00    -0.178 C  
HETATM   10  C   UNL     1     -10.055   6.018  66.739  1.00  0.00    -0.235 C  
HETATM   11  C   UNL     1      -9.469   4.855  66.160  1.00  0.00    -0.161 C  
HETATM   12  N   UNL     1      -8.999   3.900  65.700  1.00  0.00    -0.128 NA 
ENDBRANCH   4   9
BRANCH   5  13
HETATM   13  N   UNL     1     -11.820  10.746  71.047  1.00  0.00    -0.300 NA 
HETATM   14  H   UNL     1     -12.533  10.706  71.775  1.00  0.00     0.000 HD 
BRANCH  13  15
HETATM   15  C   UNL     1     -11.199  12.007  70.900  1.00  0.00     1.973 A  
HETATM   16  C   UNL     1     -10.533  12.539  71.984  1.00  0.00    11.567 A  
HETATM   17  C   UNL     1      -9.935  13.761  71.797  1.00  0.00     8.065 A  
HETATM   18  N   UNL     1      -9.958  14.426  70.629  1.00  0.00     1.470 NA 
HETATM   19  C   UNL     1     -10.629  13.848  69.622  1.00  0.00     0.250 A  
HETATM   20  N   UNL     1     -11.239  12.658  69.733  1.00  0.00    -0.018 NA 
BRANCH  19  21
HETATM   21  N   UNL     1     -10.664  14.564  68.424  1.00  0.00    -0.237 NA 
HETATM   22  H   UNL     1     -11.207  15.427  68.463  1.00  0.00     0.000 HD 
BRANCH  21  23
HETATM   23  C   UNL     1     -10.082  14.300  67.177  1.00  0.00    -0.254 A  
HETATM   24  C   UNL     1     -10.803  14.290  65.977  1.00  0.00    -0.303 A  
HETATM   25  C   UNL     1     -10.187  14.067  64.747  1.00  0.00    -0.332 A  
HETATM   26  C   UNL     1      -8.814  13.826  64.695  1.00  0.00     3.800 A  
HETATM   27  C   UNL     1      -8.179  13.639  63.426  1.00  0.00    12.197 C  
HETATM   28  C   UNL     1      -8.081  13.775  65.879  1.00  0.00     2.470 A  
HETATM   29  C   UNL     1      -8.710  14.005  67.109  1.00  0.00    -0.234 A  
HETATM   30  N   UNL     1      -7.669  13.504  62.390  1.00  0.00    11.050 NA 
ENDBRANCH  21  23
ENDBRANCH  19  21
ENDBRANCH  13  15
ENDBRANCH   5  13
TORSDOF 5
ENDMDL
MODEL      221
REMARK 921   NORMALIZED FREE ENERGY PREDICTED BY IDOCK:   46.28 KCAL/MOL
REMARK 922        TOTAL FREE ENERGY PREDICTED BY IDOCK:   59.03 KCAL/MOL
REMARK 923 INTER-LIGAND FREE ENERGY PREDICTED BY IDOCK:   57.38 KCAL/MOL
REMARK 924 INTRA-LIGAND FREE ENERGY PREDICTED BY IDOCK:    1.65 KCAL/MOL
REMARK 927      BINDING AFFINITY PREDICTED BY RF-SCORE:    0.00 PKD
ROOT
HETATM    1  C   UNL     1      -8.493  16.025  63.968  1.00  0.00    12.561 C  
HETATM    2  C   UNL     1      -9.248  15.924  65.264  1.00  0.00     0.696 A  
HETATM    3  C   UNL     1      -9.934  17.084  65.684  1.00  0.00    -0.080 A  
HETATM    4  C   UNL     1     -10.663  17.140  66.874  1.00  0.00    -0.121 A  
HETATM    5  C   UNL     1      -9.225  14.790  66.105  1.00  0.00    -0.202 A  
HETATM    6  C   UNL     1     -10.747  15.978  67.639  1.00  0.00    -0.320 A  
HETATM    7  C   UNL     1     -10.261  13.565  68.102  1.00  0.00    -0.249 C  
HETATM    8  C   UNL     1     -10.059  14.800  67.259  1.00  0.00    -0.236 A  
ENDROOT
BRANCH   4   9
HETATM    9  C   UNL     1     -11.230  18.443  67.263  1.00  0.00     0.318 C  
HETATM   10  C   UNL     1     -11.042  19.082  68.426  1.00  0.00     0.687 C  
HETATM   11  C   UNL     1     -11.690  20.322  68.698  1.00  0.00     3.227 C  
HETATM   12  N   UNL     1     -12.231  21.325  68.912  1.00  0.00     4.771 NA 
ENDBRANCH   4   9
BRANCH   5  13
HETATM   13  N   UNL     1      -8.333  13.706  65.892  1.00  0.00     0.901 NA 
HETATM   14  H   UNL     1      -7.536  13.924  65.294  1.00  0.00     0.000 HD 
BRANCH  13  15
HETATM   15  C   UNL     1      -8.364  12.376  66.369  1.00  0.00     0.219 A  
HETATM   16  C   UNL     1      -7.165  11.743  66.618  1.00  0.00     0.025 A  
HETATM   17  C   UNL     1      -7.239  10.455  67.091  1.00  0.00    -0.091 A  
HETATM   18  N   UNL     1      -8.398   9.818  67.330  1.00  0.00    -0.121 NA 
HETATM   19  C   UNL     1      -9.523  10.497  67.059  1.00  0.00    -0.163 A  
HETATM   20  N   UNL     1      -9.527  11.756  66.593  1.00  0.00    -0.199 NA 
BRANCH  19  21
HETATM   21  N   UNL     1     -10.718   9.813  67.288  1.00  0.00    -0.255 NA 
HETATM   22  H   UNL     1     -11.397  10.325  67.851  1.00  0.00     0.000 HD 
BRANCH  21  23
HETATM   23  C   UNL     1     -11.144   8.542  66.877  1.00  0.00     0.684 A  
HETATM   24  C   UNL     1     -11.557   8.254  65.572  1.00  0.00     8.452 A  
HETATM   25  C   UNL     1     -11.934   6.969  65.184  1.00  0.00    10.645 A  
HETATM   26  C   UNL     1     -11.924   5.933  66.118  1.00  0.00     2.682 A  
HETATM   27  C   UNL     1     -12.271   4.608  65.704  1.00  0.00     4.502 C  
HETATM   28  C   UNL     1     -11.571   6.204  67.438  1.00  0.00     0.785 A  
HETATM   29  C   UNL     1     -11.190   7.498  67.816  1.00  0.00     0.283 A  
HETATM   30  N   UNL     1     -12.541   3.532  65.357  1.00  0.00     7.977 NA 
ENDBRANCH  21  23
ENDBRANCH  19  21
ENDBRANCH  13  15
ENDBRANCH   5  13
TORSDOF 5
ENDMDL
MODEL      222
REMARK 921   NORMALIZED FREE ENERGY PREDICTED BY IDOCK:   56.70 KCAL/MOL
REMARK 922        TOTAL FREE ENERGY PREDICTED BY IDOCK:   72.50 KCAL/MOL
REMARK 923 INTER-LIGAND FREE ENERGY PREDICTED BY IDOCK:   73.02 KCAL/MOL
REMARK 924 INTRA-LIGAND FREE ENERGY PREDICTED BY IDOCK:   -0.52 KCAL/MOL
REMARK 927      BINDING AFFINITY PREDICTED BY RF-SCORE:    0.00 PKD
ROOT
HETATM    1  C   UNL     1     -12.765  12.817  64.230  1.00  0.00    -0.338 C  
HETATM    2  C   UNL     1     -11.662  13.828  64.080  1.00  0.00    -0.364 A  
HETATM    3  C   UNL     1     -12.057  15.181  63.998  1.00  0.00    -0.072 A  
HETATM    4  C   UNL     1     -11.143  16.225  63.843  1.00  0.00     1.193 A  
HETATM    5  C   UNL     1     -10.299  13.493  63.926  1.00  0.00     0.562 A  
HETATM    6  C   UNL     1      -9.787  15.903  63.822  1.00  0.00     6.684 A  
HETATM    7  C   UNL     1      -7.868  14.297  63.930  1.00  0.00    16.631 C  
HETATM    8  C   UNL     1      -9.353  14.556  63.885  1.00  0.00     6.221 A  
ENDROOT
BRANCH   4   9
HETATM    9  C   UNL     1     -11.686  17.580  63.643  1.00  0.00     6.602 C  
HETATM   10  C   UNL     1     -11.105  18.585  62.973  1.00  0.00    16.926 C  
HETATM   11  C   UNL     1     -11.717  19.869  62.895  1.00  0.00    15.341 C  
HETATM   12  N   UNL     1     -12.221  20.912  62.847  1.00  0.00     5.907 NA 
ENDBRANCH   4   9
BRANCH   5  13
HETATM   13  N   UNL     1      -9.866  12.158  63.709  1.00  0.00    -0.576 NA 
HETATM   14  H   UNL     1      -9.825  11.879  62.729  1.00  0.00     0.000 HD 
BRANCH  13  15
HETATM   15  C   UNL     1      -9.483  11.152  64.624  1.00  0.00    -0.213 A  
HETATM   16  C   UNL     1     -10.194  11.030  65.799  1.00  0.00    -0.316 A  
HETATM   17  C   UNL     1      -9.796  10.032  66.656  1.00  0.00    -0.203 A  
HETATM   18  N   UNL     1      -8.784   9.188  66.391  1.00  0.00    -0.127 NA 
HETATM   19  C   UNL     1      -8.136   9.372  65.232  1.00  0.00    -0.124 A  
HETATM   20  N   UNL     1      -8.467  10.326  64.348  1.00  0.00    -0.174 NA 
BRANCH  19  21
HETATM   21  N   UNL     1      -7.072   8.502  64.984  1.00  0.00    -0.078 NA 
HETATM   22  H   UNL     1      -6.165   8.959  64.894  1.00  0.00     0.000 HD 
BRANCH  21  23
HETATM   23  C   UNL     1      -7.037   7.109  64.838  1.00  0.00    -0.064 A  
HETATM   24  C   UNL     1      -8.090   6.269  65.215  1.00  0.00    -0.132 A  
HETATM   25  C   UNL     1      -8.043   4.890  65.017  1.00  0.00    -0.107 A  
HETATM   26  C   UNL     1      -6.909   4.312  64.445  1.00  0.00    -0.045 A  
HETATM   27  C   UNL     1      -6.882   2.902  64.205  1.00  0.00    -0.036 C  
HETATM   28  C   UNL     1      -5.822   5.118  64.111  1.00  0.00    -0.017 A  
HETATM   29  C   UNL     1      -5.884   6.503  64.312  1.00  0.00    -0.030 A  
HETATM   30  N   UNL     1      -6.874   1.758  64.000  1.00  0.00    -0.030 NA 
ENDBRANCH  21  23
ENDBRANCH  19  21
ENDBRANCH  13  15
ENDBRANCH   5  13
TORSDOF 5
ENDMDL
MODEL      223
REMARK 921   NORMALIZED FREE ENERGY PREDICTED BY IDOCK:   75.32 KCAL/MOL
REMARK 922        TOTAL FREE ENERGY PREDICTED BY IDOCK:   96.55 KCAL/MOL
REMARK 923 INTER-LIGAND FREE ENERGY PREDICTED BY IDOCK:   92.54 KCAL/MOL
REMARK 924 INTRA-LIGAND FREE ENERGY PREDICTED BY IDOCK:    4.01 KCAL/MOL
REMARK 927      BINDING AFFINITY PREDICTED BY RF-SCORE:    0.00 PKD
ROOT
HETATM    1  C   UNL     1     -10.319   9.198  66.323  1.00  0.00    -0.166 C  
HETATM    2  C   UNL     1     -10.408  10.461  67.135  1.00  0.00    -0.290 A  
HETATM    3  C   UNL     1     -11.134  11.527  66.561  1.00  0.00    -0.341 A  
HETATM    4  C   UNL     1     -11.286  12.762  67.195  1.00  0.00    -0.365 A  
HETATM    5  C   UNL     1      -9.740  10.659  68.363  1.00  0.00    -0.166 A  
HETATM    6  C   UNL     1     -10.736  12.912  68.467  1.00  0.00    -0.275 A  
HETATM    7  C   UNL     1      -9.488  12.086  70.474  1.00  0.00     5.622 C  
HETATM    8  C   UNL     1      -9.987  11.871  69.067  1.00  0.00     0.078 A  
ENDROOT
BRANCH   4   9
HETATM    9  C   UNL     1     -11.958  13.835  66.440  1.00  0.00    -0.473 C  
HETATM   10  C   UNL     1     -11.543  14.386  65.291  1.00  0.00    -0.353 C  
HETATM   11  C   UNL     1     -12.264  15.456  64.685  1.00  0.00    -0.054 C  
HETATM   12  N   UNL     1     -12.853  16.332  64.207  1.00  0.00     0.602 NA 
ENDBRANCH   4   9
BRANCH   5  13
HETATM   13  N   UNL     1      -8.769   9.746  68.853  1.00  0.00    -0.129 NA 
HETATM   14  H   UNL     1      -8.380   9.121  68.148  1.00  0.00     0.000 HD 
BRANCH  13  15
HETATM   15  C   UNL     1      -8.250   9.559  70.155  1.00  0.00    -0.177 A  
HETATM   16  C   UNL     1      -7.221   8.658  70.326  1.00  0.00    -0.049 A  
HETATM   17  C   UNL     1      -6.739   8.514  71.604  1.00  0.00    -0.079 A  
HETATM   18  N   UNL     1      -7.205   9.210  72.655  1.00  0.00    -0.134 NA 
HETATM   19  C   UNL     1      -8.210  10.064  72.412  1.00  0.00     4.764 A  
HETATM   20  N   UNL     1      -8.733  10.255  71.191  1.00  0.00     1.483 NA 
BRANCH  19  21
HETATM   21  N   UNL     1      -8.700  10.760  73.519  1.00  0.00    11.928 NA 
HETATM   22  H   UNL     1      -8.328  10.444  74.415  1.00  0.00     0.000 HD 
BRANCH  21  23
HETATM   23  C   UNL     1      -9.614  11.818  73.610  1.00  0.00    23.919 A  
HETATM   24  C   UNL     1     -10.842  11.834  72.940  1.00  0.00    14.251 A  
HETATM   25  C   UNL     1     -11.750  12.881  73.085  1.00  0.00     6.213 A  
HETATM   26  C   UNL     1     -11.430  13.964  73.904  1.00  0.00     3.396 A  
HETATM   27  C   UNL     1     -12.382  15.017  74.084  1.00  0.00    -0.482 C  
HETATM   28  C   UNL     1     -10.191  14.002  74.540  1.00  0.00     8.746 A  
HETATM   29  C   UNL     1      -9.289  12.941  74.389  1.00  0.00    15.273 A  
HETATM   30  N   UNL     1     -13.168  15.861  74.235  1.00  0.00    -0.197 NA 
ENDBRANCH  21  23
ENDBRANCH  19  21
ENDBRANCH  13  15
ENDBRANCH   5  13
TORSDOF 5
ENDMDL
