MODEL        1
REMARK 921   NORMALIZED FREE ENERGY PREDICTED BY IDOCK:   -5.84 KCAL/MOL
REMARK 922        TOTAL FREE ENERGY PREDICTED BY IDOCK:   -6.57 KCAL/MOL
REMARK 923 INTER-LIGAND FREE ENERGY PREDICTED BY IDOCK:   -6.18 KCAL/MOL
REMARK 924 INTRA-LIGAND FREE ENERGY PREDICTED BY IDOCK:   -0.40 KCAL/MOL
REMARK 927      BINDING AFFINITY PREDICTED BY RF-SCORE:    0.00 PKD
ROOT
HETATM    1  N   UNL     1     -10.805  15.925  64.475  1.00  0.00    -0.855 NA 
HETATM    2  C   UNL     1     -10.961  15.721  65.792  1.00  0.00    -0.214 A  
HETATM    3  H1  UNL     1     -10.363  16.759  64.089  1.00  0.00     0.000 HD 
HETATM    4  H2  UNL     1     -11.145  15.212  63.829  1.00  0.00     0.000 HD 
HETATM    5  N   UNL     1     -11.528  14.651  66.287  1.00  0.00    -0.359 NA 
HETATM    6  C   UNL     1     -11.504  14.699  67.671  1.00  0.00    -0.346 A  
HETATM    7  C   UNL     1     -10.936  15.848  68.218  1.00  0.00    -0.329 A  
HETATM    8  C   UNL     1     -10.840  16.039  69.606  1.00  0.00    -0.329 A  
HETATM    9  S   UNL     1     -10.419  16.875  66.938  1.00  0.00    -0.226 SA 
HETATM   10  C   UNL     1     -11.338  15.047  70.461  1.00  0.00    -0.276 A  
HETATM   11  C   UNL     1     -11.871  13.875  69.936  1.00  0.00    -0.394 A  
HETATM   12  C   UNL     1     -11.976  13.701  68.547  1.00  0.00    -0.396 A  
ENDROOT
BRANCH  10  13
HETATM   13  O   UNL     1     -11.169  15.319  71.786  1.00  0.00    -0.408 OA 
HETATM   14  C   UNL     1     -12.264  15.795  72.557  1.00  0.00    -0.472 C  
HETATM   15  F   UNL     1     -13.382  16.041  71.843  1.00  0.00    -0.512 F  
HETATM   16  F   UNL     1     -12.551  14.896  73.521  1.00  0.00    -0.487 F  
HETATM   17  F   UNL     1     -11.892  16.949  73.156  1.00  0.00    -0.574 F  
ENDBRANCH  10  13
TORSDOF 1
ENDMDL
MODEL        2
REMARK 921   NORMALIZED FREE ENERGY PREDICTED BY IDOCK:   -5.79 KCAL/MOL
REMARK 922        TOTAL FREE ENERGY PREDICTED BY IDOCK:   -6.52 KCAL/MOL
REMARK 923 INTER-LIGAND FREE ENERGY PREDICTED BY IDOCK:   -6.13 KCAL/MOL
REMARK 924 INTRA-LIGAND FREE ENERGY PREDICTED BY IDOCK:   -0.39 KCAL/MOL
REMARK 927      BINDING AFFINITY PREDICTED BY RF-SCORE:    0.00 PKD
ROOT
HETATM    1  N   UNL     1     -11.531  16.361  63.920  1.00  0.00    -1.618 NA 
HETATM    2  C   UNL     1     -11.309  15.379  64.807  1.00  0.00    -0.376 A  
HETATM    3  H1  UNL     1     -12.402  16.452  63.396  1.00  0.00     0.000 HD 
HETATM    4  H2  UNL     1     -10.795  17.050  63.761  1.00  0.00     0.000 HD 
HETATM    5  N   UNL     1     -10.192  15.263  65.478  1.00  0.00    -0.364 NA 
HETATM    6  C   UNL     1     -10.271  14.189  66.348  1.00  0.00    -0.290 A  
HETATM    7  C   UNL     1     -11.463  13.467  66.297  1.00  0.00    -0.326 A  
HETATM    8  C   UNL     1     -11.689  12.351  67.119  1.00  0.00    -0.415 A  
HETATM    9  S   UNL     1     -12.496  14.185  65.123  1.00  0.00    -0.396 SA 
HETATM   10  C   UNL     1     -10.683  11.951  68.009  1.00  0.00    -0.209 A  
HETATM   11  C   UNL     1      -9.504  12.683  68.105  1.00  0.00    -0.218 A  
HETATM   12  C   UNL     1      -9.281  13.787  67.267  1.00  0.00    -0.239 A  
ENDROOT
BRANCH  10  13
HETATM   13  O   UNL     1     -11.017  10.878  68.779  1.00  0.00    -0.202 OA 
HETATM   14  C   UNL     1     -11.664  11.077  70.029  1.00  0.00    -0.355 C  
HETATM   15  F   UNL     1     -11.792  12.370  70.390  1.00  0.00    -0.396 F  
HETATM   16  F   UNL     1     -12.889  10.513  69.989  1.00  0.00    -0.367 F  
HETATM   17  F   UNL     1     -10.943  10.449  70.986  1.00  0.00    -0.363 F  
ENDBRANCH  10  13
TORSDOF 1
ENDMDL
MODEL        3
REMARK 921   NORMALIZED FREE ENERGY PREDICTED BY IDOCK:   -5.78 KCAL/MOL
REMARK 922        TOTAL FREE ENERGY PREDICTED BY IDOCK:   -6.51 KCAL/MOL
REMARK 923 INTER-LIGAND FREE ENERGY PREDICTED BY IDOCK:   -6.13 KCAL/MOL
REMARK 924 INTRA-LIGAND FREE ENERGY PREDICTED BY IDOCK:   -0.38 KCAL/MOL
REMARK 927      BINDING AFFINITY PREDICTED BY RF-SCORE:    0.00 PKD
ROOT
HETATM    1  N   UNL     1     -13.131  16.118  74.286  1.00  0.00    -0.925 NA 
HETATM    2  C   UNL     1     -12.697  15.699  73.087  1.00  0.00    -0.486 A  
HETATM    3  H1  UNL     1     -13.714  15.548  74.898  1.00  0.00     0.000 HD 
HETATM    4  H2  UNL     1     -12.864  17.051  74.600  1.00  0.00     0.000 HD 
HETATM    5  N   UNL     1     -11.950  16.430  72.302  1.00  0.00    -0.511 NA 
HETATM    6  C   UNL     1     -11.623  15.718  71.160  1.00  0.00    -0.419 A  
HETATM    7  C   UNL     1     -12.169  14.439  71.078  1.00  0.00    -0.351 A  
HETATM    8  C   UNL     1     -11.927  13.598  69.980  1.00  0.00    -0.413 A  
HETATM    9  S   UNL     1     -13.107  14.145  72.490  1.00  0.00    -0.460 SA 
HETATM   10  C   UNL     1     -11.118  14.066  68.936  1.00  0.00    -0.268 A  
HETATM   11  C   UNL     1     -10.529  15.323  69.017  1.00  0.00    -0.248 A  
HETATM   12  C   UNL     1     -10.791  16.162  70.112  1.00  0.00    -0.328 A  
ENDROOT
BRANCH  10  13
HETATM   13  O   UNL     1     -10.923  13.161  67.935  1.00  0.00    -0.236 OA 
HETATM   14  C   UNL     1     -11.608  13.313  66.699  1.00  0.00    -0.365 C  
HETATM   15  F   UNL     1     -12.501  14.324  66.679  1.00  0.00    -0.471 F  
HETATM   16  F   UNL     1     -10.707  13.509  65.714  1.00  0.00    -0.267 F  
HETATM   17  F   UNL     1     -12.274  12.166  66.438  1.00  0.00    -0.377 F  
ENDBRANCH  10  13
TORSDOF 1
ENDMDL
MODEL        4
REMARK 921   NORMALIZED FREE ENERGY PREDICTED BY IDOCK:   -5.76 KCAL/MOL
REMARK 922        TOTAL FREE ENERGY PREDICTED BY IDOCK:   -6.49 KCAL/MOL
REMARK 923 INTER-LIGAND FREE ENERGY PREDICTED BY IDOCK:   -6.16 KCAL/MOL
REMARK 924 INTRA-LIGAND FREE ENERGY PREDICTED BY IDOCK:   -0.34 KCAL/MOL
REMARK 927      BINDING AFFINITY PREDICTED BY RF-SCORE:    0.00 PKD
ROOT
HETATM    1  N   UNL     1     -10.982   9.768  67.943  1.00  0.00    -0.466 NA 
HETATM    2  C   UNL     1     -11.450  10.734  68.749  1.00  0.00    -0.295 A  
HETATM    3  H1  UNL     1     -10.478   9.960  67.077  1.00  0.00     0.000 HD 
HETATM    4  H2  UNL     1     -11.136   8.795  68.209  1.00  0.00     0.000 HD 
HETATM    5  N   UNL     1     -12.096  10.487  69.859  1.00  0.00    -0.271 NA 
HETATM    6  C   UNL     1     -12.411  11.674  70.498  1.00  0.00    -0.321 A  
HETATM    7  C   UNL     1     -12.021  12.833  69.829  1.00  0.00    -0.292 A  
HETATM    8  C   UNL     1     -12.272  14.111  70.353  1.00  0.00    -0.427 A  
HETATM    9  S   UNL     1     -11.232  12.390  68.366  1.00  0.00    -0.298 SA 
HETATM   10  C   UNL     1     -12.941  14.220  71.580  1.00  0.00    -0.346 A  
HETATM   11  C   UNL     1     -13.301  13.076  72.283  1.00  0.00    -0.606 A  
HETATM   12  C   UNL     1     -13.060  11.803  71.743  1.00  0.00    -0.480 A  
ENDROOT
BRANCH  10  13
HETATM   13  O   UNL     1     -13.106  15.503  72.011  1.00  0.00    -0.389 OA 
HETATM   14  C   UNL     1     -12.231  16.038  72.994  1.00  0.00    -0.533 C  
HETATM   15  F   UNL     1     -11.352  15.149  73.500  1.00  0.00    -0.399 F  
HETATM   16  F   UNL     1     -11.547  17.073  72.462  1.00  0.00    -0.519 F  
HETATM   17  F   UNL     1     -12.978  16.510  74.017  1.00  0.00    -0.513 F  
ENDBRANCH  10  13
TORSDOF 1
ENDMDL
MODEL        5
REMARK 921   NORMALIZED FREE ENERGY PREDICTED BY IDOCK:   -5.67 KCAL/MOL
REMARK 922        TOTAL FREE ENERGY PREDICTED BY IDOCK:   -6.40 KCAL/MOL
REMARK 923 INTER-LIGAND FREE ENERGY PREDICTED BY IDOCK:   -6.00 KCAL/MOL
REMARK 924 INTRA-LIGAND FREE ENERGY PREDICTED BY IDOCK:   -0.40 KCAL/MOL
REMARK 927      BINDING AFFINITY PREDICTED BY RF-SCORE:    0.00 PKD
ROOT
HETATM    1  N   UNL     1     -12.172  13.589  63.166  1.00  0.00    -0.999 NA 
HETATM    2  C   UNL     1     -11.987  13.724  64.488  1.00  0.00    -0.427 A  
HETATM    3  H1  UNL     1     -12.024  14.349  62.502  1.00  0.00     0.000 HD 
HETATM    4  H2  UNL     1     -12.476  12.683  62.807  1.00  0.00     0.000 HD 
HETATM    5  N   UNL     1     -12.177  12.749  65.339  1.00  0.00    -0.468 NA 
HETATM    6  C   UNL     1     -11.863  13.170  66.620  1.00  0.00    -0.391 A  
HETATM    7  C   UNL     1     -11.462  14.500  66.729  1.00  0.00    -0.367 A  
HETATM    8  C   UNL     1     -11.112  15.070  67.964  1.00  0.00    -0.304 A  
HETATM    9  S   UNL     1     -11.482  15.215  65.164  1.00  0.00    -0.260 SA 
HETATM   10  C   UNL     1     -11.175  14.276  69.117  1.00  0.00    -0.270 A  
HETATM   11  C   UNL     1     -11.532  12.935  69.024  1.00  0.00    -0.358 A  
HETATM   12  C   UNL     1     -11.896  12.380  67.787  1.00  0.00    -0.362 A  
ENDROOT
BRANCH  10  13
HETATM   13  O   UNL     1     -10.786  14.918  70.255  1.00  0.00    -0.199 OA 
HETATM   14  C   UNL     1     -11.758  15.535  71.087  1.00  0.00    -0.391 C  
HETATM   15  F   UNL     1     -13.011  15.515  70.589  1.00  0.00    -0.441 F  
HETATM   16  F   UNL     1     -11.759  14.931  72.293  1.00  0.00    -0.414 F  
HETATM   17  F   UNL     1     -11.405  16.829  71.266  1.00  0.00    -0.351 F  
ENDBRANCH  10  13
TORSDOF 1
ENDMDL
MODEL        6
REMARK 921   NORMALIZED FREE ENERGY PREDICTED BY IDOCK:   -5.59 KCAL/MOL
REMARK 922        TOTAL FREE ENERGY PREDICTED BY IDOCK:   -6.31 KCAL/MOL
REMARK 923 INTER-LIGAND FREE ENERGY PREDICTED BY IDOCK:   -5.92 KCAL/MOL
REMARK 924 INTRA-LIGAND FREE ENERGY PREDICTED BY IDOCK:   -0.39 KCAL/MOL
REMARK 927      BINDING AFFINITY PREDICTED BY RF-SCORE:    0.00 PKD
ROOT
HETATM    1  N   UNL     1     -12.529   7.675  71.016  1.00  0.00    -0.503 NA 
HETATM    2  C   UNL     1     -12.561   9.015  71.083  1.00  0.00    -0.211 A  
HETATM    3  H1  UNL     1     -13.041   7.073  71.660  1.00  0.00     0.000 HD 
HETATM    4  H2  UNL     1     -11.965   7.238  70.286  1.00  0.00     0.000 HD 
HETATM    5  N   UNL     1     -11.903   9.788  70.256  1.00  0.00    -0.196 NA 
HETATM    6  C   UNL     1     -12.166  11.117  70.540  1.00  0.00    -0.384 A  
HETATM    7  C   UNL     1     -13.012  11.339  71.625  1.00  0.00    -0.432 A  
HETATM    8  C   UNL     1     -13.369  12.635  72.033  1.00  0.00    -0.555 A  
HETATM    9  S   UNL     1     -13.481   9.821  72.283  1.00  0.00    -0.236 SA 
HETATM   10  C   UNL     1     -12.853  13.732  71.330  1.00  0.00    -0.369 A  
HETATM   11  C   UNL     1     -12.041  13.531  70.219  1.00  0.00    -0.425 A  
HETATM   12  C   UNL     1     -11.677  12.232  69.830  1.00  0.00    -0.368 A  
ENDROOT
BRANCH  10  13
HETATM   13  O   UNL     1     -13.286  14.940  71.789  1.00  0.00    -0.314 OA 
HETATM   14  C   UNL     1     -12.514  15.652  72.746  1.00  0.00    -0.436 C  
HETATM   15  F   UNL     1     -11.436  14.981  73.202  1.00  0.00    -0.455 F  
HETATM   16  F   UNL     1     -12.104  16.819  72.207  1.00  0.00    -0.462 F  
HETATM   17  F   UNL     1     -13.305  15.934  73.807  1.00  0.00    -0.571 F  
ENDBRANCH  10  13
TORSDOF 1
ENDMDL
MODEL        7
REMARK 921   NORMALIZED FREE ENERGY PREDICTED BY IDOCK:   -5.55 KCAL/MOL
REMARK 922        TOTAL FREE ENERGY PREDICTED BY IDOCK:   -6.27 KCAL/MOL
REMARK 923 INTER-LIGAND FREE ENERGY PREDICTED BY IDOCK:   -5.99 KCAL/MOL
REMARK 924 INTRA-LIGAND FREE ENERGY PREDICTED BY IDOCK:   -0.28 KCAL/MOL
REMARK 927      BINDING AFFINITY PREDICTED BY RF-SCORE:    0.00 PKD
ROOT
HETATM    1  N   UNL     1      -9.884  13.677  65.234  1.00  0.00    -0.554 NA 
HETATM    2  C   UNL     1     -10.483  13.946  66.405  1.00  0.00    -0.284 A  
HETATM    3  H1  UNL     1      -9.574  14.403  64.588  1.00  0.00     0.000 HD 
HETATM    4  H2  UNL     1      -9.731  12.702  64.978  1.00  0.00     0.000 HD 
HETATM    5  N   UNL     1     -10.882  13.015  67.233  1.00  0.00    -0.250 NA 
HETATM    6  C   UNL     1     -11.418  13.592  68.371  1.00  0.00    -0.311 A  
HETATM    7  C   UNL     1     -11.452  14.985  68.375  1.00  0.00    -0.323 A  
HETATM    8  C   UNL     1     -11.967  15.711  69.460  1.00  0.00    -0.363 A  
HETATM    9  S   UNL     1     -10.777  15.560  66.900  1.00  0.00    -0.303 SA 
HETATM   10  C   UNL     1     -12.468  15.011  70.567  1.00  0.00    -0.371 A  
HETATM   11  C   UNL     1     -12.405  13.622  70.601  1.00  0.00    -0.440 A  
HETATM   12  C   UNL     1     -11.902  12.905  69.503  1.00  0.00    -0.383 A  
ENDROOT
BRANCH  10  13
HETATM   13  O   UNL     1     -12.916  15.811  71.575  1.00  0.00    -0.470 OA 
HETATM   14  C   UNL     1     -12.150  15.946  72.765  1.00  0.00    -0.505 C  
HETATM   15  F   UNL     1     -11.062  15.150  72.820  1.00  0.00    -0.478 F  
HETATM   16  F   UNL     1     -11.758  17.230  72.896  1.00  0.00    -0.419 F  
HETATM   17  F   UNL     1     -12.942  15.638  73.817  1.00  0.00    -0.535 F  
ENDBRANCH  10  13
TORSDOF 1
ENDMDL
MODEL        8
REMARK 921   NORMALIZED FREE ENERGY PREDICTED BY IDOCK:   -5.55 KCAL/MOL
REMARK 922        TOTAL FREE ENERGY PREDICTED BY IDOCK:   -6.27 KCAL/MOL
REMARK 923 INTER-LIGAND FREE ENERGY PREDICTED BY IDOCK:   -5.95 KCAL/MOL
REMARK 924 INTRA-LIGAND FREE ENERGY PREDICTED BY IDOCK:   -0.32 KCAL/MOL
REMARK 927      BINDING AFFINITY PREDICTED BY RF-SCORE:    0.00 PKD
ROOT
HETATM    1  N   UNL     1     -11.982  10.823  68.013  1.00  0.00    -0.773 NA 
HETATM    2  C   UNL     1     -11.604  11.983  67.454  1.00  0.00    -0.318 A  
HETATM    3  H1  UNL     1     -11.614  10.487  68.902  1.00  0.00     0.000 HD 
HETATM    4  H2  UNL     1     -12.670  10.249  67.525  1.00  0.00     0.000 HD 
HETATM    5  N   UNL     1     -12.076  12.413  66.312  1.00  0.00    -0.630 NA 
HETATM    6  C   UNL     1     -11.539  13.654  66.015  1.00  0.00    -0.337 A  
HETATM    7  C   UNL     1     -10.620  14.143  66.941  1.00  0.00    -0.280 A  
HETATM    8  C   UNL     1      -9.991  15.388  66.775  1.00  0.00    -0.256 A  
HETATM    9  S   UNL     1     -10.450  12.997  68.213  1.00  0.00    -0.253 SA 
HETATM   10  C   UNL     1     -10.296  16.154  65.641  1.00  0.00    -0.382 A  
HETATM   11  C   UNL     1     -11.242  15.703  64.727  1.00  0.00    -0.391 A  
HETATM   12  C   UNL     1     -11.852  14.449  64.894  1.00  0.00    -0.419 A  
ENDROOT
BRANCH  10  13
HETATM   13  O   UNL     1      -9.655  17.356  65.593  1.00  0.00    -0.519 OA 
HETATM   14  C   UNL     1     -10.102  18.430  66.409  1.00  0.00    -0.403 C  
HETATM   15  F   UNL     1     -11.232  18.171  67.100  1.00  0.00    -0.237 F  
HETATM   16  F   UNL     1      -9.126  18.763  67.279  1.00  0.00    -0.269 F  
HETATM   17  F   UNL     1     -10.339  19.498  65.613  1.00  0.00    -0.477 F  
ENDBRANCH  10  13
TORSDOF 1
ENDMDL
MODEL        9
REMARK 921   NORMALIZED FREE ENERGY PREDICTED BY IDOCK:   -5.55 KCAL/MOL
REMARK 922        TOTAL FREE ENERGY PREDICTED BY IDOCK:   -6.27 KCAL/MOL
REMARK 923 INTER-LIGAND FREE ENERGY PREDICTED BY IDOCK:   -5.90 KCAL/MOL
REMARK 924 INTRA-LIGAND FREE ENERGY PREDICTED BY IDOCK:   -0.37 KCAL/MOL
REMARK 927      BINDING AFFINITY PREDICTED BY RF-SCORE:    0.00 PKD
ROOT
HETATM    1  N   UNL     1     -12.379  14.155  63.541  1.00  0.00    -1.127 NA 
HETATM    2  C   UNL     1     -12.089  13.654  64.752  1.00  0.00    -0.402 A  
HETATM    3  H1  UNL     1     -12.264  13.625  62.677  1.00  0.00     0.000 HD 
HETATM    4  H2  UNL     1     -12.730  15.111  63.481  1.00  0.00     0.000 HD 
HETATM    5  N   UNL     1     -12.237  14.334  65.860  1.00  0.00    -0.420 NA 
HETATM    6  C   UNL     1     -11.905  13.544  66.948  1.00  0.00    -0.407 A  
HETATM    7  C   UNL     1     -11.468  12.257  66.640  1.00  0.00    -0.373 A  
HETATM    8  C   UNL     1     -11.096  11.342  67.637  1.00  0.00    -0.336 A  
HETATM    9  S   UNL     1     -11.491  12.058  64.931  1.00  0.00    -0.259 SA 
HETATM   10  C   UNL     1     -11.162  11.740  68.980  1.00  0.00    -0.265 A  
HETATM   11  C   UNL     1     -11.636  13.005  69.311  1.00  0.00    -0.367 A  
HETATM   12  C   UNL     1     -11.989  13.918  68.304  1.00  0.00    -0.392 A  
ENDROOT
BRANCH  10  13
HETATM   13  O   UNL     1     -10.809  10.767  69.866  1.00  0.00    -0.261 OA 
HETATM   14  C   UNL     1     -11.812   9.970  70.480  1.00  0.00    -0.303 C  
HETATM   15  F   UNL     1     -13.075  10.345  70.190  1.00  0.00    -0.345 F  
HETATM   16  F   UNL     1     -11.644   8.683  70.111  1.00  0.00    -0.214 F  
HETATM   17  F   UNL     1     -11.655  10.047  71.821  1.00  0.00    -0.425 F  
ENDBRANCH  10  13
TORSDOF 1
ENDMDL
MODEL       10
REMARK 921   NORMALIZED FREE ENERGY PREDICTED BY IDOCK:   -5.54 KCAL/MOL
REMARK 922        TOTAL FREE ENERGY PREDICTED BY IDOCK:   -6.26 KCAL/MOL
REMARK 923 INTER-LIGAND FREE ENERGY PREDICTED BY IDOCK:   -5.98 KCAL/MOL
REMARK 924 INTRA-LIGAND FREE ENERGY PREDICTED BY IDOCK:   -0.28 KCAL/MOL
REMARK 927      BINDING AFFINITY PREDICTED BY RF-SCORE:    0.00 PKD
ROOT
HETATM    1  N   UNL     1     -11.684  16.353  71.131  1.00  0.00    -0.620 NA 
HETATM    2  C   UNL     1     -11.550  15.597  70.031  1.00  0.00    -0.350 A  
HETATM    3  H1  UNL     1     -11.543  17.363  71.134  1.00  0.00     0.000 HD 
HETATM    4  H2  UNL     1     -11.939  15.897  72.007  1.00  0.00     0.000 HD 
HETATM    5  N   UNL     1     -11.730  14.301  70.028  1.00  0.00    -0.288 NA 
HETATM    6  C   UNL     1     -11.570  13.803  68.747  1.00  0.00    -0.328 A  
HETATM    7  C   UNL     1     -11.228  14.745  67.779  1.00  0.00    -0.313 A  
HETATM    8  C   UNL     1     -11.031  14.390  66.435  1.00  0.00    -0.319 A  
HETATM    9  S   UNL     1     -11.119  16.292  68.525  1.00  0.00    -0.357 SA 
HETATM   10  C   UNL     1     -11.178  13.047  66.062  1.00  0.00    -0.292 A  
HETATM   11  C   UNL     1     -11.560  12.098  67.004  1.00  0.00    -0.406 A  
HETATM   12  C   UNL     1     -11.738  12.461  68.348  1.00  0.00    -0.386 A  
ENDROOT
BRANCH  10  13
HETATM   13  O   UNL     1     -10.995  12.816  64.731  1.00  0.00    -0.284 OA 
HETATM   14  C   UNL     1     -12.113  12.531  63.902  1.00  0.00    -0.498 C  
HETATM   15  F   UNL     1     -13.281  12.407  64.565  1.00  0.00    -0.489 F  
HETATM   16  F   UNL     1     -12.239  13.504  62.976  1.00  0.00    -0.581 F  
HETATM   17  F   UNL     1     -11.878  11.365  63.257  1.00  0.00    -0.468 F  
ENDBRANCH  10  13
TORSDOF 1
ENDMDL
MODEL       11
REMARK 921   NORMALIZED FREE ENERGY PREDICTED BY IDOCK:   -5.53 KCAL/MOL
REMARK 922        TOTAL FREE ENERGY PREDICTED BY IDOCK:   -6.25 KCAL/MOL
REMARK 923 INTER-LIGAND FREE ENERGY PREDICTED BY IDOCK:   -5.87 KCAL/MOL
REMARK 924 INTRA-LIGAND FREE ENERGY PREDICTED BY IDOCK:   -0.38 KCAL/MOL
REMARK 927      BINDING AFFINITY PREDICTED BY RF-SCORE:    0.00 PKD
ROOT
HETATM    1  N   UNL     1     -13.589  16.185  73.486  1.00  0.00    -0.866 NA 
HETATM    2  C   UNL     1     -13.277  15.179  72.654  1.00  0.00    -0.437 A  
HETATM    3  H1  UNL     1     -13.508  17.168  73.226  1.00  0.00     0.000 HD 
HETATM    4  H2  UNL     1     -13.923  15.956  74.422  1.00  0.00     0.000 HD 
HETATM    5  N   UNL     1     -13.381  13.918  72.987  1.00  0.00    -0.569 NA 
HETATM    6  C   UNL     1     -13.036  13.115  71.914  1.00  0.00    -0.385 A  
HETATM    7  C   UNL     1     -12.632  13.794  70.766  1.00  0.00    -0.340 A  
HETATM    8  C   UNL     1     -12.252  13.114  69.597  1.00  0.00    -0.241 A  
HETATM    9  S   UNL     1     -12.706  15.486  71.067  1.00  0.00    -0.464 SA 
HETATM   10  C   UNL     1     -12.274  11.712  69.593  1.00  0.00    -0.206 A  
HETATM   11  C   UNL     1     -12.714  11.017  70.714  1.00  0.00    -0.414 A  
HETATM   12  C   UNL     1     -13.076  11.706  71.882  1.00  0.00    -0.490 A  
ENDROOT
BRANCH  10  13
HETATM   13  O   UNL     1     -11.917  11.155  68.402  1.00  0.00    -0.561 OA 
HETATM   14  C   UNL     1     -10.643  10.540  68.261  1.00  0.00    -0.206 C  
HETATM   15  F   UNL     1      -9.841  10.671  69.338  1.00  0.00    -0.218 F  
HETATM   16  F   UNL     1     -10.810   9.227  68.000  1.00  0.00    -0.277 F  
HETATM   17  F   UNL     1     -10.014  11.103  67.205  1.00  0.00    -0.193 F  
ENDBRANCH  10  13
TORSDOF 1
ENDMDL
MODEL       12
REMARK 921   NORMALIZED FREE ENERGY PREDICTED BY IDOCK:   -5.51 KCAL/MOL
REMARK 922        TOTAL FREE ENERGY PREDICTED BY IDOCK:   -6.23 KCAL/MOL
REMARK 923 INTER-LIGAND FREE ENERGY PREDICTED BY IDOCK:   -5.90 KCAL/MOL
REMARK 924 INTRA-LIGAND FREE ENERGY PREDICTED BY IDOCK:   -0.33 KCAL/MOL
REMARK 927      BINDING AFFINITY PREDICTED BY RF-SCORE:    0.00 PKD
ROOT
HETATM    1  N   UNL     1     -12.696  12.506  64.716  1.00  0.00    -0.755 NA 
HETATM    2  C   UNL     1     -12.178  13.505  65.447  1.00  0.00    -0.447 A  
HETATM    3  H1  UNL     1     -12.546  12.415  63.711  1.00  0.00     0.000 HD 
HETATM    4  H2  UNL     1     -13.268  11.804  65.186  1.00  0.00     0.000 HD 
HETATM    5  N   UNL     1     -12.371  13.621  66.736  1.00  0.00    -0.359 NA 
HETATM    6  C   UNL     1     -11.678  14.716  67.222  1.00  0.00    -0.385 A  
HETATM    7  C   UNL     1     -10.980  15.453  66.266  1.00  0.00    -0.278 A  
HETATM    8  C   UNL     1     -10.231  16.590  66.608  1.00  0.00    -0.302 A  
HETATM    9  S   UNL     1     -11.211  14.722  64.726  1.00  0.00    -0.363 SA 
HETATM   10  C   UNL     1     -10.192  16.996  67.949  1.00  0.00    -0.317 A  
HETATM   11  C   UNL     1     -10.847  16.252  68.924  1.00  0.00    -0.317 A  
HETATM   12  C   UNL     1     -11.607  15.126  68.569  1.00  0.00    -0.354 A  
ENDROOT
BRANCH  10  13
HETATM   13  O   UNL     1      -9.413  18.092  68.176  1.00  0.00    -0.271 OA 
HETATM   14  C   UNL     1      -9.951  19.394  67.990  1.00  0.00    -0.387 C  
HETATM   15  F   UNL     1     -11.201  19.412  67.483  1.00  0.00    -0.545 F  
HETATM   16  F   UNL     1      -9.949  20.047  69.170  1.00  0.00    -0.455 F  
HETATM   17  F   UNL     1      -9.148  20.068  67.135  1.00  0.00    -0.362 F  
ENDBRANCH  10  13
TORSDOF 1
ENDMDL
MODEL       13
REMARK 921   NORMALIZED FREE ENERGY PREDICTED BY IDOCK:   -5.49 KCAL/MOL
REMARK 922        TOTAL FREE ENERGY PREDICTED BY IDOCK:   -6.21 KCAL/MOL
REMARK 923 INTER-LIGAND FREE ENERGY PREDICTED BY IDOCK:   -5.83 KCAL/MOL
REMARK 924 INTRA-LIGAND FREE ENERGY PREDICTED BY IDOCK:   -0.38 KCAL/MOL
REMARK 927      BINDING AFFINITY PREDICTED BY RF-SCORE:    0.00 PKD
ROOT
HETATM    1  N   UNL     1     -10.147  13.009  63.831  1.00  0.00    -0.757 NA 
HETATM    2  C   UNL     1     -10.479  13.593  64.993  1.00  0.00    -0.391 A  
HETATM    3  H1  UNL     1     -10.440  12.065  63.578  1.00  0.00     0.000 HD 
HETATM    4  H2  UNL     1      -9.575  13.533  63.169  1.00  0.00     0.000 HD 
HETATM    5  N   UNL     1     -10.104  14.804  65.316  1.00  0.00    -0.372 NA 
HETATM    6  C   UNL     1     -10.634  15.151  66.547  1.00  0.00    -0.304 A  
HETATM    7  C   UNL     1     -11.394  14.163  67.169  1.00  0.00    -0.332 A  
HETATM    8  C   UNL     1     -11.996  14.368  68.421  1.00  0.00    -0.328 A  
HETATM    9  S   UNL     1     -11.434  12.773  66.156  1.00  0.00    -0.372 SA 
HETATM   10  C   UNL     1     -11.819  15.602  69.062  1.00  0.00    -0.364 A  
HETATM   11  C   UNL     1     -11.100  16.616  68.439  1.00  0.00    -0.305 A  
HETATM   12  C   UNL     1     -10.488  16.394  67.195  1.00  0.00    -0.297 A  
ENDROOT
BRANCH  10  13
HETATM   13  O   UNL     1     -12.470  15.707  70.255  1.00  0.00    -0.410 OA 
HETATM   14  C   UNL     1     -11.734  15.654  71.470  1.00  0.00    -0.433 C  
HETATM   15  F   UNL     1     -10.421  15.386  71.314  1.00  0.00    -0.267 F  
HETATM   16  F   UNL     1     -11.865  16.829  72.120  1.00  0.00    -0.523 F  
HETATM   17  F   UNL     1     -12.265  14.682  72.246  1.00  0.00    -0.376 F  
ENDBRANCH  10  13
TORSDOF 1
ENDMDL
MODEL       14
REMARK 921   NORMALIZED FREE ENERGY PREDICTED BY IDOCK:   -5.49 KCAL/MOL
REMARK 922        TOTAL FREE ENERGY PREDICTED BY IDOCK:   -6.20 KCAL/MOL
REMARK 923 INTER-LIGAND FREE ENERGY PREDICTED BY IDOCK:   -5.91 KCAL/MOL
REMARK 924 INTRA-LIGAND FREE ENERGY PREDICTED BY IDOCK:   -0.29 KCAL/MOL
REMARK 927      BINDING AFFINITY PREDICTED BY RF-SCORE:    0.00 PKD
ROOT
HETATM    1  N   UNL     1     -10.267  19.458  68.875  1.00  0.00    -0.577 NA 
HETATM    2  C   UNL     1     -10.279  18.322  68.161  1.00  0.00    -0.387 A  
HETATM    3  H1  UNL     1     -10.325  20.383  68.450  1.00  0.00     0.000 HD 
HETATM    4  H2  UNL     1     -10.198  19.394  69.891  1.00  0.00     0.000 HD 
HETATM    5  N   UNL     1     -10.205  17.135  68.706  1.00  0.00    -0.314 NA 
HETATM    6  C   UNL     1     -10.287  16.158  67.729  1.00  0.00    -0.283 A  
HETATM    7  C   UNL     1     -10.390  16.630  66.421  1.00  0.00    -0.306 A  
HETATM    8  C   UNL     1     -10.482  15.759  65.324  1.00  0.00    -0.427 A  
HETATM    9  S   UNL     1     -10.389  18.350  66.451  1.00  0.00    -0.391 SA 
HETATM   10  C   UNL     1     -10.462  14.377  65.553  1.00  0.00    -0.350 A  
HETATM   11  C   UNL     1     -10.402  13.885  66.853  1.00  0.00    -0.266 A  
HETATM   12  C   UNL     1     -10.294  14.765  67.942  1.00  0.00    -0.240 A  
ENDROOT
BRANCH  10  13
HETATM   13  O   UNL     1     -10.586  13.624  64.424  1.00  0.00    -0.423 OA 
HETATM   14  C   UNL     1     -11.816  12.971  64.141  1.00  0.00    -0.416 C  
HETATM   15  F   UNL     1     -12.742  13.081  65.115  1.00  0.00    -0.495 F  
HETATM   16  F   UNL     1     -12.328  13.466  62.995  1.00  0.00    -0.607 F  
HETATM   17  F   UNL     1     -11.566  11.654  63.955  1.00  0.00    -0.430 F  
ENDBRANCH  10  13
TORSDOF 1
ENDMDL
MODEL       15
REMARK 921   NORMALIZED FREE ENERGY PREDICTED BY IDOCK:   -5.48 KCAL/MOL
REMARK 922        TOTAL FREE ENERGY PREDICTED BY IDOCK:   -6.20 KCAL/MOL
REMARK 923 INTER-LIGAND FREE ENERGY PREDICTED BY IDOCK:   -5.82 KCAL/MOL
REMARK 924 INTRA-LIGAND FREE ENERGY PREDICTED BY IDOCK:   -0.38 KCAL/MOL
REMARK 927      BINDING AFFINITY PREDICTED BY RF-SCORE:    0.00 PKD
ROOT
HETATM    1  N   UNL     1     -11.977  11.494  67.515  1.00  0.00    -0.622 NA 
HETATM    2  C   UNL     1     -11.534  12.749  67.340  1.00  0.00    -0.340 A  
HETATM    3  H1  UNL     1     -12.550  11.005  66.828  1.00  0.00     0.000 HD 
HETATM    4  H2  UNL     1     -11.730  11.006  68.376  1.00  0.00     0.000 HD 
HETATM    5  N   UNL     1     -10.799  13.376  68.222  1.00  0.00    -0.248 NA 
HETATM    6  C   UNL     1     -10.456  14.630  67.747  1.00  0.00    -0.246 A  
HETATM    7  C   UNL     1     -10.977  14.958  66.497  1.00  0.00    -0.327 A  
HETATM    8  C   UNL     1     -10.716  16.195  65.886  1.00  0.00    -0.261 A  
HETATM    9  S   UNL     1     -11.912  13.633  65.921  1.00  0.00    -0.433 SA 
HETATM   10  C   UNL     1      -9.914  17.127  66.559  1.00  0.00    -0.302 A  
HETATM   11  C   UNL     1      -9.350  16.803  67.788  1.00  0.00    -0.233 A  
HETATM   12  C   UNL     1      -9.631  15.570  68.398  1.00  0.00    -0.199 A  
ENDROOT
BRANCH  10  13
HETATM   13  O   UNL     1      -9.700  18.280  65.865  1.00  0.00    -0.516 OA 
HETATM   14  C   UNL     1     -10.373  19.472  66.248  1.00  0.00    -0.506 C  
HETATM   15  F   UNL     1     -11.276  19.308  67.236  1.00  0.00    -0.553 F  
HETATM   16  F   UNL     1      -9.464  20.390  66.636  1.00  0.00    -0.461 F  
HETATM   17  F   UNL     1     -11.026  19.957  65.167  1.00  0.00    -0.568 F  
ENDBRANCH  10  13
TORSDOF 1
ENDMDL
MODEL       16
REMARK 921   NORMALIZED FREE ENERGY PREDICTED BY IDOCK:   -5.43 KCAL/MOL
REMARK 922        TOTAL FREE ENERGY PREDICTED BY IDOCK:   -6.14 KCAL/MOL
REMARK 923 INTER-LIGAND FREE ENERGY PREDICTED BY IDOCK:   -5.82 KCAL/MOL
REMARK 924 INTRA-LIGAND FREE ENERGY PREDICTED BY IDOCK:   -0.32 KCAL/MOL
REMARK 927      BINDING AFFINITY PREDICTED BY RF-SCORE:    0.00 PKD
ROOT
HETATM    1  N   UNL     1     -13.140  14.207  72.611  1.00  0.00    -0.469 NA 
HETATM    2  C   UNL     1     -12.707  13.994  71.359  1.00  0.00    -0.364 A  
HETATM    3  H1  UNL     1     -13.384  15.131  72.966  1.00  0.00     0.000 HD 
HETATM    4  H2  UNL     1     -13.229  13.407  73.238  1.00  0.00     0.000 HD 
HETATM    5  N   UNL     1     -12.393  12.808  70.904  1.00  0.00    -0.346 NA 
HETATM    6  C   UNL     1     -12.027  12.894  69.571  1.00  0.00    -0.285 A  
HETATM    7  C   UNL     1     -12.035  14.179  69.032  1.00  0.00    -0.340 A  
HETATM    8  C   UNL     1     -11.688  14.424  67.694  1.00  0.00    -0.421 A  
HETATM    9  S   UNL     1     -12.528  15.289  70.251  1.00  0.00    -0.339 SA 
HETATM   10  C   UNL     1     -11.315  13.343  66.883  1.00  0.00    -0.323 A  
HETATM   11  C   UNL     1     -11.341  12.048  67.390  1.00  0.00    -0.393 A  
HETATM   12  C   UNL     1     -11.674  11.817  68.734  1.00  0.00    -0.389 A  
ENDROOT
BRANCH  10  13
HETATM   13  O   UNL     1     -11.027  13.686  65.596  1.00  0.00    -0.287 OA 
HETATM   14  C   UNL     1     -11.982  13.454  64.570  1.00  0.00    -0.407 C  
HETATM   15  F   UNL     1     -13.084  12.790  64.975  1.00  0.00    -0.538 F  
HETATM   16  F   UNL     1     -12.357  14.635  64.036  1.00  0.00    -0.506 F  
HETATM   17  F   UNL     1     -11.392  12.722  63.597  1.00  0.00    -0.412 F  
ENDBRANCH  10  13
TORSDOF 1
ENDMDL
MODEL       17
REMARK 921   NORMALIZED FREE ENERGY PREDICTED BY IDOCK:   -5.41 KCAL/MOL
REMARK 922        TOTAL FREE ENERGY PREDICTED BY IDOCK:   -6.13 KCAL/MOL
REMARK 923 INTER-LIGAND FREE ENERGY PREDICTED BY IDOCK:   -5.98 KCAL/MOL
REMARK 924 INTRA-LIGAND FREE ENERGY PREDICTED BY IDOCK:   -0.15 KCAL/MOL
REMARK 927      BINDING AFFINITY PREDICTED BY RF-SCORE:    0.00 PKD
ROOT
HETATM    1  N   UNL     1     -13.324  16.209  74.047  1.00  0.00    -0.894 NA 
HETATM    2  C   UNL     1     -12.951  15.410  73.034  1.00  0.00    -0.488 A  
HETATM    3  H1  UNL     1     -13.062  17.192  74.106  1.00  0.00     0.000 HD 
HETATM    4  H2  UNL     1     -13.897  15.813  74.792  1.00  0.00     0.000 HD 
HETATM    5  N   UNL     1     -13.288  14.148  72.958  1.00  0.00    -0.636 NA 
HETATM    6  C   UNL     1     -12.801  13.598  71.785  1.00  0.00    -0.315 A  
HETATM    7  C   UNL     1     -12.054  14.461  70.986  1.00  0.00    -0.349 A  
HETATM    8  C   UNL     1     -11.495  14.046  69.767  1.00  0.00    -0.293 A  
HETATM    9  S   UNL     1     -11.985  16.002  71.748  1.00  0.00    -0.511 SA 
HETATM   10  C   UNL     1     -11.690  12.722  69.349  1.00  0.00    -0.319 A  
HETATM   11  C   UNL     1     -12.467  11.857  70.111  1.00  0.00    -0.151 A  
HETATM   12  C   UNL     1     -13.008  12.278  71.337  1.00  0.00    -0.354 A  
ENDROOT
BRANCH  10  13
HETATM   13  O   UNL     1     -11.132  12.433  68.140  1.00  0.00    -0.219 OA 
HETATM   14  C   UNL     1     -11.595  13.093  66.970  1.00  0.00    -0.359 C  
HETATM   15  F   UNL     1     -12.659  13.897  67.169  1.00  0.00    -0.374 F  
HETATM   16  F   UNL     1     -10.589  13.823  66.446  1.00  0.00    -0.275 F  
HETATM   17  F   UNL     1     -11.949  12.154  66.064  1.00  0.00    -0.442 F  
ENDBRANCH  10  13
TORSDOF 1
ENDMDL
MODEL       18
REMARK 921   NORMALIZED FREE ENERGY PREDICTED BY IDOCK:   -5.41 KCAL/MOL
REMARK 922        TOTAL FREE ENERGY PREDICTED BY IDOCK:   -6.12 KCAL/MOL
REMARK 923 INTER-LIGAND FREE ENERGY PREDICTED BY IDOCK:   -5.76 KCAL/MOL
REMARK 924 INTRA-LIGAND FREE ENERGY PREDICTED BY IDOCK:   -0.36 KCAL/MOL
REMARK 927      BINDING AFFINITY PREDICTED BY RF-SCORE:    0.00 PKD
ROOT
HETATM    1  N   UNL     1     -11.426  16.448  63.877  1.00  0.00    -1.618 NA 
HETATM    2  C   UNL     1     -11.428  15.487  64.814  1.00  0.00    -0.313 A  
HETATM    3  H1  UNL     1     -11.716  16.286  62.913  1.00  0.00     0.000 HD 
HETATM    4  H2  UNL     1     -11.121  17.385  64.141  1.00  0.00     0.000 HD 
HETATM    5  N   UNL     1     -11.057  15.696  66.051  1.00  0.00    -0.206 NA 
HETATM    6  C   UNL     1     -11.211  14.537  66.793  1.00  0.00    -0.334 A  
HETATM    7  C   UNL     1     -11.674  13.431  66.084  1.00  0.00    -0.368 A  
HETATM    8  C   UNL     1     -11.879  12.187  66.701  1.00  0.00    -0.314 A  
HETATM    9  S   UNL     1     -11.924  13.889  64.444  1.00  0.00    -0.444 SA 
HETATM   10  C   UNL     1     -11.601  12.056  68.069  1.00  0.00    -0.342 A  
HETATM   11  C   UNL     1     -11.178  13.158  68.804  1.00  0.00    -0.323 A  
HETATM   12  C   UNL     1     -10.961  14.393  68.173  1.00  0.00    -0.265 A  
ENDROOT
BRANCH  10  13
HETATM   13  O   UNL     1     -11.863  10.817  68.573  1.00  0.00    -0.444 OA 
HETATM   14  C   UNL     1     -10.790   9.963  68.945  1.00  0.00    -0.210 C  
HETATM   15  F   UNL     1      -9.566  10.446  68.648  1.00  0.00    -0.142 F  
HETATM   16  F   UNL     1     -10.853   9.722  70.271  1.00  0.00    -0.248 F  
HETATM   17  F   UNL     1     -10.939   8.786  68.296  1.00  0.00    -0.191 F  
ENDBRANCH  10  13
TORSDOF 1
ENDMDL
MODEL       19
REMARK 921   NORMALIZED FREE ENERGY PREDICTED BY IDOCK:   -5.41 KCAL/MOL
REMARK 922        TOTAL FREE ENERGY PREDICTED BY IDOCK:   -6.12 KCAL/MOL
REMARK 923 INTER-LIGAND FREE ENERGY PREDICTED BY IDOCK:   -5.89 KCAL/MOL
REMARK 924 INTRA-LIGAND FREE ENERGY PREDICTED BY IDOCK:   -0.22 KCAL/MOL
REMARK 927      BINDING AFFINITY PREDICTED BY RF-SCORE:    0.00 PKD
ROOT
HETATM    1  N   UNL     1     -11.143  11.778  65.027  1.00  0.00    -0.303 NA 
HETATM    2  C   UNL     1     -11.376  12.200  66.280  1.00  0.00    -0.357 A  
HETATM    3  H1  UNL     1     -10.834  12.398  64.279  1.00  0.00     0.000 HD 
HETATM    4  H2  UNL     1     -11.281  10.790  64.812  1.00  0.00     0.000 HD 
HETATM    5  N   UNL     1     -11.773  11.403  67.239  1.00  0.00    -0.583 NA 
HETATM    6  C   UNL     1     -11.883  12.109  68.425  1.00  0.00    -0.303 A  
HETATM    7  C   UNL     1     -11.596  13.470  68.338  1.00  0.00    -0.343 A  
HETATM    8  C   UNL     1     -11.666  14.315  69.457  1.00  0.00    -0.366 A  
HETATM    9  S   UNL     1     -11.170  13.845  66.714  1.00  0.00    -0.329 SA 
HETATM   10  C   UNL     1     -12.042  13.772  70.693  1.00  0.00    -0.333 A  
HETATM   11  C   UNL     1     -12.292  12.409  70.810  1.00  0.00    -0.377 A  
HETATM   12  C   UNL     1     -12.235  11.576  69.681  1.00  0.00    -0.296 A  
ENDROOT
BRANCH  10  13
HETATM   13  O   UNL     1     -12.048  14.671  71.717  1.00  0.00    -0.342 OA 
HETATM   14  C   UNL     1     -13.232  14.870  72.477  1.00  0.00    -0.408 C  
HETATM   15  F   UNL     1     -14.307  14.196  72.020  1.00  0.00    -0.496 F  
HETATM   16  F   UNL     1     -13.004  14.509  73.757  1.00  0.00    -0.550 F  
HETATM   17  F   UNL     1     -13.532  16.189  72.460  1.00  0.00    -0.509 F  
ENDBRANCH  10  13
TORSDOF 1
ENDMDL
MODEL       20
REMARK 921   NORMALIZED FREE ENERGY PREDICTED BY IDOCK:   -5.40 KCAL/MOL
REMARK 922        TOTAL FREE ENERGY PREDICTED BY IDOCK:   -6.11 KCAL/MOL
REMARK 923 INTER-LIGAND FREE ENERGY PREDICTED BY IDOCK:   -5.75 KCAL/MOL
REMARK 924 INTRA-LIGAND FREE ENERGY PREDICTED BY IDOCK:   -0.37 KCAL/MOL
REMARK 927      BINDING AFFINITY PREDICTED BY RF-SCORE:    0.00 PKD
ROOT
HETATM    1  N   UNL     1     -13.031  16.036  74.271  1.00  0.00    -0.937 NA 
HETATM    2  C   UNL     1     -12.740  15.658  73.017  1.00  0.00    -0.471 A  
HETATM    3  H1  UNL     1     -13.668  15.518  74.876  1.00  0.00     0.000 HD 
HETATM    4  H2  UNL     1     -12.595  16.882  74.638  1.00  0.00     0.000 HD 
HETATM    5  N   UNL     1     -11.923  16.323  72.242  1.00  0.00    -0.536 NA 
HETATM    6  C   UNL     1     -11.782  15.670  71.030  1.00  0.00    -0.403 A  
HETATM    7  C   UNL     1     -12.540  14.510  70.886  1.00  0.00    -0.344 A  
HETATM    8  C   UNL     1     -12.503  13.740  69.712  1.00  0.00    -0.216 A  
HETATM    9  S   UNL     1     -13.438  14.251  72.331  1.00  0.00    -0.531 SA 
HETATM   10  C   UNL     1     -11.684  14.158  68.654  1.00  0.00    -0.350 A  
HETATM   11  C   UNL     1     -10.888  15.290  68.793  1.00  0.00    -0.254 A  
HETATM   12  C   UNL     1     -10.945  16.061  69.965  1.00  0.00    -0.365 A  
ENDROOT
BRANCH  10  13
HETATM   13  O   UNL     1     -11.699  13.325  67.576  1.00  0.00    -0.326 OA 
HETATM   14  C   UNL     1     -10.881  12.163  67.567  1.00  0.00    -0.243 C  
HETATM   15  F   UNL     1     -10.056  12.056  68.630  1.00  0.00    -0.205 F  
HETATM   16  F   UNL     1     -11.666  11.068  67.512  1.00  0.00    -0.348 F  
HETATM   17  F   UNL     1     -10.117  12.190  66.451  1.00  0.00    -0.216 F  
ENDBRANCH  10  13
TORSDOF 1
ENDMDL
MODEL       21
REMARK 921   NORMALIZED FREE ENERGY PREDICTED BY IDOCK:   -5.39 KCAL/MOL
REMARK 922        TOTAL FREE ENERGY PREDICTED BY IDOCK:   -6.10 KCAL/MOL
REMARK 923 INTER-LIGAND FREE ENERGY PREDICTED BY IDOCK:   -6.09 KCAL/MOL
REMARK 924 INTRA-LIGAND FREE ENERGY PREDICTED BY IDOCK:   -0.01 KCAL/MOL
REMARK 927      BINDING AFFINITY PREDICTED BY RF-SCORE:    0.00 PKD
ROOT
HETATM    1  N   UNL     1     -10.976  11.500  66.150  1.00  0.00    -0.286 NA 
HETATM    2  C   UNL     1     -11.317  12.158  67.269  1.00  0.00    -0.334 A  
HETATM    3  H1  UNL     1     -10.934  10.483  66.093  1.00  0.00     0.000 HD 
HETATM    4  H2  UNL     1     -10.747  12.043  65.317  1.00  0.00     0.000 HD 
HETATM    5  N   UNL     1     -11.370  13.463  67.343  1.00  0.00    -0.295 NA 
HETATM    6  C   UNL     1     -11.796  13.850  68.602  1.00  0.00    -0.372 A  
HETATM    7  C   UNL     1     -12.032  12.809  69.498  1.00  0.00    -0.276 A  
HETATM    8  C   UNL     1     -12.467  13.045  70.811  1.00  0.00    -0.384 A  
HETATM    9  S   UNL     1     -11.710  11.314  68.708  1.00  0.00    -0.335 SA 
HETATM   10  C   UNL     1     -12.662  14.368  71.232  1.00  0.00    -0.344 A  
HETATM   11  C   UNL     1     -12.473  15.419  70.341  1.00  0.00    -0.447 A  
HETATM   12  C   UNL     1     -12.022  15.172  69.034  1.00  0.00    -0.295 A  
ENDROOT
BRANCH  10  13
HETATM   13  O   UNL     1     -13.113  14.484  72.513  1.00  0.00    -0.368 OA 
HETATM   14  C   UNL     1     -12.604  15.511  73.353  1.00  0.00    -0.525 C  
HETATM   15  F   UNL     1     -11.605  16.233  72.806  1.00  0.00    -0.534 F  
HETATM   16  F   UNL     1     -13.609  16.345  73.692  1.00  0.00    -0.598 F  
HETATM   17  F   UNL     1     -12.132  14.940  74.484  1.00  0.00    -0.698 F  
ENDBRANCH  10  13
TORSDOF 1
ENDMDL
MODEL       22
REMARK 921   NORMALIZED FREE ENERGY PREDICTED BY IDOCK:   -5.37 KCAL/MOL
REMARK 922        TOTAL FREE ENERGY PREDICTED BY IDOCK:   -6.08 KCAL/MOL
REMARK 923 INTER-LIGAND FREE ENERGY PREDICTED BY IDOCK:   -5.72 KCAL/MOL
REMARK 924 INTRA-LIGAND FREE ENERGY PREDICTED BY IDOCK:   -0.36 KCAL/MOL
REMARK 927      BINDING AFFINITY PREDICTED BY RF-SCORE:    0.00 PKD
ROOT
HETATM    1  N   UNL     1     -13.302  15.755  71.077  1.00  0.00    -0.659 NA 
HETATM    2  C   UNL     1     -13.055  14.437  71.021  1.00  0.00    -0.353 A  
HETATM    3  H1  UNL     1     -13.824  16.193  71.836  1.00  0.00     0.000 HD 
HETATM    4  H2  UNL     1     -12.952  16.348  70.324  1.00  0.00     0.000 HD 
HETATM    5  N   UNL     1     -12.386  13.877  70.047  1.00  0.00    -0.333 NA 
HETATM    6  C   UNL     1     -12.250  12.520  70.285  1.00  0.00    -0.267 A  
HETATM    7  C   UNL     1     -12.862  12.054  71.446  1.00  0.00    -0.288 A  
HETATM    8  C   UNL     1     -12.810  10.701  71.820  1.00  0.00    -0.549 A  
HETATM    9  S   UNL     1     -13.614  13.378  72.246  1.00  0.00    -0.597 SA 
HETATM   10  C   UNL     1     -12.128   9.797  70.995  1.00  0.00    -0.346 A  
HETATM   11  C   UNL     1     -11.474  10.248  69.854  1.00  0.00    -0.340 A  
HETATM   12  C   UNL     1     -11.547  11.600  69.481  1.00  0.00    -0.397 A  
ENDROOT
BRANCH  10  13
HETATM   13  O   UNL     1     -12.113   8.518  71.465  1.00  0.00    -0.283 OA 
HETATM   14  C   UNL     1     -10.993   8.047  72.202  1.00  0.00    -0.295 C  
HETATM   15  F   UNL     1      -9.967   8.920  72.273  1.00  0.00    -0.372 F  
HETATM   16  F   UNL     1     -11.385   7.733  73.454  1.00  0.00    -0.426 F  
HETATM   17  F   UNL     1     -10.537   6.920  71.609  1.00  0.00    -0.215 F  
ENDBRANCH  10  13
TORSDOF 1
ENDMDL
MODEL       23
REMARK 921   NORMALIZED FREE ENERGY PREDICTED BY IDOCK:   -5.34 KCAL/MOL
REMARK 922        TOTAL FREE ENERGY PREDICTED BY IDOCK:   -6.05 KCAL/MOL
REMARK 923 INTER-LIGAND FREE ENERGY PREDICTED BY IDOCK:   -5.66 KCAL/MOL
REMARK 924 INTRA-LIGAND FREE ENERGY PREDICTED BY IDOCK:   -0.39 KCAL/MOL
REMARK 927      BINDING AFFINITY PREDICTED BY RF-SCORE:    0.00 PKD
ROOT
HETATM    1  N   UNL     1     -11.543  13.574  63.693  1.00  0.00    -0.649 NA 
HETATM    2  C   UNL     1     -11.538  13.051  64.929  1.00  0.00    -0.326 A  
HETATM    3  H1  UNL     1     -11.861  14.522  63.490  1.00  0.00     0.000 HD 
HETATM    4  H2  UNL     1     -11.215  12.997  62.919  1.00  0.00     0.000 HD 
HETATM    5  N   UNL     1     -11.131  11.835  65.188  1.00  0.00    -0.303 NA 
HETATM    6  C   UNL     1     -11.196  11.594  66.549  1.00  0.00    -0.294 A  
HETATM    7  C   UNL     1     -11.696  12.643  67.318  1.00  0.00    -0.370 A  
HETATM    8  C   UNL     1     -11.821  12.546  68.713  1.00  0.00    -0.347 A  
HETATM    9  S   UNL     1     -12.079  13.959  66.278  1.00  0.00    -0.457 SA 
HETATM   10  C   UNL     1     -11.438  11.356  69.346  1.00  0.00    -0.310 A  
HETATM   11  C   UNL     1     -10.897  10.312  68.602  1.00  0.00    -0.272 A  
HETATM   12  C   UNL     1     -10.792  10.414  67.206  1.00  0.00    -0.324 A  
ENDROOT
BRANCH  10  13
HETATM   13  O   UNL     1     -11.572  11.378  70.702  1.00  0.00    -0.222 OA 
HETATM   14  C   UNL     1     -12.664  10.708  71.317  1.00  0.00    -0.433 C  
HETATM   15  F   UNL     1     -13.554  10.184  70.450  1.00  0.00    -0.339 F  
HETATM   16  F   UNL     1     -12.191   9.721  72.106  1.00  0.00    -0.424 F  
HETATM   17  F   UNL     1     -13.320  11.594  72.100  1.00  0.00    -0.592 F  
ENDBRANCH  10  13
TORSDOF 1
ENDMDL
MODEL       24
REMARK 921   NORMALIZED FREE ENERGY PREDICTED BY IDOCK:   -5.28 KCAL/MOL
REMARK 922        TOTAL FREE ENERGY PREDICTED BY IDOCK:   -5.98 KCAL/MOL
REMARK 923 INTER-LIGAND FREE ENERGY PREDICTED BY IDOCK:   -6.05 KCAL/MOL
REMARK 924 INTRA-LIGAND FREE ENERGY PREDICTED BY IDOCK:    0.07 KCAL/MOL
REMARK 927      BINDING AFFINITY PREDICTED BY RF-SCORE:    0.00 PKD
ROOT
HETATM    1  N   UNL     1     -10.959   8.695  68.772  1.00  0.00    -0.432 NA 
HETATM    2  C   UNL     1     -11.389   9.773  69.445  1.00  0.00    -0.045 A  
HETATM    3  H1  UNL     1     -11.025   7.746  69.140  1.00  0.00     0.000 HD 
HETATM    4  H2  UNL     1     -10.547   8.830  67.849  1.00  0.00     0.000 HD 
HETATM    5  N   UNL     1     -11.304  10.990  68.973  1.00  0.00    -0.251 NA 
HETATM    6  C   UNL     1     -11.869  11.885  69.866  1.00  0.00    -0.343 A  
HETATM    7  C   UNL     1     -12.354  11.325  71.046  1.00  0.00    -0.366 A  
HETATM    8  C   UNL     1     -12.954  12.106  72.046  1.00  0.00    -0.377 A  
HETATM    9  S   UNL     1     -12.089   9.625  71.003  1.00  0.00    -0.343 SA 
HETATM   10  C   UNL     1     -13.059  13.490  71.852  1.00  0.00    -0.384 A  
HETATM   11  C   UNL     1     -12.619  14.064  70.664  1.00  0.00    -0.414 A  
HETATM   12  C   UNL     1     -12.006  13.275  69.677  1.00  0.00    -0.376 A  
ENDROOT
BRANCH  10  13
HETATM   13  O   UNL     1     -13.683  14.149  72.868  1.00  0.00    -0.658 OA 
HETATM   14  C   UNL     1     -13.267  15.461  73.223  1.00  0.00    -0.494 C  
HETATM   15  F   UNL     1     -12.179  15.899  72.557  1.00  0.00    -0.408 F  
HETATM   16  F   UNL     1     -14.284  16.322  73.009  1.00  0.00    -0.653 F  
HETATM   17  F   UNL     1     -12.977  15.473  74.544  1.00  0.00    -0.503 F  
ENDBRANCH  10  13
TORSDOF 1
ENDMDL
MODEL       25
REMARK 921   NORMALIZED FREE ENERGY PREDICTED BY IDOCK:   -5.28 KCAL/MOL
REMARK 922        TOTAL FREE ENERGY PREDICTED BY IDOCK:   -5.98 KCAL/MOL
REMARK 923 INTER-LIGAND FREE ENERGY PREDICTED BY IDOCK:   -5.62 KCAL/MOL
REMARK 924 INTRA-LIGAND FREE ENERGY PREDICTED BY IDOCK:   -0.36 KCAL/MOL
REMARK 927      BINDING AFFINITY PREDICTED BY RF-SCORE:    0.00 PKD
ROOT
HETATM    1  N   UNL     1     -12.157  11.802  67.670  1.00  0.00    -0.558 NA 
HETATM    2  C   UNL     1     -11.622  13.026  67.539  1.00  0.00    -0.356 A  
HETATM    3  H1  UNL     1     -12.310  11.354  68.573  1.00  0.00     0.000 HD 
HETATM    4  H2  UNL     1     -12.422  11.294  66.825  1.00  0.00     0.000 HD 
HETATM    5  N   UNL     1     -11.425  13.599  66.380  1.00  0.00    -0.326 NA 
HETATM    6  C   UNL     1     -10.908  14.870  66.562  1.00  0.00    -0.322 A  
HETATM    7  C   UNL     1     -10.682  15.238  67.887  1.00  0.00    -0.275 A  
HETATM    8  C   UNL     1     -10.159  16.496  68.229  1.00  0.00    -0.259 A  
HETATM    9  S   UNL     1     -11.148  13.937  68.911  1.00  0.00    -0.273 SA 
HETATM   10  C   UNL     1      -9.852  17.402  67.204  1.00  0.00    -0.278 A  
HETATM   11  C   UNL     1     -10.109  17.070  65.878  1.00  0.00    -0.281 A  
HETATM   12  C   UNL     1     -10.616  15.804  65.547  1.00  0.00    -0.424 A  
ENDROOT
BRANCH  10  13
HETATM   13  O   UNL     1      -9.380  18.602  67.646  1.00  0.00    -0.284 OA 
HETATM   14  C   UNL     1     -10.266  19.705  67.779  1.00  0.00    -0.436 C  
HETATM   15  F   UNL     1     -11.517  19.471  67.335  1.00  0.00    -0.454 F  
HETATM   16  F   UNL     1     -10.326  20.071  69.077  1.00  0.00    -0.525 F  
HETATM   17  F   UNL     1      -9.762  20.742  67.072  1.00  0.00    -0.570 F  
ENDBRANCH  10  13
TORSDOF 1
ENDMDL
MODEL       26
REMARK 921   NORMALIZED FREE ENERGY PREDICTED BY IDOCK:   -5.28 KCAL/MOL
REMARK 922        TOTAL FREE ENERGY PREDICTED BY IDOCK:   -5.98 KCAL/MOL
REMARK 923 INTER-LIGAND FREE ENERGY PREDICTED BY IDOCK:   -5.61 KCAL/MOL
REMARK 924 INTRA-LIGAND FREE ENERGY PREDICTED BY IDOCK:   -0.37 KCAL/MOL
REMARK 927      BINDING AFFINITY PREDICTED BY RF-SCORE:    0.00 PKD
ROOT
HETATM    1  N   UNL     1      -9.990  18.574  65.997  1.00  0.00    -0.534 NA 
HETATM    2  C   UNL     1     -10.398  17.304  66.150  1.00  0.00    -0.317 A  
HETATM    3  H1  UNL     1      -9.827  19.205  66.781  1.00  0.00     0.000 HD 
HETATM    4  H2  UNL     1      -9.835  18.925  65.052  1.00  0.00     0.000 HD 
HETATM    5  N   UNL     1     -10.607  16.495  65.144  1.00  0.00    -0.674 NA 
HETATM    6  C   UNL     1     -10.973  15.244  65.610  1.00  0.00    -0.344 A  
HETATM    7  C   UNL     1     -11.072  15.129  66.995  1.00  0.00    -0.328 A  
HETATM    8  C   UNL     1     -11.434  13.922  67.615  1.00  0.00    -0.354 A  
HETATM    9  S   UNL     1     -10.682  16.646  67.707  1.00  0.00    -0.295 SA 
HETATM   10  C   UNL     1     -11.709  12.806  66.813  1.00  0.00    -0.392 A  
HETATM   11  C   UNL     1     -11.575  12.888  65.432  1.00  0.00    -0.386 A  
HETATM   12  C   UNL     1     -11.229  14.104  64.821  1.00  0.00    -0.379 A  
ENDROOT
BRANCH  10  13
HETATM   13  O   UNL     1     -12.020  11.680  67.516  1.00  0.00    -0.622 OA 
HETATM   14  C   UNL     1     -10.982  10.855  68.027  1.00  0.00    -0.265 C  
HETATM   15  F   UNL     1      -9.740  11.230  67.658  1.00  0.00    -0.165 F  
HETATM   16  F   UNL     1     -11.050  10.840  69.374  1.00  0.00    -0.220 F  
HETATM   17  F   UNL     1     -11.183   9.594  67.582  1.00  0.00    -0.332 F  
ENDBRANCH  10  13
TORSDOF 1
ENDMDL
MODEL       27
REMARK 921   NORMALIZED FREE ENERGY PREDICTED BY IDOCK:   -5.26 KCAL/MOL
REMARK 922        TOTAL FREE ENERGY PREDICTED BY IDOCK:   -5.96 KCAL/MOL
REMARK 923 INTER-LIGAND FREE ENERGY PREDICTED BY IDOCK:   -5.59 KCAL/MOL
REMARK 924 INTRA-LIGAND FREE ENERGY PREDICTED BY IDOCK:   -0.38 KCAL/MOL
REMARK 927      BINDING AFFINITY PREDICTED BY RF-SCORE:    0.00 PKD
ROOT
HETATM    1  N   UNL     1     -12.917  11.612  62.957  1.00  0.00    -0.852 NA 
HETATM    2  C   UNL     1     -12.329  12.566  63.695  1.00  0.00    -0.522 A  
HETATM    3  H1  UNL     1     -12.899  10.624  63.208  1.00  0.00     0.000 HD 
HETATM    4  H2  UNL     1     -13.406  11.888  62.105  1.00  0.00     0.000 HD 
HETATM    5  N   UNL     1     -12.352  13.834  63.373  1.00  0.00    -0.765 NA 
HETATM    6  C   UNL     1     -11.706  14.581  64.343  1.00  0.00    -0.367 A  
HETATM    7  C   UNL     1     -11.158  13.848  65.394  1.00  0.00    -0.310 A  
HETATM    8  C   UNL     1     -10.472  14.467  66.452  1.00  0.00    -0.295 A  
HETATM    9  S   UNL     1     -11.486  12.179  65.136  1.00  0.00    -0.299 SA 
HETATM   10  C   UNL     1     -10.331  15.861  66.442  1.00  0.00    -0.306 A  
HETATM   11  C   UNL     1     -10.906  16.615  65.425  1.00  0.00    -0.182 A  
HETATM   12  C   UNL     1     -11.575  15.984  64.364  1.00  0.00    -0.212 A  
ENDROOT
BRANCH  10  13
HETATM   13  O   UNL     1      -9.677  16.361  67.528  1.00  0.00    -0.227 OA 
HETATM   14  C   UNL     1     -10.390  16.614  68.731  1.00  0.00    -0.301 C  
HETATM   15  F   UNL     1     -11.723  16.426  68.637  1.00  0.00    -0.350 F  
HETATM   16  F   UNL     1      -9.906  15.822  69.710  1.00  0.00    -0.245 F  
HETATM   17  F   UNL     1     -10.179  17.902  69.088  1.00  0.00    -0.358 F  
ENDBRANCH  10  13
TORSDOF 1
ENDMDL
MODEL       28
REMARK 921   NORMALIZED FREE ENERGY PREDICTED BY IDOCK:   -5.24 KCAL/MOL
REMARK 922        TOTAL FREE ENERGY PREDICTED BY IDOCK:   -5.94 KCAL/MOL
REMARK 923 INTER-LIGAND FREE ENERGY PREDICTED BY IDOCK:   -5.54 KCAL/MOL
REMARK 924 INTRA-LIGAND FREE ENERGY PREDICTED BY IDOCK:   -0.40 KCAL/MOL
REMARK 927      BINDING AFFINITY PREDICTED BY RF-SCORE:    0.00 PKD
ROOT
HETATM    1  N   UNL     1     -13.728   8.993  73.088  1.00  0.00    -1.092 NA 
HETATM    2  C   UNL     1     -13.176   9.785  72.156  1.00  0.00    -0.436 A  
HETATM    3  H1  UNL     1     -13.555   7.989  73.138  1.00  0.00     0.000 HD 
HETATM    4  H2  UNL     1     -14.349   9.413  73.779  1.00  0.00     0.000 HD 
HETATM    5  N   UNL     1     -13.398  11.073  72.092  1.00  0.00    -0.357 NA 
HETATM    6  C   UNL     1     -12.659  11.630  71.062  1.00  0.00    -0.331 A  
HETATM    7  C   UNL     1     -11.896  10.730  70.320  1.00  0.00    -0.349 A  
HETATM    8  C   UNL     1     -11.096  11.147  69.244  1.00  0.00    -0.318 A  
HETATM    9  S   UNL     1     -12.125   9.149  70.961  1.00  0.00    -0.226 SA 
HETATM   10  C   UNL     1     -11.071  12.507  68.906  1.00  0.00    -0.260 A  
HETATM   11  C   UNL     1     -11.792  13.427  69.660  1.00  0.00    -0.394 A  
HETATM   12  C   UNL     1     -12.602  12.997  70.723  1.00  0.00    -0.321 A  
ENDROOT
BRANCH  10  13
HETATM   13  O   UNL     1     -10.241  12.807  67.868  1.00  0.00    -0.217 OA 
HETATM   14  C   UNL     1     -10.773  12.978  66.562  1.00  0.00    -0.278 C  
HETATM   15  F   UNL     1     -12.091  12.709  66.458  1.00  0.00    -0.444 F  
HETATM   16  F   UNL     1     -10.554  14.245  66.156  1.00  0.00    -0.278 F  
HETATM   17  F   UNL     1     -10.114  12.147  65.722  1.00  0.00    -0.237 F  
ENDBRANCH  10  13
TORSDOF 1
ENDMDL
MODEL       29
REMARK 921   NORMALIZED FREE ENERGY PREDICTED BY IDOCK:   -5.20 KCAL/MOL
REMARK 922        TOTAL FREE ENERGY PREDICTED BY IDOCK:   -5.90 KCAL/MOL
REMARK 923 INTER-LIGAND FREE ENERGY PREDICTED BY IDOCK:   -5.88 KCAL/MOL
REMARK 924 INTRA-LIGAND FREE ENERGY PREDICTED BY IDOCK:   -0.02 KCAL/MOL
REMARK 927      BINDING AFFINITY PREDICTED BY RF-SCORE:    0.00 PKD
ROOT
HETATM    1  N   UNL     1     -12.116  13.421  70.767  1.00  0.00    -0.497 NA 
HETATM    2  C   UNL     1     -11.650  14.245  69.816  1.00  0.00    -0.293 A  
HETATM    3  H1  UNL     1     -12.092  13.647  71.761  1.00  0.00     0.000 HD 
HETATM    4  H2  UNL     1     -12.512  12.525  70.483  1.00  0.00     0.000 HD 
HETATM    5  N   UNL     1     -11.681  13.954  68.541  1.00  0.00    -0.334 NA 
HETATM    6  C   UNL     1     -11.177  15.010  67.802  1.00  0.00    -0.321 A  
HETATM    7  C   UNL     1     -10.729  16.100  68.547  1.00  0.00    -0.300 A  
HETATM    8  C   UNL     1     -10.192  17.245  67.936  1.00  0.00    -0.332 A  
HETATM    9  S   UNL     1     -10.966  15.764  70.217  1.00  0.00    -0.369 SA 
HETATM   10  C   UNL     1     -10.100  17.286  66.538  1.00  0.00    -0.309 A  
HETATM   11  C   UNL     1     -10.580  16.227  65.775  1.00  0.00    -0.336 A  
HETATM   12  C   UNL     1     -11.100  15.080  66.396  1.00  0.00    -0.329 A  
ENDROOT
BRANCH  10  13
HETATM   13  O   UNL     1      -9.593  18.453  66.049  1.00  0.00    -0.493 OA 
HETATM   14  C   UNL     1     -10.212  19.688  66.381  1.00  0.00    -0.488 C  
HETATM   15  F   UNL     1     -11.352  19.566  67.091  1.00  0.00    -0.540 F  
HETATM   16  F   UNL     1      -9.342  20.447  67.079  1.00  0.00    -0.447 F  
HETATM   17  F   UNL     1     -10.508  20.337  65.232  1.00  0.00    -0.491 F  
ENDBRANCH  10  13
TORSDOF 1
ENDMDL
MODEL       30
REMARK 921   NORMALIZED FREE ENERGY PREDICTED BY IDOCK:   -5.16 KCAL/MOL
REMARK 922        TOTAL FREE ENERGY PREDICTED BY IDOCK:   -5.85 KCAL/MOL
REMARK 923 INTER-LIGAND FREE ENERGY PREDICTED BY IDOCK:   -5.47 KCAL/MOL
REMARK 924 INTRA-LIGAND FREE ENERGY PREDICTED BY IDOCK:   -0.38 KCAL/MOL
REMARK 927      BINDING AFFINITY PREDICTED BY RF-SCORE:    0.00 PKD
ROOT
HETATM    1  N   UNL     1     -10.399  18.398  68.914  1.00  0.00    -0.454 NA 
HETATM    2  C   UNL     1     -10.552  17.323  68.125  1.00  0.00    -0.386 A  
HETATM    3  H1  UNL     1      -9.941  19.255  68.605  1.00  0.00     0.000 HD 
HETATM    4  H2  UNL     1     -10.758  18.356  69.868  1.00  0.00     0.000 HD 
HETATM    5  N   UNL     1     -11.140  16.224  68.522  1.00  0.00    -0.354 NA 
HETATM    6  C   UNL     1     -11.192  15.312  67.481  1.00  0.00    -0.317 A  
HETATM    7  C   UNL     1     -10.597  15.730  66.292  1.00  0.00    -0.310 A  
HETATM    8  C   UNL     1     -10.571  14.914  65.150  1.00  0.00    -0.450 A  
HETATM    9  S   UNL     1      -9.972  17.318  66.512  1.00  0.00    -0.316 SA 
HETATM   10  C   UNL     1     -11.154  13.641  65.214  1.00  0.00    -0.301 A  
HETATM   11  C   UNL     1     -11.789  13.222  66.378  1.00  0.00    -0.446 A  
HETATM   12  C   UNL     1     -11.795  14.039  67.519  1.00  0.00    -0.442 A  
ENDROOT
BRANCH  10  13
HETATM   13  O   UNL     1     -11.100  12.945  64.043  1.00  0.00    -0.372 OA 
HETATM   14  C   UNL     1     -10.187  11.865  63.903  1.00  0.00    -0.389 C  
HETATM   15  F   UNL     1      -9.355  11.700  64.952  1.00  0.00    -0.216 F  
HETATM   16  F   UNL     1     -10.877  10.722  63.710  1.00  0.00    -0.397 F  
HETATM   17  F   UNL     1      -9.429  12.089  62.805  1.00  0.00    -0.324 F  
ENDBRANCH  10  13
TORSDOF 1
ENDMDL
MODEL       31
REMARK 921   NORMALIZED FREE ENERGY PREDICTED BY IDOCK:   -5.15 KCAL/MOL
REMARK 922        TOTAL FREE ENERGY PREDICTED BY IDOCK:   -5.85 KCAL/MOL
REMARK 923 INTER-LIGAND FREE ENERGY PREDICTED BY IDOCK:   -5.45 KCAL/MOL
REMARK 924 INTRA-LIGAND FREE ENERGY PREDICTED BY IDOCK:   -0.40 KCAL/MOL
REMARK 927      BINDING AFFINITY PREDICTED BY RF-SCORE:    0.00 PKD
ROOT
HETATM    1  N   UNL     1     -12.969  11.602  63.037  1.00  0.00    -0.852 NA 
HETATM    2  C   UNL     1     -12.324  12.323  63.967  1.00  0.00    -0.475 A  
HETATM    3  H1  UNL     1     -12.495  11.150  62.256  1.00  0.00     0.000 HD 
HETATM    4  H2  UNL     1     -13.981  11.501  63.115  1.00  0.00     0.000 HD 
HETATM    5  N   UNL     1     -12.932  12.904  64.969  1.00  0.00    -0.815 NA 
HETATM    6  C   UNL     1     -12.007  13.532  65.785  1.00  0.00    -0.403 A  
HETATM    7  C   UNL     1     -10.683  13.447  65.361  1.00  0.00    -0.300 A  
HETATM    8  C   UNL     1      -9.633  14.036  66.085  1.00  0.00    -0.263 A  
HETATM    9  S   UNL     1     -10.625  12.540  63.900  1.00  0.00    -0.437 SA 
HETATM   10  C   UNL     1      -9.932  14.734  67.263  1.00  0.00    -0.231 A  
HETATM   11  C   UNL     1     -11.242  14.795  67.726  1.00  0.00    -0.323 A  
HETATM   12  C   UNL     1     -12.286  14.217  66.986  1.00  0.00    -0.374 A  
ENDROOT
BRANCH  10  13
HETATM   13  O   UNL     1      -8.839  15.239  67.902  1.00  0.00    -0.163 OA 
HETATM   14  C   UNL     1      -8.515  16.616  67.770  1.00  0.00    -0.187 C  
HETATM   15  F   UNL     1      -9.295  17.290  66.900  1.00  0.00    -0.230 F  
HETATM   16  F   UNL     1      -8.596  17.210  68.978  1.00  0.00    -0.260 F  
HETATM   17  F   UNL     1      -7.236  16.712  67.338  1.00  0.00    -0.137 F  
ENDBRANCH  10  13
TORSDOF 1
ENDMDL
MODEL       32
REMARK 921   NORMALIZED FREE ENERGY PREDICTED BY IDOCK:   -5.13 KCAL/MOL
REMARK 922        TOTAL FREE ENERGY PREDICTED BY IDOCK:   -5.83 KCAL/MOL
REMARK 923 INTER-LIGAND FREE ENERGY PREDICTED BY IDOCK:   -5.47 KCAL/MOL
REMARK 924 INTRA-LIGAND FREE ENERGY PREDICTED BY IDOCK:   -0.36 KCAL/MOL
REMARK 927      BINDING AFFINITY PREDICTED BY RF-SCORE:    0.00 PKD
ROOT
HETATM    1  N   UNL     1     -13.797   9.017  73.119  1.00  0.00    -1.177 NA 
HETATM    2  C   UNL     1     -13.098   9.684  72.187  1.00  0.00    -0.431 A  
HETATM    3  H1  UNL     1     -14.531   9.448  73.680  1.00  0.00     0.000 HD 
HETATM    4  H2  UNL     1     -13.584   8.031  73.275  1.00  0.00     0.000 HD 
HETATM    5  N   UNL     1     -12.156   9.130  71.468  1.00  0.00    -0.327 NA 
HETATM    6  C   UNL     1     -11.650  10.047  70.563  1.00  0.00    -0.323 A  
HETATM    7  C   UNL     1     -12.205  11.323  70.634  1.00  0.00    -0.393 A  
HETATM    8  C   UNL     1     -11.792  12.359  69.780  1.00  0.00    -0.387 A  
HETATM    9  S   UNL     1     -13.398  11.342  71.873  1.00  0.00    -0.132 SA 
HETATM   10  C   UNL     1     -10.789  12.099  68.836  1.00  0.00    -0.200 A  
HETATM   11  C   UNL     1     -10.253  10.821  68.721  1.00  0.00    -0.207 A  
HETATM   12  C   UNL     1     -10.660   9.797  69.591  1.00  0.00    -0.260 A  
ENDROOT
BRANCH  10  13
HETATM   13  O   UNL     1     -10.486  13.163  68.040  1.00  0.00    -0.226 OA 
HETATM   14  C   UNL     1     -11.307  13.465  66.919  1.00  0.00    -0.323 C  
HETATM   15  F   UNL     1     -12.284  12.565  66.687  1.00  0.00    -0.443 F  
HETATM   16  F   UNL     1     -11.866  14.680  67.094  1.00  0.00    -0.372 F  
HETATM   17  F   UNL     1     -10.521  13.517  65.819  1.00  0.00    -0.269 F  
ENDBRANCH  10  13
TORSDOF 1
ENDMDL
MODEL       33
REMARK 921   NORMALIZED FREE ENERGY PREDICTED BY IDOCK:   -5.11 KCAL/MOL
REMARK 922        TOTAL FREE ENERGY PREDICTED BY IDOCK:   -5.80 KCAL/MOL
REMARK 923 INTER-LIGAND FREE ENERGY PREDICTED BY IDOCK:   -5.62 KCAL/MOL
REMARK 924 INTRA-LIGAND FREE ENERGY PREDICTED BY IDOCK:   -0.18 KCAL/MOL
REMARK 927      BINDING AFFINITY PREDICTED BY RF-SCORE:    0.00 PKD
ROOT
HETATM    1  N   UNL     1      -9.530  20.380  65.969  1.00  0.00    -0.651 NA 
HETATM    2  C   UNL     1      -9.874  19.276  66.651  1.00  0.00    -0.367 A  
HETATM    3  H1  UNL     1      -9.283  21.260  66.422  1.00  0.00     0.000 HD 
HETATM    4  H2  UNL     1      -9.516  20.338  64.950  1.00  0.00     0.000 HD 
HETATM    5  N   UNL     1     -10.192  18.148  66.070  1.00  0.00    -0.558 NA 
HETATM    6  C   UNL     1     -10.453  17.180  67.025  1.00  0.00    -0.282 A  
HETATM    7  C   UNL     1     -10.361  17.608  68.348  1.00  0.00    -0.375 A  
HETATM    8  C   UNL     1     -10.598  16.740  69.426  1.00  0.00    -0.318 A  
HETATM    9  S   UNL     1      -9.926  19.272  68.364  1.00  0.00    -0.439 SA 
HETATM   10  C   UNL     1     -10.943  15.408  69.159  1.00  0.00    -0.252 A  
HETATM   11  C   UNL     1     -10.999  14.951  67.847  1.00  0.00    -0.288 A  
HETATM   12  C   UNL     1     -10.776  15.831  66.776  1.00  0.00    -0.293 A  
ENDROOT
BRANCH  10  13
HETATM   13  O   UNL     1     -11.122  14.646  70.274  1.00  0.00    -0.200 OA 
HETATM   14  C   UNL     1     -12.272  14.837  71.087  1.00  0.00    -0.325 C  
HETATM   15  F   UNL     1     -13.051  15.873  70.712  1.00  0.00    -0.497 F  
HETATM   16  F   UNL     1     -13.013  13.710  71.079  1.00  0.00    -0.375 F  
HETATM   17  F   UNL     1     -11.864  15.064  72.356  1.00  0.00    -0.400 F  
ENDBRANCH  10  13
TORSDOF 1
ENDMDL
MODEL       34
REMARK 921   NORMALIZED FREE ENERGY PREDICTED BY IDOCK:   -5.10 KCAL/MOL
REMARK 922        TOTAL FREE ENERGY PREDICTED BY IDOCK:   -5.79 KCAL/MOL
REMARK 923 INTER-LIGAND FREE ENERGY PREDICTED BY IDOCK:   -5.51 KCAL/MOL
REMARK 924 INTRA-LIGAND FREE ENERGY PREDICTED BY IDOCK:   -0.29 KCAL/MOL
REMARK 927      BINDING AFFINITY PREDICTED BY RF-SCORE:    0.00 PKD
ROOT
HETATM    1  N   UNL     1     -11.261  16.340  68.433  1.00  0.00    -0.363 NA 
HETATM    2  C   UNL     1     -11.571  15.190  69.051  1.00  0.00    -0.330 A  
HETATM    3  H1  UNL     1     -10.801  16.376  67.523  1.00  0.00     0.000 HD 
HETATM    4  H2  UNL     1     -11.495  17.219  68.893  1.00  0.00     0.000 HD 
HETATM    5  N   UNL     1     -12.161  15.144  70.218  1.00  0.00    -0.327 NA 
HETATM    6  C   UNL     1     -12.395  13.828  70.579  1.00  0.00    -0.359 A  
HETATM    7  C   UNL     1     -11.937  12.871  69.675  1.00  0.00    -0.292 A  
HETATM    8  C   UNL     1     -12.101  11.496  69.905  1.00  0.00    -0.389 A  
HETATM    9  S   UNL     1     -11.204  13.674  68.341  1.00  0.00    -0.296 SA 
HETATM   10  C   UNL     1     -12.739  11.077  71.080  1.00  0.00    -0.419 A  
HETATM   11  C   UNL     1     -13.241  12.016  71.975  1.00  0.00    -0.481 A  
HETATM   12  C   UNL     1     -13.056  13.389  71.744  1.00  0.00    -0.479 A  
ENDROOT
BRANCH  10  13
HETATM   13  O   UNL     1     -12.873   9.725  71.189  1.00  0.00    -0.335 OA 
HETATM   14  C   UNL     1     -11.773   8.937  71.623  1.00  0.00    -0.341 C  
HETATM   15  F   UNL     1     -10.626   9.627  71.788  1.00  0.00    -0.379 F  
HETATM   16  F   UNL     1     -12.091   8.335  72.788  1.00  0.00    -0.436 F  
HETATM   17  F   UNL     1     -11.549   7.975  70.699  1.00  0.00    -0.280 F  
ENDBRANCH  10  13
TORSDOF 1
ENDMDL
MODEL       35
REMARK 921   NORMALIZED FREE ENERGY PREDICTED BY IDOCK:   -5.10 KCAL/MOL
REMARK 922        TOTAL FREE ENERGY PREDICTED BY IDOCK:   -5.79 KCAL/MOL
REMARK 923 INTER-LIGAND FREE ENERGY PREDICTED BY IDOCK:   -5.42 KCAL/MOL
REMARK 924 INTRA-LIGAND FREE ENERGY PREDICTED BY IDOCK:   -0.38 KCAL/MOL
REMARK 927      BINDING AFFINITY PREDICTED BY RF-SCORE:    0.00 PKD
ROOT
HETATM    1  N   UNL     1     -11.182   9.610  71.383  1.00  0.00    -0.374 NA 
HETATM    2  C   UNL     1     -11.253  10.323  70.248  1.00  0.00    -0.323 A  
HETATM    3  H1  UNL     1     -10.793   8.668  71.425  1.00  0.00     0.000 HD 
HETATM    4  H2  UNL     1     -11.532  10.030  72.244  1.00  0.00     0.000 HD 
HETATM    5  N   UNL     1     -11.751  11.531  70.193  1.00  0.00    -0.324 NA 
HETATM    6  C   UNL     1     -11.648  12.028  68.905  1.00  0.00    -0.321 A  
HETATM    7  C   UNL     1     -11.091  11.156  67.972  1.00  0.00    -0.276 A  
HETATM    8  C   UNL     1     -10.922  11.519  66.626  1.00  0.00    -0.349 A  
HETATM    9  S   UNL     1     -10.688   9.682  68.762  1.00  0.00    -0.175 SA 
HETATM   10  C   UNL     1     -11.333  12.794  66.212  1.00  0.00    -0.320 A  
HETATM   11  C   UNL     1     -11.852  13.694  67.137  1.00  0.00    -0.435 A  
HETATM   12  C   UNL     1     -12.032  13.315  68.476  1.00  0.00    -0.340 A  
ENDROOT
BRANCH  10  13
HETATM   13  O   UNL     1     -11.097  13.055  64.896  1.00  0.00    -0.286 OA 
HETATM   14  C   UNL     1     -12.085  12.742  63.923  1.00  0.00    -0.486 C  
HETATM   15  F   UNL     1     -13.161  12.092  64.413  1.00  0.00    -0.538 F  
HETATM   16  F   UNL     1     -12.497  13.880  63.327  1.00  0.00    -0.503 F  
HETATM   17  F   UNL     1     -11.519  11.954  62.981  1.00  0.00    -0.368 F  
ENDBRANCH  10  13
TORSDOF 1
ENDMDL
MODEL       36
REMARK 921   NORMALIZED FREE ENERGY PREDICTED BY IDOCK:   -5.09 KCAL/MOL
REMARK 922        TOTAL FREE ENERGY PREDICTED BY IDOCK:   -5.78 KCAL/MOL
REMARK 923 INTER-LIGAND FREE ENERGY PREDICTED BY IDOCK:   -5.40 KCAL/MOL
REMARK 924 INTRA-LIGAND FREE ENERGY PREDICTED BY IDOCK:   -0.38 KCAL/MOL
REMARK 927      BINDING AFFINITY PREDICTED BY RF-SCORE:    0.00 PKD
ROOT
HETATM    1  N   UNL     1     -13.331  10.021  72.337  1.00  0.00    -0.595 NA 
HETATM    2  C   UNL     1     -13.039  11.174  71.718  1.00  0.00    -0.431 A  
HETATM    3  H1  UNL     1     -13.056   9.108  71.974  1.00  0.00     0.000 HD 
HETATM    4  H2  UNL     1     -13.853  10.057  73.213  1.00  0.00     0.000 HD 
HETATM    5  N   UNL     1     -13.392  12.345  72.184  1.00  0.00    -0.498 NA 
HETATM    6  C   UNL     1     -12.912  13.347  71.358  1.00  0.00    -0.328 A  
HETATM    7  C   UNL     1     -12.215  12.912  70.233  1.00  0.00    -0.289 A  
HETATM    8  C   UNL     1     -11.670  13.812  69.304  1.00  0.00    -0.376 A  
HETATM    9  S   UNL     1     -12.169  11.192  70.241  1.00  0.00    -0.352 SA 
HETATM   10  C   UNL     1     -11.840  15.188  69.515  1.00  0.00    -0.332 A  
HETATM   11  C   UNL     1     -12.495  15.644  70.653  1.00  0.00    -0.463 A  
HETATM   12  C   UNL     1     -13.051  14.735  71.567  1.00  0.00    -0.429 A  
ENDROOT
BRANCH  10  13
HETATM   13  O   UNL     1     -11.247  15.972  68.571  1.00  0.00    -0.338 OA 
HETATM   14  C   UNL     1      -9.882  16.342  68.714  1.00  0.00    -0.250 C  
HETATM   15  F   UNL     1      -9.318  15.950  69.874  1.00  0.00    -0.245 F  
HETATM   16  F   UNL     1      -9.173  15.827  67.688  1.00  0.00    -0.194 F  
HETATM   17  F   UNL     1      -9.798  17.690  68.648  1.00  0.00    -0.280 F  
ENDBRANCH  10  13
TORSDOF 1
ENDMDL
MODEL       37
REMARK 921   NORMALIZED FREE ENERGY PREDICTED BY IDOCK:   -5.09 KCAL/MOL
REMARK 922        TOTAL FREE ENERGY PREDICTED BY IDOCK:   -5.78 KCAL/MOL
REMARK 923 INTER-LIGAND FREE ENERGY PREDICTED BY IDOCK:   -5.38 KCAL/MOL
REMARK 924 INTRA-LIGAND FREE ENERGY PREDICTED BY IDOCK:   -0.40 KCAL/MOL
REMARK 927      BINDING AFFINITY PREDICTED BY RF-SCORE:    0.00 PKD
ROOT
HETATM    1  N   UNL     1     -13.641   9.889  72.607  1.00  0.00    -0.592 NA 
HETATM    2  C   UNL     1     -13.145  10.780  71.734  1.00  0.00    -0.468 A  
HETATM    3  H1  UNL     1     -13.533   8.882  72.496  1.00  0.00     0.000 HD 
HETATM    4  H2  UNL     1     -14.150  10.236  73.420  1.00  0.00     0.000 HD 
HETATM    5  N   UNL     1     -13.285  12.073  71.877  1.00  0.00    -0.450 NA 
HETATM    6  C   UNL     1     -12.631  12.736  70.852  1.00  0.00    -0.255 A  
HETATM    7  C   UNL     1     -12.020  11.916  69.905  1.00  0.00    -0.325 A  
HETATM    8  C   UNL     1     -11.320  12.444  68.809  1.00  0.00    -0.339 A  
HETATM    9  S   UNL     1     -12.283  10.273  70.343  1.00  0.00    -0.234 SA 
HETATM   10  C   UNL     1     -11.241  13.836  68.662  1.00  0.00    -0.278 A  
HETATM   11  C   UNL     1     -11.808  14.671  69.618  1.00  0.00    -0.367 A  
HETATM   12  C   UNL     1     -12.520  14.133  70.702  1.00  0.00    -0.432 A  
ENDROOT
BRANCH  10  13
HETATM   13  O   UNL     1     -10.514  14.241  67.583  1.00  0.00    -0.246 OA 
HETATM   14  C   UNL     1     -11.173  14.554  66.363  1.00  0.00    -0.341 C  
HETATM   15  F   UNL     1     -12.498  14.306  66.367  1.00  0.00    -0.460 F  
HETATM   16  F   UNL     1     -10.974  15.857  66.074  1.00  0.00    -0.318 F  
HETATM   17  F   UNL     1     -10.615  13.815  65.377  1.00  0.00    -0.279 F  
ENDBRANCH  10  13
TORSDOF 1
ENDMDL
MODEL       38
REMARK 921   NORMALIZED FREE ENERGY PREDICTED BY IDOCK:   -5.06 KCAL/MOL
REMARK 922        TOTAL FREE ENERGY PREDICTED BY IDOCK:   -5.75 KCAL/MOL
REMARK 923 INTER-LIGAND FREE ENERGY PREDICTED BY IDOCK:   -5.37 KCAL/MOL
REMARK 924 INTRA-LIGAND FREE ENERGY PREDICTED BY IDOCK:   -0.38 KCAL/MOL
REMARK 927      BINDING AFFINITY PREDICTED BY RF-SCORE:    0.00 PKD
ROOT
HETATM    1  N   UNL     1     -13.783  13.903  72.593  1.00  0.00    -0.709 NA 
HETATM    2  C   UNL     1     -12.985  14.481  71.682  1.00  0.00    -0.337 A  
HETATM    3  H1  UNL     1     -13.872  14.242  73.551  1.00  0.00     0.000 HD 
HETATM    4  H2  UNL     1     -14.327  13.086  72.315  1.00  0.00     0.000 HD 
HETATM    5  N   UNL     1     -12.871  14.046  70.454  1.00  0.00    -0.249 NA 
HETATM    6  C   UNL     1     -12.018  14.868  69.738  1.00  0.00    -0.323 A  
HETATM    7  C   UNL     1     -11.456  15.919  70.460  1.00  0.00    -0.392 A  
HETATM    8  C   UNL     1     -10.571  16.835  69.869  1.00  0.00    -0.104 A  
HETATM    9  S   UNL     1     -12.040  15.855  72.077  1.00  0.00    -0.545 SA 
HETATM   10  C   UNL     1     -10.240  16.680  68.516  1.00  0.00    -0.282 A  
HETATM   11  C   UNL     1     -10.822  15.663  67.767  1.00  0.00    -0.307 A  
HETATM   12  C   UNL     1     -11.693  14.743  68.372  1.00  0.00    -0.343 A  
ENDROOT
BRANCH  10  13
HETATM   13  O   UNL     1      -9.399  17.639  68.036  1.00  0.00    -0.261 OA 
HETATM   14  C   UNL     1      -9.925  18.877  67.576  1.00  0.00    -0.345 C  
HETATM   15  F   UNL     1     -11.272  18.938  67.563  1.00  0.00    -0.465 F  
HETATM   16  F   UNL     1      -9.450  19.875  68.350  1.00  0.00    -0.391 F  
HETATM   17  F   UNL     1      -9.488  19.081  66.312  1.00  0.00    -0.321 F  
ENDBRANCH  10  13
TORSDOF 1
ENDMDL
MODEL       39
REMARK 921   NORMALIZED FREE ENERGY PREDICTED BY IDOCK:   -5.04 KCAL/MOL
REMARK 922        TOTAL FREE ENERGY PREDICTED BY IDOCK:   -5.73 KCAL/MOL
REMARK 923 INTER-LIGAND FREE ENERGY PREDICTED BY IDOCK:   -5.36 KCAL/MOL
REMARK 924 INTRA-LIGAND FREE ENERGY PREDICTED BY IDOCK:   -0.37 KCAL/MOL
REMARK 927      BINDING AFFINITY PREDICTED BY RF-SCORE:    0.00 PKD
ROOT
HETATM    1  N   UNL     1      -8.652  20.156  66.749  1.00  0.00    -0.412 NA 
HETATM    2  C   UNL     1      -9.329  19.008  66.914  1.00  0.00    -0.313 A  
HETATM    3  H1  UNL     1      -8.524  20.838  67.496  1.00  0.00     0.000 HD 
HETATM    4  H2  UNL     1      -8.248  20.355  65.834  1.00  0.00     0.000 HD 
HETATM    5  N   UNL     1      -9.494  18.133  65.956  1.00  0.00    -0.519 NA 
HETATM    6  C   UNL     1     -10.188  17.034  66.433  1.00  0.00    -0.326 A  
HETATM    7  C   UNL     1     -10.579  17.109  67.768  1.00  0.00    -0.360 A  
HETATM    8  C   UNL     1     -11.290  16.071  68.392  1.00  0.00    -0.355 A  
HETATM    9  S   UNL     1     -10.039  18.607  68.421  1.00  0.00    -0.374 SA 
HETATM   10  C   UNL     1     -11.620  14.932  67.645  1.00  0.00    -0.339 A  
HETATM   11  C   UNL     1     -11.203  14.820  66.323  1.00  0.00    -0.343 A  
HETATM   12  C   UNL     1     -10.507  15.870  65.704  1.00  0.00    -0.411 A  
ENDROOT
BRANCH  10  13
HETATM   13  O   UNL     1     -12.282  13.975  68.353  1.00  0.00    -0.332 OA 
HETATM   14  C   UNL     1     -11.559  12.907  68.950  1.00  0.00    -0.315 C  
HETATM   15  F   UNL     1     -10.243  12.892  68.652  1.00  0.00    -0.230 F  
HETATM   16  F   UNL     1     -11.701  12.970  70.290  1.00  0.00    -0.360 F  
HETATM   17  F   UNL     1     -12.094  11.741  68.524  1.00  0.00    -0.368 F  
ENDBRANCH  10  13
TORSDOF 1
ENDMDL
MODEL       40
REMARK 921   NORMALIZED FREE ENERGY PREDICTED BY IDOCK:   -5.02 KCAL/MOL
REMARK 922        TOTAL FREE ENERGY PREDICTED BY IDOCK:   -5.70 KCAL/MOL
REMARK 923 INTER-LIGAND FREE ENERGY PREDICTED BY IDOCK:   -5.31 KCAL/MOL
REMARK 924 INTRA-LIGAND FREE ENERGY PREDICTED BY IDOCK:   -0.40 KCAL/MOL
REMARK 927      BINDING AFFINITY PREDICTED BY RF-SCORE:    0.00 PKD
ROOT
HETATM    1  N   UNL     1     -12.523  14.367  63.434  1.00  0.00    -1.068 NA 
HETATM    2  C   UNL     1     -11.971  13.315  64.058  1.00  0.00    -0.465 A  
HETATM    3  H1  UNL     1     -13.142  15.029  63.900  1.00  0.00     0.000 HD 
HETATM    4  H2  UNL     1     -12.313  14.511  62.446  1.00  0.00     0.000 HD 
HETATM    5  N   UNL     1     -11.176  12.465  63.460  1.00  0.00    -0.464 NA 
HETATM    6  C   UNL     1     -10.727  11.518  64.365  1.00  0.00    -0.344 A  
HETATM    7  C   UNL     1     -11.227  11.646  65.659  1.00  0.00    -0.214 A  
HETATM    8  C   UNL     1     -10.863  10.760  66.686  1.00  0.00    -0.228 A  
HETATM    9  S   UNL     1     -12.281  13.005  65.715  1.00  0.00    -0.416 SA 
HETATM   10  C   UNL     1      -9.976   9.714  66.394  1.00  0.00    -0.255 A  
HETATM   11  C   UNL     1      -9.433   9.594  65.119  1.00  0.00    -0.332 A  
HETATM   12  C   UNL     1      -9.817  10.476  64.096  1.00  0.00    -0.401 A  
ENDROOT
BRANCH  10  13
HETATM   13  O   UNL     1      -9.667   8.933  67.466  1.00  0.00    -0.156 OA 
HETATM   14  C   UNL     1     -10.294   7.668  67.626  1.00  0.00    -0.237 C  
HETATM   15  F   UNL     1     -11.254   7.404  66.715  1.00  0.00    -0.389 F  
HETATM   16  F   UNL     1      -9.359   6.697  67.566  1.00  0.00    -0.124 F  
HETATM   17  F   UNL     1     -10.864   7.627  68.852  1.00  0.00    -0.216 F  
ENDBRANCH  10  13
TORSDOF 1
ENDMDL
MODEL       41
REMARK 921   NORMALIZED FREE ENERGY PREDICTED BY IDOCK:   -4.97 KCAL/MOL
REMARK 922        TOTAL FREE ENERGY PREDICTED BY IDOCK:   -5.66 KCAL/MOL
REMARK 923 INTER-LIGAND FREE ENERGY PREDICTED BY IDOCK:   -5.27 KCAL/MOL
REMARK 924 INTRA-LIGAND FREE ENERGY PREDICTED BY IDOCK:   -0.39 KCAL/MOL
REMARK 927      BINDING AFFINITY PREDICTED BY RF-SCORE:    0.00 PKD
ROOT
HETATM    1  N   UNL     1     -12.369  14.907  64.037  1.00  0.00    -1.021 NA 
HETATM    2  C   UNL     1     -12.184  14.153  65.132  1.00  0.00    -0.433 A  
HETATM    3  H1  UNL     1     -12.351  14.528  63.091  1.00  0.00     0.000 HD 
HETATM    4  H2  UNL     1     -12.533  15.906  64.157  1.00  0.00     0.000 HD 
HETATM    5  N   UNL     1     -12.206  14.639  66.346  1.00  0.00    -0.235 NA 
HETATM    6  C   UNL     1     -12.034  13.621  67.268  1.00  0.00    -0.381 A  
HETATM    7  C   UNL     1     -11.845  12.351  66.725  1.00  0.00    -0.315 A  
HETATM    8  C   UNL     1     -11.657  11.219  67.535  1.00  0.00    -0.257 A  
HETATM    9  S   UNL     1     -11.898  12.467  65.010  1.00  0.00    -0.407 SA 
HETATM   10  C   UNL     1     -11.654  11.377  68.928  1.00  0.00    -0.323 A  
HETATM   11  C   UNL     1     -11.882  12.628  69.490  1.00  0.00    -0.376 A  
HETATM   12  C   UNL     1     -12.053  13.756  68.671  1.00  0.00    -0.333 A  
ENDROOT
BRANCH  10  13
HETATM   13  O   UNL     1     -11.494  10.213  69.618  1.00  0.00    -0.241 OA 
HETATM   14  C   UNL     1     -10.195   9.804  70.027  1.00  0.00    -0.263 C  
HETATM   15  F   UNL     1      -9.197  10.592  69.577  1.00  0.00    -0.201 F  
HETATM   16  F   UNL     1     -10.146   9.765  71.374  1.00  0.00    -0.303 F  
HETATM   17  F   UNL     1      -9.978   8.553  69.562  1.00  0.00    -0.178 F  
ENDBRANCH  10  13
TORSDOF 1
ENDMDL
MODEL       42
REMARK 921   NORMALIZED FREE ENERGY PREDICTED BY IDOCK:   -4.97 KCAL/MOL
REMARK 922        TOTAL FREE ENERGY PREDICTED BY IDOCK:   -5.66 KCAL/MOL
REMARK 923 INTER-LIGAND FREE ENERGY PREDICTED BY IDOCK:   -5.27 KCAL/MOL
REMARK 924 INTRA-LIGAND FREE ENERGY PREDICTED BY IDOCK:   -0.38 KCAL/MOL
REMARK 927      BINDING AFFINITY PREDICTED BY RF-SCORE:    0.00 PKD
ROOT
HETATM    1  N   UNL     1     -12.470  14.156  63.460  1.00  0.00    -1.106 NA 
HETATM    2  C   UNL     1     -11.887  13.235  64.242  1.00  0.00    -0.417 A  
HETATM    3  H1  UNL     1     -12.300  14.223  62.457  1.00  0.00     0.000 HD 
HETATM    4  H2  UNL     1     -13.114  14.822  63.888  1.00  0.00     0.000 HD 
HETATM    5  N   UNL     1     -12.105  13.150  65.530  1.00  0.00    -0.415 NA 
HETATM    6  C   UNL     1     -11.406  12.079  66.059  1.00  0.00    -0.343 A  
HETATM    7  C   UNL     1     -10.621  11.371  65.150  1.00  0.00    -0.293 A  
HETATM    8  C   UNL     1      -9.855  10.261  65.540  1.00  0.00    -0.347 A  
HETATM    9  S   UNL     1     -10.792  12.087  63.595  1.00  0.00    -0.471 SA 
HETATM   10  C   UNL     1      -9.877   9.860  66.883  1.00  0.00    -0.199 A  
HETATM   11  C   UNL     1     -10.686  10.527  67.797  1.00  0.00    -0.319 A  
HETATM   12  C   UNL     1     -11.436  11.646  67.400  1.00  0.00    -0.357 A  
ENDROOT
BRANCH  10  13
HETATM   13  O   UNL     1      -9.124   8.756  67.146  1.00  0.00    -0.129 OA 
HETATM   14  C   UNL     1      -9.720   7.467  67.112  1.00  0.00    -0.171 C  
HETATM   15  F   UNL     1     -11.055   7.476  66.918  1.00  0.00    -0.425 F  
HETATM   16  F   UNL     1      -9.143   6.736  66.136  1.00  0.00    -0.153 F  
HETATM   17  F   UNL     1      -9.478   6.855  68.294  1.00  0.00    -0.130 F  
ENDBRANCH  10  13
TORSDOF 1
ENDMDL
MODEL       43
REMARK 921   NORMALIZED FREE ENERGY PREDICTED BY IDOCK:   -4.95 KCAL/MOL
REMARK 922        TOTAL FREE ENERGY PREDICTED BY IDOCK:   -5.63 KCAL/MOL
REMARK 923 INTER-LIGAND FREE ENERGY PREDICTED BY IDOCK:   -5.23 KCAL/MOL
REMARK 924 INTRA-LIGAND FREE ENERGY PREDICTED BY IDOCK:   -0.40 KCAL/MOL
REMARK 927      BINDING AFFINITY PREDICTED BY RF-SCORE:    0.00 PKD
ROOT
HETATM    1  N   UNL     1      -7.658  17.425  68.989  1.00  0.00    -0.216 NA 
HETATM    2  C   UNL     1      -8.588  16.708  68.340  1.00  0.00    -0.221 A  
HETATM    3  H1  UNL     1      -7.088  18.139  68.536  1.00  0.00     0.000 HD 
HETATM    4  H2  UNL     1      -7.514  17.248  69.984  1.00  0.00     0.000 HD 
HETATM    5  N   UNL     1      -9.318  15.792  68.921  1.00  0.00    -0.212 NA 
HETATM    6  C   UNL     1     -10.218  15.258  68.015  1.00  0.00    -0.230 A  
HETATM    7  C   UNL     1     -10.131  15.763  66.719  1.00  0.00    -0.271 A  
HETATM    8  C   UNL     1     -10.977  15.318  65.691  1.00  0.00    -0.348 A  
HETATM    9  S   UNL     1      -8.883  16.946  66.668  1.00  0.00    -0.265 SA 
HETATM   10  C   UNL     1     -11.930  14.331  65.979  1.00  0.00    -0.400 A  
HETATM   11  C   UNL     1     -12.062  13.844  67.275  1.00  0.00    -0.403 A  
HETATM   12  C   UNL     1     -11.199  14.284  68.292  1.00  0.00    -0.298 A  
ENDROOT
BRANCH  10  13
HETATM   13  O   UNL     1     -12.718  13.993  64.920  1.00  0.00    -0.647 OA 
HETATM   14  C   UNL     1     -12.395  12.856  64.131  1.00  0.00    -0.376 C  
HETATM   15  F   UNL     1     -11.230  12.263  64.462  1.00  0.00    -0.322 F  
HETATM   16  F   UNL     1     -13.389  11.950  64.230  1.00  0.00    -0.442 F  
HETATM   17  F   UNL     1     -12.309  13.246  62.838  1.00  0.00    -0.577 F  
ENDBRANCH  10  13
TORSDOF 1
ENDMDL
MODEL       44
REMARK 921   NORMALIZED FREE ENERGY PREDICTED BY IDOCK:   -4.94 KCAL/MOL
REMARK 922        TOTAL FREE ENERGY PREDICTED BY IDOCK:   -5.63 KCAL/MOL
REMARK 923 INTER-LIGAND FREE ENERGY PREDICTED BY IDOCK:   -5.24 KCAL/MOL
REMARK 924 INTRA-LIGAND FREE ENERGY PREDICTED BY IDOCK:   -0.39 KCAL/MOL
REMARK 927      BINDING AFFINITY PREDICTED BY RF-SCORE:    0.00 PKD
ROOT
HETATM    1  N   UNL     1     -11.948   9.804  71.639  1.00  0.00    -0.396 NA 
HETATM    2  C   UNL     1     -11.692  10.320  70.428  1.00  0.00    -0.319 A  
HETATM    3  H1  UNL     1     -12.386  10.337  72.391  1.00  0.00     0.000 HD 
HETATM    4  H2  UNL     1     -11.694   8.832  71.818  1.00  0.00     0.000 HD 
HETATM    5  N   UNL     1     -11.130   9.636  69.464  1.00  0.00    -0.207 NA 
HETATM    6  C   UNL     1     -11.037  10.414  68.323  1.00  0.00    -0.281 A  
HETATM    7  C   UNL     1     -11.508  11.719  68.450  1.00  0.00    -0.294 A  
HETATM    8  C   UNL     1     -11.479  12.626  67.379  1.00  0.00    -0.397 A  
HETATM    9  S   UNL     1     -12.087  11.946  70.055  1.00  0.00    -0.252 SA 
HETATM   10  C   UNL     1     -10.953  12.205  66.150  1.00  0.00    -0.298 A  
HETATM   11  C   UNL     1     -10.516  10.894  65.990  1.00  0.00    -0.287 A  
HETATM   12  C   UNL     1     -10.535  10.000  67.072  1.00  0.00    -0.302 A  
ENDROOT
BRANCH  10  13
HETATM   13  O   UNL     1     -11.000  13.152  65.171  1.00  0.00    -0.287 OA 
HETATM   14  C   UNL     1     -12.164  13.281  64.366  1.00  0.00    -0.390 C  
HETATM   15  F   UNL     1     -13.104  12.341  64.592  1.00  0.00    -0.543 F  
HETATM   16  F   UNL     1     -12.708  14.499  64.565  1.00  0.00    -0.427 F  
HETATM   17  F   UNL     1     -11.794  13.193  63.067  1.00  0.00    -0.562 F  
ENDBRANCH  10  13
TORSDOF 1
ENDMDL
MODEL       45
REMARK 921   NORMALIZED FREE ENERGY PREDICTED BY IDOCK:   -4.93 KCAL/MOL
REMARK 922        TOTAL FREE ENERGY PREDICTED BY IDOCK:   -5.61 KCAL/MOL
REMARK 923 INTER-LIGAND FREE ENERGY PREDICTED BY IDOCK:   -5.34 KCAL/MOL
REMARK 924 INTRA-LIGAND FREE ENERGY PREDICTED BY IDOCK:   -0.27 KCAL/MOL
REMARK 927      BINDING AFFINITY PREDICTED BY RF-SCORE:    0.00 PKD
ROOT
HETATM    1  N   UNL     1     -11.726  14.433  64.938  1.00  0.00    -0.388 NA 
HETATM    2  C   UNL     1     -11.746  13.852  66.148  1.00  0.00    -0.376 A  
HETATM    3  H1  UNL     1     -11.565  13.915  64.074  1.00  0.00     0.000 HD 
HETATM    4  H2  UNL     1     -11.880  15.440  64.879  1.00  0.00     0.000 HD 
HETATM    5  N   UNL     1     -11.953  14.516  67.256  1.00  0.00    -0.394 NA 
HETATM    6  C   UNL     1     -11.963  13.648  68.334  1.00  0.00    -0.356 A  
HETATM    7  C   UNL     1     -11.724  12.310  68.025  1.00  0.00    -0.356 A  
HETATM    8  C   UNL     1     -11.703  11.313  69.013  1.00  0.00    -0.410 A  
HETATM    9  S   UNL     1     -11.491  12.167  66.326  1.00  0.00    -0.351 SA 
HETATM   10  C   UNL     1     -11.924  11.679  70.348  1.00  0.00    -0.358 A  
HETATM   11  C   UNL     1     -12.206  13.002  70.672  1.00  0.00    -0.390 A  
HETATM   12  C   UNL     1     -12.207  13.993  69.679  1.00  0.00    -0.383 A  
ENDROOT
BRANCH  10  13
HETATM   13  O   UNL     1     -11.912  10.632  71.221  1.00  0.00    -0.331 OA 
HETATM   14  C   UNL     1     -12.996   9.713  71.238  1.00  0.00    -0.360 C  
HETATM   15  F   UNL     1     -14.020  10.045  70.426  1.00  0.00    -0.169 F  
HETATM   16  F   UNL     1     -12.545   8.489  70.892  1.00  0.00    -0.249 F  
HETATM   17  F   UNL     1     -13.474   9.643  72.501  1.00  0.00    -0.469 F  
ENDBRANCH  10  13
TORSDOF 1
ENDMDL
MODEL       46
REMARK 921   NORMALIZED FREE ENERGY PREDICTED BY IDOCK:   -4.93 KCAL/MOL
REMARK 922        TOTAL FREE ENERGY PREDICTED BY IDOCK:   -5.61 KCAL/MOL
REMARK 923 INTER-LIGAND FREE ENERGY PREDICTED BY IDOCK:   -5.21 KCAL/MOL
REMARK 924 INTRA-LIGAND FREE ENERGY PREDICTED BY IDOCK:   -0.40 KCAL/MOL
REMARK 927      BINDING AFFINITY PREDICTED BY RF-SCORE:    0.00 PKD
ROOT
HETATM    1  N   UNL     1      -9.548   9.767  62.901  1.00  0.00    -0.547 NA 
HETATM    2  C   UNL     1     -10.077  10.626  63.785  1.00  0.00    -0.270 A  
HETATM    3  H1  UNL     1      -8.897   9.027  63.164  1.00  0.00     0.000 HD 
HETATM    4  H2  UNL     1      -9.809   9.857  61.919  1.00  0.00     0.000 HD 
HETATM    5  N   UNL     1     -10.912  11.575  63.448  1.00  0.00    -0.371 NA 
HETATM    6  C   UNL     1     -11.322  12.268  64.574  1.00  0.00    -0.329 A  
HETATM    7  C   UNL     1     -10.752  11.848  65.774  1.00  0.00    -0.284 A  
HETATM    8  C   UNL     1     -11.070  12.455  66.999  1.00  0.00    -0.327 A  
HETATM    9  S   UNL     1      -9.682  10.539  65.451  1.00  0.00    -0.280 SA 
HETATM   10  C   UNL     1     -11.982  13.519  67.010  1.00  0.00    -0.394 A  
HETATM   11  C   UNL     1     -12.594  13.927  65.829  1.00  0.00    -0.533 A  
HETATM   12  C   UNL     1     -12.256  13.323  64.607  1.00  0.00    -0.460 A  
ENDROOT
BRANCH  10  13
HETATM   13  O   UNL     1     -12.243  14.016  68.252  1.00  0.00    -0.328 OA 
HETATM   14  C   UNL     1     -11.525  15.146  68.728  1.00  0.00    -0.319 C  
HETATM   15  F   UNL     1     -10.541  15.566  67.906  1.00  0.00    -0.249 F  
HETATM   16  F   UNL     1     -12.386  16.165  68.932  1.00  0.00    -0.267 F  
HETATM   17  F   UNL     1     -10.964  14.824  69.916  1.00  0.00    -0.253 F  
ENDBRANCH  10  13
TORSDOF 1
ENDMDL
MODEL       47
REMARK 921   NORMALIZED FREE ENERGY PREDICTED BY IDOCK:   -4.92 KCAL/MOL
REMARK 922        TOTAL FREE ENERGY PREDICTED BY IDOCK:   -5.61 KCAL/MOL
REMARK 923 INTER-LIGAND FREE ENERGY PREDICTED BY IDOCK:   -5.21 KCAL/MOL
REMARK 924 INTRA-LIGAND FREE ENERGY PREDICTED BY IDOCK:   -0.40 KCAL/MOL
REMARK 927      BINDING AFFINITY PREDICTED BY RF-SCORE:    0.00 PKD
ROOT
HETATM    1  N   UNL     1     -12.302  16.125  71.677  1.00  0.00    -0.593 NA 
HETATM    2  C   UNL     1     -12.137  15.312  70.622  1.00  0.00    -0.354 A  
HETATM    3  H1  UNL     1     -12.377  17.138  71.593  1.00  0.00     0.000 HD 
HETATM    4  H2  UNL     1     -12.354  15.709  72.607  1.00  0.00     0.000 HD 
HETATM    5  N   UNL     1     -12.040  14.012  70.730  1.00  0.00    -0.347 NA 
HETATM    6  C   UNL     1     -11.925  13.440  69.475  1.00  0.00    -0.319 A  
HETATM    7  C   UNL     1     -11.900  14.338  68.409  1.00  0.00    -0.338 A  
HETATM    8  C   UNL     1     -11.787  13.906  67.078  1.00  0.00    -0.447 A  
HETATM    9  S   UNL     1     -12.035  15.937  69.029  1.00  0.00    -0.078 SA 
HETATM   10  C   UNL     1     -11.689  12.532  66.818  1.00  0.00    -0.384 A  
HETATM   11  C   UNL     1     -11.754  11.617  67.863  1.00  0.00    -0.329 A  
HETATM   12  C   UNL     1     -11.851  12.060  69.192  1.00  0.00    -0.369 A  
ENDROOT
BRANCH  10  13
HETATM   13  O   UNL     1     -11.614  12.221  65.493  1.00  0.00    -0.354 OA 
HETATM   14  C   UNL     1     -10.351  11.957  64.899  1.00  0.00    -0.286 C  
HETATM   15  F   UNL     1      -9.298  12.154  65.719  1.00  0.00    -0.233 F  
HETATM   16  F   UNL     1     -10.326  10.682  64.457  1.00  0.00    -0.377 F  
HETATM   17  F   UNL     1     -10.204  12.775  63.832  1.00  0.00    -0.397 F  
ENDBRANCH  10  13
TORSDOF 1
ENDMDL
MODEL       48
REMARK 921   NORMALIZED FREE ENERGY PREDICTED BY IDOCK:   -4.92 KCAL/MOL
REMARK 922        TOTAL FREE ENERGY PREDICTED BY IDOCK:   -5.61 KCAL/MOL
REMARK 923 INTER-LIGAND FREE ENERGY PREDICTED BY IDOCK:   -5.22 KCAL/MOL
REMARK 924 INTRA-LIGAND FREE ENERGY PREDICTED BY IDOCK:   -0.39 KCAL/MOL
REMARK 927      BINDING AFFINITY PREDICTED BY RF-SCORE:    0.00 PKD
ROOT
HETATM    1  N   UNL     1     -11.987  10.357  68.792  1.00  0.00    -0.715 NA 
HETATM    2  C   UNL     1     -11.837  11.690  68.840  1.00  0.00    -0.329 A  
HETATM    3  H1  UNL     1     -11.907   9.818  67.930  1.00  0.00     0.000 HD 
HETATM    4  H2  UNL     1     -12.190   9.859  69.659  1.00  0.00     0.000 HD 
HETATM    5  N   UNL     1     -11.939  12.381  69.946  1.00  0.00    -0.324 NA 
HETATM    6  C   UNL     1     -11.690  13.719  69.693  1.00  0.00    -0.318 A  
HETATM    7  C   UNL     1     -11.430  14.036  68.361  1.00  0.00    -0.306 A  
HETATM    8  C   UNL     1     -11.159  15.352  67.952  1.00  0.00    -0.323 A  
HETATM    9  S   UNL     1     -11.498  12.595  67.424  1.00  0.00    -0.357 SA 
HETATM   10  C   UNL     1     -11.158  16.373  68.912  1.00  0.00    -0.328 A  
HETATM   11  C   UNL     1     -11.374  16.071  70.252  1.00  0.00    -0.391 A  
HETATM   12  C   UNL     1     -11.660  14.755  70.649  1.00  0.00    -0.324 A  
ENDROOT
BRANCH  10  13
HETATM   13  O   UNL     1     -10.855  17.604  68.414  1.00  0.00    -0.294 OA 
HETATM   14  C   UNL     1      -9.499  18.025  68.340  1.00  0.00    -0.308 C  
HETATM   15  F   UNL     1      -8.620  17.165  68.894  1.00  0.00    -0.264 F  
HETATM   16  F   UNL     1      -9.164  18.218  67.048  1.00  0.00    -0.254 F  
HETATM   17  F   UNL     1      -9.385  19.208  68.986  1.00  0.00    -0.383 F  
ENDBRANCH  10  13
TORSDOF 1
ENDMDL
MODEL       49
REMARK 921   NORMALIZED FREE ENERGY PREDICTED BY IDOCK:   -4.92 KCAL/MOL
REMARK 922        TOTAL FREE ENERGY PREDICTED BY IDOCK:   -5.61 KCAL/MOL
REMARK 923 INTER-LIGAND FREE ENERGY PREDICTED BY IDOCK:   -5.29 KCAL/MOL
REMARK 924 INTRA-LIGAND FREE ENERGY PREDICTED BY IDOCK:   -0.31 KCAL/MOL
REMARK 927      BINDING AFFINITY PREDICTED BY RF-SCORE:    0.00 PKD
ROOT
HETATM    1  N   UNL     1     -11.679  16.321  71.055  1.00  0.00    -0.599 NA 
HETATM    2  C   UNL     1     -11.662  15.635  69.901  1.00  0.00    -0.362 A  
HETATM    3  H1  UNL     1     -11.966  15.910  71.943  1.00  0.00     0.000 HD 
HETATM    4  H2  UNL     1     -11.390  17.299  71.044  1.00  0.00     0.000 HD 
HETATM    5  N   UNL     1     -11.294  16.163  68.762  1.00  0.00    -0.362 NA 
HETATM    6  C   UNL     1     -11.335  15.207  67.762  1.00  0.00    -0.328 A  
HETATM    7  C   UNL     1     -11.778  13.946  68.159  1.00  0.00    -0.353 A  
HETATM    8  C   UNL     1     -11.874  12.875  67.256  1.00  0.00    -0.416 A  
HETATM    9  S   UNL     1     -12.138  13.990  69.841  1.00  0.00    -0.353 SA 
HETATM   10  C   UNL     1     -11.519  13.086  65.917  1.00  0.00    -0.337 A  
HETATM   11  C   UNL     1     -11.035  14.324  65.509  1.00  0.00    -0.319 A  
HETATM   12  C   UNL     1     -10.959  15.393  66.416  1.00  0.00    -0.277 A  
ENDROOT
BRANCH  10  13
HETATM   13  O   UNL     1     -11.620  11.975  65.134  1.00  0.00    -0.329 OA 
HETATM   14  C   UNL     1     -10.449  11.259  64.767  1.00  0.00    -0.323 C  
HETATM   15  F   UNL     1      -9.296  11.838  65.160  1.00  0.00    -0.221 F  
HETATM   16  F   UNL     1     -10.510  10.014  65.283  1.00  0.00    -0.351 F  
HETATM   17  F   UNL     1     -10.420  11.154  63.418  1.00  0.00    -0.363 F  
ENDBRANCH  10  13
TORSDOF 1
ENDMDL
MODEL       50
REMARK 921   NORMALIZED FREE ENERGY PREDICTED BY IDOCK:   -4.87 KCAL/MOL
REMARK 922        TOTAL FREE ENERGY PREDICTED BY IDOCK:   -5.55 KCAL/MOL
REMARK 923 INTER-LIGAND FREE ENERGY PREDICTED BY IDOCK:   -5.16 KCAL/MOL
REMARK 924 INTRA-LIGAND FREE ENERGY PREDICTED BY IDOCK:   -0.39 KCAL/MOL
REMARK 927      BINDING AFFINITY PREDICTED BY RF-SCORE:    0.00 PKD
ROOT
HETATM    1  N   UNL     1     -13.662  13.050  72.809  1.00  0.00    -0.716 NA 
HETATM    2  C   UNL     1     -13.073  13.513  71.695  1.00  0.00    -0.374 A  
HETATM    3  H1  UNL     1     -14.098  13.658  73.502  1.00  0.00     0.000 HD 
HETATM    4  H2  UNL     1     -13.674  12.043  72.970  1.00  0.00     0.000 HD 
HETATM    5  N   UNL     1     -12.514  12.733  70.806  1.00  0.00    -0.322 NA 
HETATM    6  C   UNL     1     -12.035  13.487  69.749  1.00  0.00    -0.340 A  
HETATM    7  C   UNL     1     -12.211  14.864  69.870  1.00  0.00    -0.309 A  
HETATM    8  C   UNL     1     -11.776  15.757  68.877  1.00  0.00    -0.404 A  
HETATM    9  S   UNL     1     -13.010  15.192  71.358  1.00  0.00    -0.444 SA 
HETATM   10  C   UNL     1     -11.142  15.245  67.737  1.00  0.00    -0.318 A  
HETATM   11  C   UNL     1     -10.994  13.871  67.577  1.00  0.00    -0.288 A  
HETATM   12  C   UNL     1     -11.418  12.988  68.584  1.00  0.00    -0.344 A  
ENDROOT
BRANCH  10  13
HETATM   13  O   UNL     1     -10.788  16.193  66.825  1.00  0.00    -0.277 OA 
HETATM   14  C   UNL     1      -9.487  16.764  66.865  1.00  0.00    -0.241 C  
HETATM   15  F   UNL     1      -8.737  16.367  67.914  1.00  0.00    -0.174 F  
HETATM   16  F   UNL     1      -8.834  16.460  65.723  1.00  0.00    -0.346 F  
HETATM   17  F   UNL     1      -9.614  18.109  66.931  1.00  0.00    -0.266 F  
ENDBRANCH  10  13
TORSDOF 1
ENDMDL
MODEL       51
REMARK 921   NORMALIZED FREE ENERGY PREDICTED BY IDOCK:   -4.84 KCAL/MOL
REMARK 922        TOTAL FREE ENERGY PREDICTED BY IDOCK:   -5.52 KCAL/MOL
REMARK 923 INTER-LIGAND FREE ENERGY PREDICTED BY IDOCK:   -5.33 KCAL/MOL
REMARK 924 INTRA-LIGAND FREE ENERGY PREDICTED BY IDOCK:   -0.19 KCAL/MOL
REMARK 927      BINDING AFFINITY PREDICTED BY RF-SCORE:    0.00 PKD
ROOT
HETATM    1  N   UNL     1     -12.845   7.658  72.252  1.00  0.00    -0.512 NA 
HETATM    2  C   UNL     1     -12.757   8.939  71.863  1.00  0.00    -0.376 A  
HETATM    3  H1  UNL     1     -12.291   6.910  71.835  1.00  0.00     0.000 HD 
HETATM    4  H2  UNL     1     -13.496   7.420  73.000  1.00  0.00     0.000 HD 
HETATM    5  N   UNL     1     -13.468   9.898  72.398  1.00  0.00    -0.323 NA 
HETATM    6  C   UNL     1     -13.129  11.114  71.829  1.00  0.00    -0.431 A  
HETATM    7  C   UNL     1     -12.168  11.053  70.821  1.00  0.00    -0.380 A  
HETATM    8  C   UNL     1     -11.724  12.204  70.151  1.00  0.00    -0.301 A  
HETATM    9  S   UNL     1     -11.689   9.414  70.610  1.00  0.00    -0.204 SA 
HETATM   10  C   UNL     1     -12.270  13.446  70.503  1.00  0.00    -0.352 A  
HETATM   11  C   UNL     1     -13.199  13.533  71.534  1.00  0.00    -0.402 A  
HETATM   12  C   UNL     1     -13.648  12.374  72.187  1.00  0.00    -0.405 A  
ENDROOT
BRANCH  10  13
HETATM   13  O   UNL     1     -11.748  14.498  69.812  1.00  0.00    -0.269 OA 
HETATM   14  C   UNL     1     -10.979  15.480  70.493  1.00  0.00    -0.344 C  
HETATM   15  F   UNL     1     -10.931  15.320  71.832  1.00  0.00    -0.459 F  
HETATM   16  F   UNL     1      -9.720  15.473  70.008  1.00  0.00    -0.280 F  
HETATM   17  F   UNL     1     -11.519  16.694  70.241  1.00  0.00    -0.288 F  
ENDBRANCH  10  13
TORSDOF 1
ENDMDL
MODEL       52
REMARK 921   NORMALIZED FREE ENERGY PREDICTED BY IDOCK:   -4.82 KCAL/MOL
REMARK 922        TOTAL FREE ENERGY PREDICTED BY IDOCK:   -5.49 KCAL/MOL
REMARK 923 INTER-LIGAND FREE ENERGY PREDICTED BY IDOCK:   -5.24 KCAL/MOL
REMARK 924 INTRA-LIGAND FREE ENERGY PREDICTED BY IDOCK:   -0.25 KCAL/MOL
REMARK 927      BINDING AFFINITY PREDICTED BY RF-SCORE:    0.00 PKD
ROOT
HETATM    1  N   UNL     1     -11.496  11.218  64.134  1.00  0.00    -0.282 NA 
HETATM    2  C   UNL     1     -11.172  12.453  64.547  1.00  0.00    -0.323 A  
HETATM    3  H1  UNL     1     -12.206  11.037  63.424  1.00  0.00     0.000 HD 
HETATM    4  H2  UNL     1     -11.010  10.423  64.548  1.00  0.00     0.000 HD 
HETATM    5  N   UNL     1     -10.262  12.686  65.457  1.00  0.00    -0.279 NA 
HETATM    6  C   UNL     1     -10.114  14.050  65.642  1.00  0.00    -0.322 A  
HETATM    7  C   UNL     1     -10.958  14.850  64.876  1.00  0.00    -0.408 A  
HETATM    8  C   UNL     1     -10.924  16.252  64.954  1.00  0.00    -0.321 A  
HETATM    9  S   UNL     1     -11.949  13.837  63.900  1.00  0.00    -0.290 SA 
HETATM   10  C   UNL     1     -10.018  16.858  65.835  1.00  0.00    -0.252 A  
HETATM   11  C   UNL     1      -9.138  16.079  66.577  1.00  0.00    -0.319 A  
HETATM   12  C   UNL     1      -9.191  14.678  66.503  1.00  0.00    -0.294 A  
ENDROOT
BRANCH  10  13
HETATM   13  O   UNL     1     -10.047  18.221  65.811  1.00  0.00    -0.560 OA 
HETATM   14  C   UNL     1     -10.336  18.944  66.999  1.00  0.00    -0.404 C  
HETATM   15  F   UNL     1     -10.673  18.171  68.053  1.00  0.00    -0.390 F  
HETATM   16  F   UNL     1      -9.266  19.695  67.334  1.00  0.00    -0.335 F  
HETATM   17  F   UNL     1     -11.372  19.776  66.748  1.00  0.00    -0.464 F  
ENDBRANCH  10  13
TORSDOF 1
ENDMDL
MODEL       53
REMARK 921   NORMALIZED FREE ENERGY PREDICTED BY IDOCK:   -4.78 KCAL/MOL
REMARK 922        TOTAL FREE ENERGY PREDICTED BY IDOCK:   -5.46 KCAL/MOL
REMARK 923 INTER-LIGAND FREE ENERGY PREDICTED BY IDOCK:   -5.28 KCAL/MOL
REMARK 924 INTRA-LIGAND FREE ENERGY PREDICTED BY IDOCK:   -0.18 KCAL/MOL
REMARK 927      BINDING AFFINITY PREDICTED BY RF-SCORE:    0.00 PKD
ROOT
HETATM    1  N   UNL     1     -12.368  14.862  69.042  1.00  0.00    -0.589 NA 
HETATM    2  C   UNL     1     -12.231  13.625  69.545  1.00  0.00    -0.264 A  
HETATM    3  H1  UNL     1     -11.877  15.181  68.208  1.00  0.00     0.000 HD 
HETATM    4  H2  UNL     1     -12.993  15.513  69.517  1.00  0.00     0.000 HD 
HETATM    5  N   UNL     1     -12.861  13.216  70.616  1.00  0.00    -0.102 NA 
HETATM    6  C   UNL     1     -12.560  11.888  70.865  1.00  0.00    -0.266 A  
HETATM    7  C   UNL     1     -11.656  11.305  69.979  1.00  0.00    -0.321 A  
HETATM    8  C   UNL     1     -11.253   9.966  70.104  1.00  0.00    -0.347 A  
HETATM    9  S   UNL     1     -11.196  12.477  68.806  1.00  0.00    -0.291 SA 
HETATM   10  C   UNL     1     -11.773   9.198  71.155  1.00  0.00    -0.313 A  
HETATM   11  C   UNL     1     -12.707   9.749  72.026  1.00  0.00    -0.463 A  
HETATM   12  C   UNL     1     -13.090  11.094  71.902  1.00  0.00    -0.513 A  
ENDROOT
BRANCH  10  13
HETATM   13  O   UNL     1     -11.341   7.906  71.167  1.00  0.00    -0.257 OA 
HETATM   14  C   UNL     1     -12.266   6.848  70.956  1.00  0.00    -0.377 C  
HETATM   15  F   UNL     1     -13.552   7.244  70.868  1.00  0.00    -0.370 F  
HETATM   16  F   UNL     1     -11.935   6.187  69.827  1.00  0.00    -0.435 F  
HETATM   17  F   UNL     1     -12.168   5.985  71.993  1.00  0.00    -0.371 F  
ENDBRANCH  10  13
TORSDOF 1
ENDMDL
MODEL       54
REMARK 921   NORMALIZED FREE ENERGY PREDICTED BY IDOCK:   -4.78 KCAL/MOL
REMARK 922        TOTAL FREE ENERGY PREDICTED BY IDOCK:   -5.45 KCAL/MOL
REMARK 923 INTER-LIGAND FREE ENERGY PREDICTED BY IDOCK:   -5.05 KCAL/MOL
REMARK 924 INTRA-LIGAND FREE ENERGY PREDICTED BY IDOCK:   -0.40 KCAL/MOL
REMARK 927      BINDING AFFINITY PREDICTED BY RF-SCORE:    0.00 PKD
ROOT
HETATM    1  N   UNL     1     -12.018  11.537  67.511  1.00  0.00    -0.622 NA 
HETATM    2  C   UNL     1     -11.298  12.644  67.272  1.00  0.00    -0.318 A  
HETATM    3  H1  UNL     1     -12.988  11.428  67.215  1.00  0.00     0.000 HD 
HETATM    4  H2  UNL     1     -11.574  10.767  68.011  1.00  0.00     0.000 HD 
HETATM    5  N   UNL     1     -10.054  12.783  67.652  1.00  0.00    -0.216 NA 
HETATM    6  C   UNL     1      -9.562  14.005  67.226  1.00  0.00    -0.238 A  
HETATM    7  C   UNL     1     -10.473  14.810  66.544  1.00  0.00    -0.291 A  
HETATM    8  C   UNL     1     -10.120  16.076  66.052  1.00  0.00    -0.362 A  
HETATM    9  S   UNL     1     -11.977  13.981  66.441  1.00  0.00    -0.455 SA 
HETATM   10  C   UNL     1      -8.815  16.544  66.261  1.00  0.00    -0.329 A  
HETATM   11  C   UNL     1      -7.880  15.740  66.903  1.00  0.00    -0.271 A  
HETATM   12  C   UNL     1      -8.248  14.482  67.405  1.00  0.00    -0.220 A  
ENDROOT
BRANCH  10  13
HETATM   13  O   UNL     1      -8.570  17.770  65.718  1.00  0.00    -0.510 OA 
HETATM   14  C   UNL     1      -8.670  18.935  66.525  1.00  0.00    -0.316 C  
HETATM   15  F   UNL     1      -9.122  18.708  67.776  1.00  0.00    -0.277 F  
HETATM   16  F   UNL     1      -7.461  19.529  66.599  1.00  0.00    -0.223 F  
HETATM   17  F   UNL     1      -9.525  19.795  65.926  1.00  0.00    -0.402 F  
ENDBRANCH  10  13
TORSDOF 1
ENDMDL
MODEL       55
REMARK 921   NORMALIZED FREE ENERGY PREDICTED BY IDOCK:   -4.76 KCAL/MOL
REMARK 922        TOTAL FREE ENERGY PREDICTED BY IDOCK:   -5.44 KCAL/MOL
REMARK 923 INTER-LIGAND FREE ENERGY PREDICTED BY IDOCK:   -5.05 KCAL/MOL
REMARK 924 INTRA-LIGAND FREE ENERGY PREDICTED BY IDOCK:   -0.39 KCAL/MOL
REMARK 927      BINDING AFFINITY PREDICTED BY RF-SCORE:    0.00 PKD
ROOT
HETATM    1  N   UNL     1     -11.127  15.847  64.243  1.00  0.00    -0.936 NA 
HETATM    2  C   UNL     1     -11.109  14.689  64.921  1.00  0.00    -0.401 A  
HETATM    3  H1  UNL     1     -11.488  16.716  64.635  1.00  0.00     0.000 HD 
HETATM    4  H2  UNL     1     -10.763  15.858  63.290  1.00  0.00     0.000 HD 
HETATM    5  N   UNL     1     -10.645  13.573  64.418  1.00  0.00    -0.419 NA 
HETATM    6  C   UNL     1     -10.713  12.564  65.363  1.00  0.00    -0.280 A  
HETATM    7  C   UNL     1     -11.272  12.928  66.586  1.00  0.00    -0.304 A  
HETATM    8  C   UNL     1     -11.407  12.012  67.642  1.00  0.00    -0.375 A  
HETATM    9  S   UNL     1     -11.708  14.591  66.524  1.00  0.00    -0.337 SA 
HETATM   10  C   UNL     1     -10.972  10.693  67.453  1.00  0.00    -0.298 A  
HETATM   11  C   UNL     1     -10.373  10.320  66.254  1.00  0.00    -0.256 A  
HETATM   12  C   UNL     1     -10.258  11.240  65.200  1.00  0.00    -0.344 A  
ENDROOT
BRANCH  10  13
HETATM   13  O   UNL     1     -11.122   9.895  68.548  1.00  0.00    -0.207 OA 
HETATM   14  C   UNL     1     -10.089   9.829  69.522  1.00  0.00    -0.217 C  
HETATM   15  F   UNL     1      -8.972  10.511  69.195  1.00  0.00    -0.153 F  
HETATM   16  F   UNL     1     -10.557  10.297  70.697  1.00  0.00    -0.352 F  
HETATM   17  F   UNL     1      -9.747   8.532  69.692  1.00  0.00    -0.171 F  
ENDBRANCH  10  13
TORSDOF 1
ENDMDL
MODEL       56
REMARK 921   NORMALIZED FREE ENERGY PREDICTED BY IDOCK:   -4.75 KCAL/MOL
REMARK 922        TOTAL FREE ENERGY PREDICTED BY IDOCK:   -5.42 KCAL/MOL
REMARK 923 INTER-LIGAND FREE ENERGY PREDICTED BY IDOCK:   -5.11 KCAL/MOL
REMARK 924 INTRA-LIGAND FREE ENERGY PREDICTED BY IDOCK:   -0.31 KCAL/MOL
REMARK 927      BINDING AFFINITY PREDICTED BY RF-SCORE:    0.00 PKD
ROOT
HETATM    1  N   UNL     1      -9.483   9.149  69.560  1.00  0.00    -0.162 NA 
HETATM    2  C   UNL     1     -10.139  10.110  68.892  1.00  0.00    -0.200 A  
HETATM    3  H1  UNL     1      -9.239   8.249  69.146  1.00  0.00     0.000 HD 
HETATM    4  H2  UNL     1      -9.215   9.326  70.529  1.00  0.00     0.000 HD 
HETATM    5  N   UNL     1     -10.452  11.264  69.424  1.00  0.00    -0.118 NA 
HETATM    6  C   UNL     1     -11.079  12.064  68.485  1.00  0.00    -0.244 A  
HETATM    7  C   UNL     1     -11.270  11.479  67.235  1.00  0.00    -0.301 A  
HETATM    8  C   UNL     1     -11.893  12.168  66.181  1.00  0.00    -0.327 A  
HETATM    9  S   UNL     1     -10.626   9.884  67.265  1.00  0.00    -0.230 SA 
HETATM   10  C   UNL     1     -12.340  13.478  66.400  1.00  0.00    -0.357 A  
HETATM   11  C   UNL     1     -12.122  14.094  67.627  1.00  0.00    -0.337 A  
HETATM   12  C   UNL     1     -11.513  13.391  68.679  1.00  0.00    -0.345 A  
ENDROOT
BRANCH  10  13
HETATM   13  O   UNL     1     -12.902  14.064  65.305  1.00  0.00    -0.686 OA 
HETATM   14  C   UNL     1     -12.074  14.532  64.249  1.00  0.00    -0.425 C  
HETATM   15  F   UNL     1     -10.751  14.440  64.497  1.00  0.00    -0.400 F  
HETATM   16  F   UNL     1     -12.355  13.841  63.125  1.00  0.00    -0.545 F  
HETATM   17  F   UNL     1     -12.364  15.834  64.027  1.00  0.00    -0.429 F  
ENDBRANCH  10  13
TORSDOF 1
ENDMDL
MODEL       57
REMARK 921   NORMALIZED FREE ENERGY PREDICTED BY IDOCK:   -4.74 KCAL/MOL
REMARK 922        TOTAL FREE ENERGY PREDICTED BY IDOCK:   -5.42 KCAL/MOL
REMARK 923 INTER-LIGAND FREE ENERGY PREDICTED BY IDOCK:   -5.69 KCAL/MOL
REMARK 924 INTRA-LIGAND FREE ENERGY PREDICTED BY IDOCK:    0.28 KCAL/MOL
REMARK 927      BINDING AFFINITY PREDICTED BY RF-SCORE:    0.00 PKD
ROOT
HETATM    1  N   UNL     1     -10.656   5.541  70.401  1.00  0.00    -0.287 NA 
HETATM    2  C   UNL     1     -11.106   6.781  70.646  1.00  0.00    -0.291 A  
HETATM    3  H1  UNL     1     -10.942   4.727  70.944  1.00  0.00     0.000 HD 
HETATM    4  H2  UNL     1      -9.996   5.406  69.634  1.00  0.00     0.000 HD 
HETATM    5  N   UNL     1     -10.738   7.825  69.949  1.00  0.00    -0.246 NA 
HETATM    6  C   UNL     1     -11.400   8.954  70.402  1.00  0.00    -0.202 A  
HETATM    7  C   UNL     1     -12.254   8.751  71.484  1.00  0.00    -0.327 A  
HETATM    8  C   UNL     1     -12.993   9.800  72.053  1.00  0.00    -0.515 A  
HETATM    9  S   UNL     1     -12.212   7.086  71.919  1.00  0.00    -0.310 SA 
HETATM   10  C   UNL     1     -12.860  11.089  71.519  1.00  0.00    -0.450 A  
HETATM   11  C   UNL     1     -12.045  11.305  70.413  1.00  0.00    -0.474 A  
HETATM   12  C   UNL     1     -11.298  10.252  69.862  1.00  0.00    -0.354 A  
ENDROOT
BRANCH  10  13
HETATM   13  O   UNL     1     -13.642  12.026  72.124  1.00  0.00    -0.406 OA 
HETATM   14  C   UNL     1     -13.341  13.406  71.972  1.00  0.00    -0.479 C  
HETATM   15  F   UNL     1     -12.198  13.655  71.301  1.00  0.00    -0.400 F  
HETATM   16  F   UNL     1     -14.362  14.016  71.334  1.00  0.00    -0.369 F  
HETATM   17  F   UNL     1     -13.226  13.955  73.203  1.00  0.00    -0.585 F  
ENDBRANCH  10  13
TORSDOF 1
ENDMDL
MODEL       58
REMARK 921   NORMALIZED FREE ENERGY PREDICTED BY IDOCK:   -4.73 KCAL/MOL
REMARK 922        TOTAL FREE ENERGY PREDICTED BY IDOCK:   -5.40 KCAL/MOL
REMARK 923 INTER-LIGAND FREE ENERGY PREDICTED BY IDOCK:   -5.05 KCAL/MOL
REMARK 924 INTRA-LIGAND FREE ENERGY PREDICTED BY IDOCK:   -0.35 KCAL/MOL
REMARK 927      BINDING AFFINITY PREDICTED BY RF-SCORE:    0.00 PKD
ROOT
HETATM    1  N   UNL     1      -9.784  10.854  62.341  1.00  0.00    -0.581 NA 
HETATM    2  C   UNL     1     -10.110  11.246  63.583  1.00  0.00    -0.382 A  
HETATM    3  H1  UNL     1      -9.081  10.141  62.149  1.00  0.00     0.000 HD 
HETATM    4  H2  UNL     1     -10.261  11.290  61.552  1.00  0.00     0.000 HD 
HETATM    5  N   UNL     1     -11.012  12.161  63.829  1.00  0.00    -0.389 NA 
HETATM    6  C   UNL     1     -11.166  12.319  65.195  1.00  0.00    -0.324 A  
HETATM    7  C   UNL     1     -10.335  11.528  65.985  1.00  0.00    -0.246 A  
HETATM    8  C   UNL     1     -10.376  11.578  67.387  1.00  0.00    -0.235 A  
HETATM    9  S   UNL     1      -9.348  10.562  64.957  1.00  0.00    -0.245 SA 
HETATM   10  C   UNL     1     -11.276  12.456  68.007  1.00  0.00    -0.268 A  
HETATM   11  C   UNL     1     -12.144  13.223  67.238  1.00  0.00    -0.341 A  
HETATM   12  C   UNL     1     -12.083  13.178  65.836  1.00  0.00    -0.501 A  
ENDROOT
BRANCH  10  13
HETATM   13  O   UNL     1     -11.256  12.404  69.369  1.00  0.00    -0.229 OA 
HETATM   14  C   UNL     1     -11.942  11.361  70.048  1.00  0.00    -0.363 C  
HETATM   15  F   UNL     1     -12.664  10.554  69.243  1.00  0.00    -0.193 F  
HETATM   16  F   UNL     1     -11.050  10.612  70.728  1.00  0.00    -0.368 F  
HETATM   17  F   UNL     1     -12.790  11.921  70.941  1.00  0.00    -0.384 F  
ENDBRANCH  10  13
TORSDOF 1
ENDMDL
MODEL       59
REMARK 921   NORMALIZED FREE ENERGY PREDICTED BY IDOCK:   -4.63 KCAL/MOL
REMARK 922        TOTAL FREE ENERGY PREDICTED BY IDOCK:   -5.30 KCAL/MOL
REMARK 923 INTER-LIGAND FREE ENERGY PREDICTED BY IDOCK:   -4.96 KCAL/MOL
REMARK 924 INTRA-LIGAND FREE ENERGY PREDICTED BY IDOCK:   -0.34 KCAL/MOL
REMARK 927      BINDING AFFINITY PREDICTED BY RF-SCORE:    0.00 PKD
ROOT
HETATM    1  N   UNL     1     -14.284   8.915  73.234  1.00  0.00    -1.237 NA 
HETATM    2  C   UNL     1     -13.287   9.044  72.344  1.00  0.00    -0.460 A  
HETATM    3  H1  UNL     1     -14.888   9.689  73.510  1.00  0.00     0.000 HD 
HETATM    4  H2  UNL     1     -14.446   8.000  73.653  1.00  0.00     0.000 HD 
HETATM    5  N   UNL     1     -12.513   8.051  71.990  1.00  0.00    -0.318 NA 
HETATM    6  C   UNL     1     -11.612   8.473  71.027  1.00  0.00    -0.279 A  
HETATM    7  C   UNL     1     -11.695   9.820  70.682  1.00  0.00    -0.300 A  
HETATM    8  C   UNL     1     -10.847  10.393  69.721  1.00  0.00    -0.342 A  
HETATM    9  S   UNL     1     -12.953  10.552  71.601  1.00  0.00    -0.470 SA 
HETATM   10  C   UNL     1      -9.886   9.585  69.099  1.00  0.00    -0.176 A  
HETATM   11  C   UNL     1      -9.815   8.228  69.398  1.00  0.00    -0.185 A  
HETATM   12  C   UNL     1     -10.657   7.669  70.373  1.00  0.00    -0.233 A  
ENDROOT
BRANCH  10  13
HETATM   13  O   UNL     1      -9.137  10.232  68.162  1.00  0.00    -0.133 OA 
HETATM   14  C   UNL     1      -9.455  10.097  66.784  1.00  0.00    -0.168 C  
HETATM   15  F   UNL     1     -10.444   9.218  66.525  1.00  0.00    -0.325 F  
HETATM   16  F   UNL     1      -9.802  11.303  66.288  1.00  0.00    -0.214 F  
HETATM   17  F   UNL     1      -8.347   9.677  66.131  1.00  0.00    -0.115 F  
ENDBRANCH  10  13
TORSDOF 1
ENDMDL
MODEL       60
REMARK 921   NORMALIZED FREE ENERGY PREDICTED BY IDOCK:   -4.61 KCAL/MOL
REMARK 922        TOTAL FREE ENERGY PREDICTED BY IDOCK:   -5.28 KCAL/MOL
REMARK 923 INTER-LIGAND FREE ENERGY PREDICTED BY IDOCK:   -4.93 KCAL/MOL
REMARK 924 INTRA-LIGAND FREE ENERGY PREDICTED BY IDOCK:   -0.34 KCAL/MOL
REMARK 927      BINDING AFFINITY PREDICTED BY RF-SCORE:    0.00 PKD
ROOT
HETATM    1  N   UNL     1     -13.097  12.435  64.361  1.00  0.00    -0.811 NA 
HETATM    2  C   UNL     1     -12.330  13.294  65.051  1.00  0.00    -0.448 A  
HETATM    3  H1  UNL     1     -13.440  11.558  64.751  1.00  0.00     0.000 HD 
HETATM    4  H2  UNL     1     -13.348  12.670  63.401  1.00  0.00     0.000 HD 
HETATM    5  N   UNL     1     -11.890  14.419  64.550  1.00  0.00    -0.443 NA 
HETATM    6  C   UNL     1     -11.169  15.113  65.506  1.00  0.00    -0.320 A  
HETATM    7  C   UNL     1     -11.040  14.474  66.737  1.00  0.00    -0.325 A  
HETATM    8  C   UNL     1     -10.337  15.054  67.805  1.00  0.00    -0.245 A  
HETATM    9  S   UNL     1     -11.864  12.965  66.667  1.00  0.00    -0.366 SA 
HETATM   10  C   UNL     1      -9.742  16.310  67.620  1.00  0.00    -0.234 A  
HETATM   11  C   UNL     1      -9.894  16.984  66.413  1.00  0.00    -0.312 A  
HETATM   12  C   UNL     1     -10.586  16.387  65.347  1.00  0.00    -0.338 A  
ENDROOT
BRANCH  10  13
HETATM   13  O   UNL     1      -9.111  16.795  68.726  1.00  0.00    -0.251 OA 
HETATM   14  C   UNL     1      -7.695  16.914  68.739  1.00  0.00    -0.247 C  
HETATM   15  F   UNL     1      -7.085  16.413  67.645  1.00  0.00    -0.119 F  
HETATM   16  F   UNL     1      -7.360  18.214  68.867  1.00  0.00    -0.259 F  
HETATM   17  F   UNL     1      -7.222  16.249  69.817  1.00  0.00    -0.216 F  
ENDBRANCH  10  13
TORSDOF 1
ENDMDL
MODEL       61
REMARK 921   NORMALIZED FREE ENERGY PREDICTED BY IDOCK:   -4.58 KCAL/MOL
REMARK 922        TOTAL FREE ENERGY PREDICTED BY IDOCK:   -5.25 KCAL/MOL
REMARK 923 INTER-LIGAND FREE ENERGY PREDICTED BY IDOCK:   -4.89 KCAL/MOL
REMARK 924 INTRA-LIGAND FREE ENERGY PREDICTED BY IDOCK:   -0.36 KCAL/MOL
REMARK 927      BINDING AFFINITY PREDICTED BY RF-SCORE:    0.00 PKD
ROOT
HETATM    1  N   UNL     1     -10.299   7.793  69.825  1.00  0.00    -0.216 NA 
HETATM    2  C   UNL     1     -10.347   8.726  68.862  1.00  0.00    -0.212 A  
HETATM    3  H1  UNL     1     -10.697   7.930  70.753  1.00  0.00     0.000 HD 
HETATM    4  H2  UNL     1      -9.843   6.904  69.619  1.00  0.00     0.000 HD 
HETATM    5  N   UNL     1      -9.836   8.550  67.670  1.00  0.00    -0.163 NA 
HETATM    6  C   UNL     1     -10.079   9.661  66.881  1.00  0.00    -0.227 A  
HETATM    7  C   UNL     1     -10.756  10.704  67.511  1.00  0.00    -0.272 A  
HETATM    8  C   UNL     1     -11.074  11.895  66.839  1.00  0.00    -0.356 A  
HETATM    9  S   UNL     1     -11.093  10.245  69.135  1.00  0.00    -0.223 SA 
HETATM   10  C   UNL     1     -10.690  12.039  65.499  1.00  0.00    -0.276 A  
HETATM   11  C   UNL     1     -10.050  10.994  64.840  1.00  0.00    -0.359 A  
HETATM   12  C   UNL     1      -9.723   9.814  65.526  1.00  0.00    -0.382 A  
ENDROOT
BRANCH  10  13
HETATM   13  O   UNL     1     -11.073  13.218  64.935  1.00  0.00    -0.306 OA 
HETATM   14  C   UNL     1     -12.401  13.376  64.455  1.00  0.00    -0.360 C  
HETATM   15  F   UNL     1     -13.151  12.256  64.514  1.00  0.00    -0.545 F  
HETATM   16  F   UNL     1     -13.015  14.349  65.161  1.00  0.00    -0.446 F  
HETATM   17  F   UNL     1     -12.343  13.768  63.162  1.00  0.00    -0.545 F  
ENDBRANCH  10  13
TORSDOF 1
ENDMDL
MODEL       62
REMARK 921   NORMALIZED FREE ENERGY PREDICTED BY IDOCK:   -4.57 KCAL/MOL
REMARK 922        TOTAL FREE ENERGY PREDICTED BY IDOCK:   -5.23 KCAL/MOL
REMARK 923 INTER-LIGAND FREE ENERGY PREDICTED BY IDOCK:   -4.99 KCAL/MOL
REMARK 924 INTRA-LIGAND FREE ENERGY PREDICTED BY IDOCK:   -0.25 KCAL/MOL
REMARK 927      BINDING AFFINITY PREDICTED BY RF-SCORE:    0.00 PKD
ROOT
HETATM    1  N   UNL     1     -11.157   9.198  67.668  1.00  0.00    -0.441 NA 
HETATM    2  C   UNL     1     -11.071  10.498  67.343  1.00  0.00    -0.252 A  
HETATM    3  H1  UNL     1     -10.595   8.474  67.220  1.00  0.00     0.000 HD 
HETATM    4  H2  UNL     1     -11.814   8.921  68.397  1.00  0.00     0.000 HD 
HETATM    5  N   UNL     1     -11.792  11.426  67.917  1.00  0.00    -0.632 NA 
HETATM    6  C   UNL     1     -11.454  12.669  67.411  1.00  0.00    -0.337 A  
HETATM    7  C   UNL     1     -10.483  12.662  66.411  1.00  0.00    -0.249 A  
HETATM    8  C   UNL     1     -10.038  13.846  65.802  1.00  0.00    -0.336 A  
HETATM    9  S   UNL     1      -9.993  11.038  66.125  1.00  0.00    -0.240 SA 
HETATM   10  C   UNL     1     -10.593  15.067  66.209  1.00  0.00    -0.307 A  
HETATM   11  C   UNL     1     -11.533  15.100  67.233  1.00  0.00    -0.284 A  
HETATM   12  C   UNL     1     -11.983  13.909  67.824  1.00  0.00    -0.390 A  
ENDROOT
BRANCH  10  13
HETATM   13  O   UNL     1     -10.070  16.155  65.576  1.00  0.00    -0.435 OA 
HETATM   14  C   UNL     1      -9.235  17.056  66.290  1.00  0.00    -0.247 C  
HETATM   15  F   UNL     1      -9.126  16.788  67.607  1.00  0.00    -0.210 F  
HETATM   16  F   UNL     1      -8.002  17.048  65.740  1.00  0.00    -0.313 F  
HETATM   17  F   UNL     1      -9.745  18.302  66.160  1.00  0.00    -0.315 F  
ENDBRANCH  10  13
TORSDOF 1
ENDMDL
MODEL       63
REMARK 921   NORMALIZED FREE ENERGY PREDICTED BY IDOCK:   -4.55 KCAL/MOL
REMARK 922        TOTAL FREE ENERGY PREDICTED BY IDOCK:   -5.21 KCAL/MOL
REMARK 923 INTER-LIGAND FREE ENERGY PREDICTED BY IDOCK:   -4.88 KCAL/MOL
REMARK 924 INTRA-LIGAND FREE ENERGY PREDICTED BY IDOCK:   -0.34 KCAL/MOL
REMARK 927      BINDING AFFINITY PREDICTED BY RF-SCORE:    0.00 PKD
ROOT
HETATM    1  N   UNL     1      -8.147  15.207  69.743  1.00  0.00    -0.373 NA 
HETATM    2  C   UNL     1      -8.597  14.600  68.634  1.00  0.00    -0.172 A  
HETATM    3  H1  UNL     1      -8.210  16.213  69.892  1.00  0.00     0.000 HD 
HETATM    4  H2  UNL     1      -7.721  14.634  70.472  1.00  0.00     0.000 HD 
HETATM    5  N   UNL     1      -8.515  13.308  68.443  1.00  0.00    -0.156 NA 
HETATM    6  C   UNL     1      -9.103  12.969  67.236  1.00  0.00    -0.209 A  
HETATM    7  C   UNL     1      -9.602  14.038  66.495  1.00  0.00    -0.293 A  
HETATM    8  C   UNL     1     -10.225  13.851  65.250  1.00  0.00    -0.366 A  
HETATM    9  S   UNL     1      -9.321  15.496  67.365  1.00  0.00    -0.209 SA 
HETATM   10  C   UNL     1     -10.339  12.551  64.740  1.00  0.00    -0.307 A  
HETATM   11  C   UNL     1      -9.885  11.466  65.483  1.00  0.00    -0.271 A  
HETATM   12  C   UNL     1      -9.249  11.667  66.718  1.00  0.00    -0.190 A  
ENDROOT
BRANCH  10  13
HETATM   13  O   UNL     1     -10.985  12.479  63.542  1.00  0.00    -0.445 OA 
HETATM   14  C   UNL     1     -12.403  12.556  63.496  1.00  0.00    -0.525 C  
HETATM   15  F   UNL     1     -12.998  12.588  64.707  1.00  0.00    -0.557 F  
HETATM   16  F   UNL     1     -12.766  13.656  62.804  1.00  0.00    -0.207 F  
HETATM   17  F   UNL     1     -12.867  11.471  62.835  1.00  0.00    -0.598 F  
ENDBRANCH  10  13
TORSDOF 1
ENDMDL
MODEL       64
REMARK 921   NORMALIZED FREE ENERGY PREDICTED BY IDOCK:   -4.54 KCAL/MOL
REMARK 922        TOTAL FREE ENERGY PREDICTED BY IDOCK:   -5.20 KCAL/MOL
REMARK 923 INTER-LIGAND FREE ENERGY PREDICTED BY IDOCK:   -4.84 KCAL/MOL
REMARK 924 INTRA-LIGAND FREE ENERGY PREDICTED BY IDOCK:   -0.36 KCAL/MOL
REMARK 927      BINDING AFFINITY PREDICTED BY RF-SCORE:    0.00 PKD
ROOT
HETATM    1  N   UNL     1      -9.035   7.509  65.211  1.00  0.00    -0.367 NA 
HETATM    2  C   UNL     1      -9.527   8.198  66.253  1.00  0.00    -0.190 A  
HETATM    3  H1  UNL     1      -8.571   6.606  65.310  1.00  0.00     0.000 HD 
HETATM    4  H2  UNL     1      -9.130   7.906  64.276  1.00  0.00     0.000 HD 
HETATM    5  N   UNL     1     -10.122   9.356  66.126  1.00  0.00    -0.284 NA 
HETATM    6  C   UNL     1     -10.562   9.800  67.361  1.00  0.00    -0.267 A  
HETATM    7  C   UNL     1     -10.257   8.969  68.437  1.00  0.00    -0.201 A  
HETATM    8  C   UNL     1     -10.638   9.287  69.751  1.00  0.00    -0.244 A  
HETATM    9  S   UNL     1      -9.401   7.596  67.852  1.00  0.00    -0.140 SA 
HETATM   10  C   UNL     1     -11.339  10.478  69.982  1.00  0.00    -0.318 A  
HETATM   11  C   UNL     1     -11.690  11.301  68.917  1.00  0.00    -0.409 A  
HETATM   12  C   UNL     1     -11.290  10.982  67.610  1.00  0.00    -0.355 A  
ENDROOT
BRANCH  10  13
HETATM   13  O   UNL     1     -11.686  10.675  71.286  1.00  0.00    -0.261 OA 
HETATM   14  C   UNL     1     -12.986  10.318  71.734  1.00  0.00    -0.469 C  
HETATM   15  F   UNL     1     -13.817   9.901  70.757  1.00  0.00    -0.378 F  
HETATM   16  F   UNL     1     -12.883   9.345  72.663  1.00  0.00    -0.432 F  
HETATM   17  F   UNL     1     -13.546  11.401  72.319  1.00  0.00    -0.521 F  
ENDBRANCH  10  13
TORSDOF 1
ENDMDL
MODEL       65
REMARK 921   NORMALIZED FREE ENERGY PREDICTED BY IDOCK:   -4.54 KCAL/MOL
REMARK 922        TOTAL FREE ENERGY PREDICTED BY IDOCK:   -5.20 KCAL/MOL
REMARK 923 INTER-LIGAND FREE ENERGY PREDICTED BY IDOCK:   -4.83 KCAL/MOL
REMARK 924 INTRA-LIGAND FREE ENERGY PREDICTED BY IDOCK:   -0.37 KCAL/MOL
REMARK 927      BINDING AFFINITY PREDICTED BY RF-SCORE:    0.00 PKD
ROOT
HETATM    1  N   UNL     1     -10.852   6.573  73.671  1.00  0.00    -0.476 NA 
HETATM    2  C   UNL     1     -11.037   7.574  72.796  1.00  0.00    -0.366 A  
HETATM    3  H1  UNL     1      -9.950   6.119  73.816  1.00  0.00     0.000 HD 
HETATM    4  H2  UNL     1     -11.651   6.249  74.216  1.00  0.00     0.000 HD 
HETATM    5  N   UNL     1     -12.194   8.155  72.610  1.00  0.00    -0.291 NA 
HETATM    6  C   UNL     1     -12.066   9.179  71.687  1.00  0.00    -0.362 A  
HETATM    7  C   UNL     1     -10.792   9.341  71.148  1.00  0.00    -0.337 A  
HETATM    8  C   UNL     1     -10.509  10.337  70.200  1.00  0.00    -0.259 A  
HETATM    9  S   UNL     1      -9.742   8.168  71.843  1.00  0.00    -0.229 SA 
HETATM   10  C   UNL     1     -11.542  11.186  69.781  1.00  0.00    -0.334 A  
HETATM   11  C   UNL     1     -12.811  11.069  70.338  1.00  0.00    -0.221 A  
HETATM   12  C   UNL     1     -13.087  10.059  71.273  1.00  0.00    -0.493 A  
ENDROOT
BRANCH  10  13
HETATM   13  O   UNL     1     -11.154  12.135  68.883  1.00  0.00    -0.222 OA 
HETATM   14  C   UNL     1     -11.191  11.850  67.491  1.00  0.00    -0.296 C  
HETATM   15  F   UNL     1     -11.521  10.577  67.193  1.00  0.00    -0.312 F  
HETATM   16  F   UNL     1     -12.070  12.680  66.892  1.00  0.00    -0.433 F  
HETATM   17  F   UNL     1      -9.965  12.092  66.975  1.00  0.00    -0.199 F  
ENDBRANCH  10  13
TORSDOF 1
ENDMDL
MODEL       66
REMARK 921   NORMALIZED FREE ENERGY PREDICTED BY IDOCK:   -4.51 KCAL/MOL
REMARK 922        TOTAL FREE ENERGY PREDICTED BY IDOCK:   -5.17 KCAL/MOL
REMARK 923 INTER-LIGAND FREE ENERGY PREDICTED BY IDOCK:   -4.78 KCAL/MOL
REMARK 924 INTRA-LIGAND FREE ENERGY PREDICTED BY IDOCK:   -0.39 KCAL/MOL
REMARK 927      BINDING AFFINITY PREDICTED BY RF-SCORE:    0.00 PKD
ROOT
HETATM    1  N   UNL     1      -9.804   9.314  65.614  1.00  0.00    -0.441 NA 
HETATM    2  C   UNL     1     -10.233  10.336  66.370  1.00  0.00    -0.225 A  
HETATM    3  H1  UNL     1      -9.772   8.350  65.946  1.00  0.00     0.000 HD 
HETATM    4  H2  UNL     1      -9.496   9.509  64.661  1.00  0.00     0.000 HD 
HETATM    5  N   UNL     1     -10.274  11.572  65.943  1.00  0.00    -0.235 NA 
HETATM    6  C   UNL     1     -10.802  12.395  66.923  1.00  0.00    -0.251 A  
HETATM    7  C   UNL     1     -11.130  11.762  68.120  1.00  0.00    -0.243 A  
HETATM    8  C   UNL     1     -11.675  12.466  69.206  1.00  0.00    -0.386 A  
HETATM    9  S   UNL     1     -10.762  10.087  67.980  1.00  0.00    -0.256 SA 
HETATM   10  C   UNL     1     -11.887  13.845  69.080  1.00  0.00    -0.358 A  
HETATM   11  C   UNL     1     -11.606  14.488  67.880  1.00  0.00    -0.371 A  
HETATM   12  C   UNL     1     -11.046  13.778  66.806  1.00  0.00    -0.316 A  
ENDROOT
BRANCH  10  13
HETATM   13  O   UNL     1     -12.447  14.424  70.180  1.00  0.00    -0.342 OA 
HETATM   14  C   UNL     1     -11.639  15.182  71.070  1.00  0.00    -0.347 C  
HETATM   15  F   UNL     1     -10.321  15.161  70.780  1.00  0.00    -0.241 F  
HETATM   16  F   UNL     1     -12.064  16.462  71.074  1.00  0.00    -0.377 F  
HETATM   17  F   UNL     1     -11.796  14.682  72.317  1.00  0.00    -0.390 F  
ENDBRANCH  10  13
TORSDOF 1
ENDMDL
MODEL       67
REMARK 921   NORMALIZED FREE ENERGY PREDICTED BY IDOCK:   -4.50 KCAL/MOL
REMARK 922        TOTAL FREE ENERGY PREDICTED BY IDOCK:   -5.16 KCAL/MOL
REMARK 923 INTER-LIGAND FREE ENERGY PREDICTED BY IDOCK:   -4.78 KCAL/MOL
REMARK 924 INTRA-LIGAND FREE ENERGY PREDICTED BY IDOCK:   -0.38 KCAL/MOL
REMARK 927      BINDING AFFINITY PREDICTED BY RF-SCORE:    0.00 PKD
ROOT
HETATM    1  N   UNL     1      -7.156  18.111  68.904  1.00  0.00    -0.280 NA 
HETATM    2  C   UNL     1      -7.800  17.128  68.256  1.00  0.00    -0.227 A  
HETATM    3  H1  UNL     1      -6.946  19.014  68.480  1.00  0.00     0.000 HD 
HETATM    4  H2  UNL     1      -6.861  17.947  69.867  1.00  0.00     0.000 HD 
HETATM    5  N   UNL     1      -8.069  15.970  68.801  1.00  0.00    -0.198 NA 
HETATM    6  C   UNL     1      -8.779  15.182  67.912  1.00  0.00    -0.157 A  
HETATM    7  C   UNL     1      -9.015  15.754  66.663  1.00  0.00    -0.280 A  
HETATM    8  C   UNL     1      -9.722  15.076  65.658  1.00  0.00    -0.344 A  
HETATM    9  S   UNL     1      -8.322  17.329  66.636  1.00  0.00    -0.278 SA 
HETATM   10  C   UNL     1     -10.197  13.783  65.919  1.00  0.00    -0.313 A  
HETATM   11  C   UNL     1     -10.008  13.210  67.172  1.00  0.00    -0.236 A  
HETATM   12  C   UNL     1      -9.286  13.891  68.165  1.00  0.00    -0.202 A  
ENDROOT
BRANCH  10  13
HETATM   13  O   UNL     1     -10.894  13.228  64.888  1.00  0.00    -0.311 OA 
HETATM   14  C   UNL     1     -12.288  13.473  64.763  1.00  0.00    -0.392 C  
HETATM   15  F   UNL     1     -12.823  14.176  65.782  1.00  0.00    -0.508 F  
HETATM   16  F   UNL     1     -12.520  14.134  63.609  1.00  0.00    -0.495 F  
HETATM   17  F   UNL     1     -12.926  12.282  64.701  1.00  0.00    -0.555 F  
ENDBRANCH  10  13
TORSDOF 1
ENDMDL
MODEL       68
REMARK 921   NORMALIZED FREE ENERGY PREDICTED BY IDOCK:   -4.46 KCAL/MOL
REMARK 922        TOTAL FREE ENERGY PREDICTED BY IDOCK:   -5.12 KCAL/MOL
REMARK 923 INTER-LIGAND FREE ENERGY PREDICTED BY IDOCK:   -4.77 KCAL/MOL
REMARK 924 INTRA-LIGAND FREE ENERGY PREDICTED BY IDOCK:   -0.35 KCAL/MOL
REMARK 927      BINDING AFFINITY PREDICTED BY RF-SCORE:    0.00 PKD
ROOT
HETATM    1  N   UNL     1     -10.969   7.978  72.696  1.00  0.00    -0.362 NA 
HETATM    2  C   UNL     1     -11.040   8.699  71.567  1.00  0.00    -0.288 A  
HETATM    3  H1  UNL     1     -11.523   8.186  73.526  1.00  0.00     0.000 HD 
HETATM    4  H2  UNL     1     -10.330   7.183  72.726  1.00  0.00     0.000 HD 
HETATM    5  N   UNL     1     -10.329   8.432  70.502  1.00  0.00    -0.196 NA 
HETATM    6  C   UNL     1     -10.649   9.314  69.484  1.00  0.00    -0.224 A  
HETATM    7  C   UNL     1     -11.596  10.282  69.810  1.00  0.00    -0.227 A  
HETATM    8  C   UNL     1     -12.022  11.246  68.882  1.00  0.00    -0.378 A  
HETATM    9  S   UNL     1     -12.087  10.051  71.443  1.00  0.00    -0.400 SA 
HETATM   10  C   UNL     1     -11.471  11.233  67.593  1.00  0.00    -0.264 A  
HETATM   11  C   UNL     1     -10.556  10.250  67.234  1.00  0.00    -0.324 A  
HETATM   12  C   UNL     1     -10.125   9.301  68.176  1.00  0.00    -0.222 A  
ENDROOT
BRANCH  10  13
HETATM   13  O   UNL     1     -11.974  12.190  66.764  1.00  0.00    -0.606 OA 
HETATM   14  C   UNL     1     -11.405  13.493  66.757  1.00  0.00    -0.328 C  
HETATM   15  F   UNL     1     -10.451  13.688  67.691  1.00  0.00    -0.231 F  
HETATM   16  F   UNL     1     -10.880  13.742  65.540  1.00  0.00    -0.283 F  
HETATM   17  F   UNL     1     -12.393  14.389  66.981  1.00  0.00    -0.435 F  
ENDBRANCH  10  13
TORSDOF 1
ENDMDL
MODEL       69
REMARK 921   NORMALIZED FREE ENERGY PREDICTED BY IDOCK:   -4.44 KCAL/MOL
REMARK 922        TOTAL FREE ENERGY PREDICTED BY IDOCK:   -5.10 KCAL/MOL
REMARK 923 INTER-LIGAND FREE ENERGY PREDICTED BY IDOCK:   -4.77 KCAL/MOL
REMARK 924 INTRA-LIGAND FREE ENERGY PREDICTED BY IDOCK:   -0.33 KCAL/MOL
REMARK 927      BINDING AFFINITY PREDICTED BY RF-SCORE:    0.00 PKD
ROOT
HETATM    1  N   UNL     1      -8.097  10.109  70.233  1.00  0.00    -0.403 NA 
HETATM    2  C   UNL     1      -8.810  10.763  69.302  1.00  0.00    -0.023 A  
HETATM    3  H1  UNL     1      -8.396   9.226  70.645  1.00  0.00     0.000 HD 
HETATM    4  H2  UNL     1      -7.214  10.514  70.542  1.00  0.00     0.000 HD 
HETATM    5  N   UNL     1      -8.426  11.896  68.774  1.00  0.00    -0.032 NA 
HETATM    6  C   UNL     1      -9.337  12.304  67.815  1.00  0.00    -0.194 A  
HETATM    7  C   UNL     1     -10.443  11.473  67.650  1.00  0.00    -0.189 A  
HETATM    8  C   UNL     1     -11.451  11.757  66.715  1.00  0.00    -0.352 A  
HETATM    9  S   UNL     1     -10.305  10.146  68.736  1.00  0.00    -0.207 SA 
HETATM   10  C   UNL     1     -11.342  12.914  65.932  1.00  0.00    -0.312 A  
HETATM   11  C   UNL     1     -10.225  13.735  66.051  1.00  0.00    -0.315 A  
HETATM   12  C   UNL     1      -9.231  13.450  67.001  1.00  0.00    -0.242 A  
ENDROOT
BRANCH  10  13
HETATM   13  O   UNL     1     -12.357  13.079  65.038  1.00  0.00    -0.422 OA 
HETATM   14  C   UNL     1     -12.159  12.741  63.672  1.00  0.00    -0.543 C  
HETATM   15  F   UNL     1     -10.897  12.376  63.366  1.00  0.00    -0.426 F  
HETATM   16  F   UNL     1     -12.996  11.737  63.337  1.00  0.00    -0.680 F  
HETATM   17  F   UNL     1     -12.472  13.819  62.918  1.00  0.00    -0.426 F  
ENDBRANCH  10  13
TORSDOF 1
ENDMDL
MODEL       70
REMARK 921   NORMALIZED FREE ENERGY PREDICTED BY IDOCK:   -4.44 KCAL/MOL
REMARK 922        TOTAL FREE ENERGY PREDICTED BY IDOCK:   -5.10 KCAL/MOL
REMARK 923 INTER-LIGAND FREE ENERGY PREDICTED BY IDOCK:   -5.53 KCAL/MOL
REMARK 924 INTRA-LIGAND FREE ENERGY PREDICTED BY IDOCK:    0.44 KCAL/MOL
REMARK 927      BINDING AFFINITY PREDICTED BY RF-SCORE:    0.00 PKD
ROOT
HETATM    1  N   UNL     1     -11.174  16.639  68.419  1.00  0.00    -0.316 NA 
HETATM    2  C   UNL     1     -11.546  15.476  68.977  1.00  0.00    -0.365 A  
HETATM    3  H1  UNL     1     -11.286  17.540  68.883  1.00  0.00     0.000 HD 
HETATM    4  H2  UNL     1     -10.759  16.621  67.488  1.00  0.00     0.000 HD 
HETATM    5  N   UNL     1     -11.402  14.320  68.381  1.00  0.00    -0.268 NA 
HETATM    6  C   UNL     1     -11.829  13.301  69.215  1.00  0.00    -0.331 A  
HETATM    7  C   UNL     1     -12.336  13.711  70.446  1.00  0.00    -0.345 A  
HETATM    8  C   UNL     1     -12.808  12.792  71.397  1.00  0.00    -0.371 A  
HETATM    9  S   UNL     1     -12.253  15.427  70.537  1.00  0.00    -0.422 SA 
HETATM   10  C   UNL     1     -12.773  11.424  71.091  1.00  0.00    -0.377 A  
HETATM   11  C   UNL     1     -12.232  10.992  69.885  1.00  0.00    -0.408 A  
HETATM   12  C   UNL     1     -11.779  11.921  68.935  1.00  0.00    -0.381 A  
ENDROOT
BRANCH  10  13
HETATM   13  O   UNL     1     -13.225  10.619  72.093  1.00  0.00    -0.464 OA 
HETATM   14  C   UNL     1     -13.111   9.207  71.974  1.00  0.00    -0.429 C  
HETATM   15  F   UNL     1     -12.641   8.786  70.781  1.00  0.00    -0.206 F  
HETATM   16  F   UNL     1     -12.302   8.744  72.949  1.00  0.00    -0.409 F  
HETATM   17  F   UNL     1     -14.337   8.665  72.151  1.00  0.00    -0.442 F  
ENDBRANCH  10  13
TORSDOF 1
ENDMDL
MODEL       71
REMARK 921   NORMALIZED FREE ENERGY PREDICTED BY IDOCK:   -4.44 KCAL/MOL
REMARK 922        TOTAL FREE ENERGY PREDICTED BY IDOCK:   -5.10 KCAL/MOL
REMARK 923 INTER-LIGAND FREE ENERGY PREDICTED BY IDOCK:   -4.70 KCAL/MOL
REMARK 924 INTRA-LIGAND FREE ENERGY PREDICTED BY IDOCK:   -0.40 KCAL/MOL
REMARK 927      BINDING AFFINITY PREDICTED BY RF-SCORE:    0.00 PKD
ROOT
HETATM    1  N   UNL     1     -12.391   8.262  72.864  1.00  0.00    -0.631 NA 
HETATM    2  C   UNL     1     -12.004   9.126  71.912  1.00  0.00    -0.373 A  
HETATM    3  H1  UNL     1     -13.270   8.351  73.373  1.00  0.00     0.000 HD 
HETATM    4  H2  UNL     1     -11.777   7.480  73.089  1.00  0.00     0.000 HD 
HETATM    5  N   UNL     1     -10.876   9.012  71.260  1.00  0.00    -0.286 NA 
HETATM    6  C   UNL     1     -10.773  10.016  70.312  1.00  0.00    -0.309 A  
HETATM    7  C   UNL     1     -11.834  10.920  70.283  1.00  0.00    -0.361 A  
HETATM    8  C   UNL     1     -11.870  11.991  69.377  1.00  0.00    -0.384 A  
HETATM    9  S   UNL     1     -12.981  10.467  71.482  1.00  0.00    -0.473 SA 
HETATM   10  C   UNL     1     -10.803  12.157  68.482  1.00  0.00    -0.236 A  
HETATM   11  C   UNL     1      -9.756  11.243  68.467  1.00  0.00    -0.199 A  
HETATM   12  C   UNL     1      -9.722  10.184  69.389  1.00  0.00    -0.247 A  
ENDROOT
BRANCH  10  13
HETATM   13  O   UNL     1     -10.953  13.209  67.628  1.00  0.00    -0.251 OA 
HETATM   14  C   UNL     1     -10.379  14.469  67.948  1.00  0.00    -0.231 C  
HETATM   15  F   UNL     1      -9.811  14.527  69.170  1.00  0.00    -0.213 F  
HETATM   16  F   UNL     1      -9.451  14.783  67.021  1.00  0.00    -0.204 F  
HETATM   17  F   UNL     1     -11.355  15.404  67.901  1.00  0.00    -0.302 F  
ENDBRANCH  10  13
TORSDOF 1
ENDMDL
MODEL       72
REMARK 921   NORMALIZED FREE ENERGY PREDICTED BY IDOCK:   -4.43 KCAL/MOL
REMARK 922        TOTAL FREE ENERGY PREDICTED BY IDOCK:   -5.09 KCAL/MOL
REMARK 923 INTER-LIGAND FREE ENERGY PREDICTED BY IDOCK:   -4.70 KCAL/MOL
REMARK 924 INTRA-LIGAND FREE ENERGY PREDICTED BY IDOCK:   -0.39 KCAL/MOL
REMARK 927      BINDING AFFINITY PREDICTED BY RF-SCORE:    0.00 PKD
ROOT
HETATM    1  N   UNL     1      -9.175   7.618  66.049  1.00  0.00    -0.355 NA 
HETATM    2  C   UNL     1      -9.541   8.892  65.839  1.00  0.00    -0.223 A  
HETATM    3  H1  UNL     1      -9.193   7.178  66.969  1.00  0.00     0.000 HD 
HETATM    4  H2  UNL     1      -8.863   7.063  65.252  1.00  0.00     0.000 HD 
HETATM    5  N   UNL     1      -9.518   9.456  64.659  1.00  0.00    -0.077 NA 
HETATM    6  C   UNL     1      -9.993  10.753  64.745  1.00  0.00    -0.320 A  
HETATM    7  C   UNL     1     -10.347  11.176  66.025  1.00  0.00    -0.254 A  
HETATM    8  C   UNL     1     -10.845  12.466  66.269  1.00  0.00    -0.299 A  
HETATM    9  S   UNL     1     -10.072   9.886  67.130  1.00  0.00    -0.228 SA 
HETATM   10  C   UNL     1     -10.982  13.353  65.192  1.00  0.00    -0.303 A  
HETATM   11  C   UNL     1     -10.675  12.937  63.901  1.00  0.00    -0.390 A  
HETATM   12  C   UNL     1     -10.162  11.651  63.671  1.00  0.00    -0.451 A  
ENDROOT
BRANCH  10  13
HETATM   13  O   UNL     1     -11.501  14.565  65.534  1.00  0.00    -0.332 OA 
HETATM   14  C   UNL     1     -10.649  15.698  65.633  1.00  0.00    -0.378 C  
HETATM   15  F   UNL     1      -9.338  15.424  65.475  1.00  0.00    -0.340 F  
HETATM   16  F   UNL     1     -11.017  16.612  64.711  1.00  0.00    -0.425 F  
HETATM   17  F   UNL     1     -10.812  16.248  66.858  1.00  0.00    -0.320 F  
ENDBRANCH  10  13
TORSDOF 1
ENDMDL
MODEL       73
REMARK 921   NORMALIZED FREE ENERGY PREDICTED BY IDOCK:   -4.42 KCAL/MOL
REMARK 922        TOTAL FREE ENERGY PREDICTED BY IDOCK:   -5.07 KCAL/MOL
REMARK 923 INTER-LIGAND FREE ENERGY PREDICTED BY IDOCK:   -4.69 KCAL/MOL
REMARK 924 INTRA-LIGAND FREE ENERGY PREDICTED BY IDOCK:   -0.38 KCAL/MOL
REMARK 927      BINDING AFFINITY PREDICTED BY RF-SCORE:    0.00 PKD
ROOT
HETATM    1  N   UNL     1     -12.881   7.111  72.063  1.00  0.00    -0.518 NA 
HETATM    2  C   UNL     1     -12.391   8.169  71.398  1.00  0.00    -0.298 A  
HETATM    3  H1  UNL     1     -13.723   7.156  72.637  1.00  0.00     0.000 HD 
HETATM    4  H2  UNL     1     -12.389   6.221  71.991  1.00  0.00     0.000 HD 
HETATM    5  N   UNL     1     -11.311   8.111  70.661  1.00  0.00    -0.267 NA 
HETATM    6  C   UNL     1     -11.079   9.339  70.064  1.00  0.00    -0.205 A  
HETATM    7  C   UNL     1     -11.988  10.343  70.392  1.00  0.00    -0.320 A  
HETATM    8  C   UNL     1     -11.883  11.640  69.864  1.00  0.00    -0.434 A  
HETATM    9  S   UNL     1     -13.161   9.698  71.474  1.00  0.00    -0.422 SA 
HETATM   10  C   UNL     1     -10.827  11.930  68.989  1.00  0.00    -0.190 A  
HETATM   11  C   UNL     1      -9.933  10.932  68.617  1.00  0.00    -0.196 A  
HETATM   12  C   UNL     1     -10.039   9.643  69.163  1.00  0.00    -0.196 A  
ENDROOT
BRANCH  10  13
HETATM   13  O   UNL     1     -10.835  13.207  68.513  1.00  0.00    -0.246 OA 
HETATM   14  C   UNL     1     -11.494  13.503  67.290  1.00  0.00    -0.339 C  
HETATM   15  F   UNL     1     -11.976  12.422  66.642  1.00  0.00    -0.433 F  
HETATM   16  F   UNL     1     -12.511  14.356  67.529  1.00  0.00    -0.353 F  
HETATM   17  F   UNL     1     -10.613  14.118  66.469  1.00  0.00    -0.274 F  
ENDBRANCH  10  13
TORSDOF 1
ENDMDL
MODEL       74
REMARK 921   NORMALIZED FREE ENERGY PREDICTED BY IDOCK:   -4.41 KCAL/MOL
REMARK 922        TOTAL FREE ENERGY PREDICTED BY IDOCK:   -5.07 KCAL/MOL
REMARK 923 INTER-LIGAND FREE ENERGY PREDICTED BY IDOCK:   -4.72 KCAL/MOL
REMARK 924 INTRA-LIGAND FREE ENERGY PREDICTED BY IDOCK:   -0.35 KCAL/MOL
REMARK 927      BINDING AFFINITY PREDICTED BY RF-SCORE:    0.00 PKD
ROOT
HETATM    1  N   UNL     1      -7.741   6.186  65.627  1.00  0.00    -0.088 NA 
HETATM    2  C   UNL     1      -8.251   7.379  65.287  1.00  0.00    -0.127 A  
HETATM    3  H1  UNL     1      -7.876   5.763  66.545  1.00  0.00     0.000 HD 
HETATM    4  H2  UNL     1      -7.192   5.676  64.935  1.00  0.00     0.000 HD 
HETATM    5  N   UNL     1      -8.078   7.921  64.109  1.00  0.00    -0.128 NA 
HETATM    6  C   UNL     1      -8.757   9.125  64.036  1.00  0.00    -0.137 A  
HETATM    7  C   UNL     1      -9.424   9.505  65.199  1.00  0.00    -0.236 A  
HETATM    8  C   UNL     1     -10.156  10.701  65.277  1.00  0.00    -0.363 A  
HETATM    9  S   UNL     1      -9.181   8.295  66.398  1.00  0.00    -0.205 SA 
HETATM   10  C   UNL     1     -10.209  11.536  64.153  1.00  0.00    -0.325 A  
HETATM   11  C   UNL     1      -9.586  11.155  62.969  1.00  0.00    -0.389 A  
HETATM   12  C   UNL     1      -8.843   9.965  62.907  1.00  0.00    -0.248 A  
ENDROOT
BRANCH  10  13
HETATM   13  O   UNL     1     -10.969  12.654  64.326  1.00  0.00    -0.319 OA 
HETATM   14  C   UNL     1     -12.304  12.685  63.838  1.00  0.00    -0.459 C  
HETATM   15  F   UNL     1     -12.663  11.595  63.129  1.00  0.00    -0.696 F  
HETATM   16  F   UNL     1     -13.153  12.827  64.877  1.00  0.00    -0.515 F  
HETATM   17  F   UNL     1     -12.438  13.765  63.035  1.00  0.00    -0.485 F  
ENDBRANCH  10  13
TORSDOF 1
ENDMDL
MODEL       75
REMARK 921   NORMALIZED FREE ENERGY PREDICTED BY IDOCK:   -4.38 KCAL/MOL
REMARK 922        TOTAL FREE ENERGY PREDICTED BY IDOCK:   -5.03 KCAL/MOL
REMARK 923 INTER-LIGAND FREE ENERGY PREDICTED BY IDOCK:   -4.73 KCAL/MOL
REMARK 924 INTRA-LIGAND FREE ENERGY PREDICTED BY IDOCK:   -0.30 KCAL/MOL
REMARK 927      BINDING AFFINITY PREDICTED BY RF-SCORE:    0.00 PKD
ROOT
HETATM    1  N   UNL     1      -7.252  11.435  69.902  1.00  0.00    -0.367 NA 
HETATM    2  C   UNL     1      -7.872  11.446  68.711  1.00  0.00    -0.128 A  
HETATM    3  H1  UNL     1      -7.117  12.273  70.467  1.00  0.00     0.000 HD 
HETATM    4  H2  UNL     1      -6.899  10.547  70.258  1.00  0.00     0.000 HD 
HETATM    5  N   UNL     1      -8.045  10.371  67.986  1.00  0.00    -0.109 NA 
HETATM    6  C   UNL     1      -8.754  10.682  66.839  1.00  0.00    -0.132 A  
HETATM    7  C   UNL     1      -9.087  12.027  66.690  1.00  0.00    -0.205 A  
HETATM    8  C   UNL     1      -9.805  12.495  65.578  1.00  0.00    -0.197 A  
HETATM    9  S   UNL     1      -8.488  12.900  68.046  1.00  0.00    -0.186 SA 
HETATM   10  C   UNL     1     -10.190  11.580  64.588  1.00  0.00    -0.285 A  
HETATM   11  C   UNL     1      -9.904  10.228  64.738  1.00  0.00    -0.403 A  
HETATM   12  C   UNL     1      -9.171   9.773  65.846  1.00  0.00    -0.236 A  
ENDROOT
BRANCH  10  13
HETATM   13  O   UNL     1     -10.907  12.133  63.569  1.00  0.00    -0.412 OA 
HETATM   14  C   UNL     1     -12.263  12.505  63.777  1.00  0.00    -0.525 C  
HETATM   15  F   UNL     1     -12.755  12.161  64.985  1.00  0.00    -0.442 F  
HETATM   16  F   UNL     1     -12.385  13.840  63.621  1.00  0.00    -0.505 F  
HETATM   17  F   UNL     1     -13.020  11.900  62.834  1.00  0.00    -0.600 F  
ENDBRANCH  10  13
TORSDOF 1
ENDMDL
MODEL       76
REMARK 921   NORMALIZED FREE ENERGY PREDICTED BY IDOCK:   -4.37 KCAL/MOL
REMARK 922        TOTAL FREE ENERGY PREDICTED BY IDOCK:   -5.02 KCAL/MOL
REMARK 923 INTER-LIGAND FREE ENERGY PREDICTED BY IDOCK:   -4.87 KCAL/MOL
REMARK 924 INTRA-LIGAND FREE ENERGY PREDICTED BY IDOCK:   -0.15 KCAL/MOL
REMARK 927      BINDING AFFINITY PREDICTED BY RF-SCORE:    0.00 PKD
ROOT
HETATM    1  N   UNL     1     -11.143   6.760  73.318  1.00  0.00    -0.503 NA 
HETATM    2  C   UNL     1     -11.342   7.832  72.536  1.00  0.00    -0.374 A  
HETATM    3  H1  UNL     1     -10.372   6.106  73.182  1.00  0.00     0.000 HD 
HETATM    4  H2  UNL     1     -11.794   6.590  74.085  1.00  0.00     0.000 HD 
HETATM    5  N   UNL     1     -12.331   8.670  72.710  1.00  0.00    -0.243 NA 
HETATM    6  C   UNL     1     -12.250   9.697  71.785  1.00  0.00    -0.384 A  
HETATM    7  C   UNL     1     -11.197   9.601  70.878  1.00  0.00    -0.352 A  
HETATM    8  C   UNL     1     -10.987  10.567  69.881  1.00  0.00    -0.359 A  
HETATM    9  S   UNL     1     -10.293   8.179  71.225  1.00  0.00    -0.205 SA 
HETATM   10  C   UNL     1     -11.869  11.653  69.794  1.00  0.00    -0.357 A  
HETATM   11  C   UNL     1     -12.901  11.789  70.716  1.00  0.00    -0.164 A  
HETATM   12  C   UNL     1     -13.112  10.809  71.698  1.00  0.00    -0.551 A  
ENDROOT
BRANCH  10  13
HETATM   13  O   UNL     1     -11.557  12.546  68.813  1.00  0.00    -0.275 OA 
HETATM   14  C   UNL     1     -11.227  13.886  69.152  1.00  0.00    -0.269 C  
HETATM   15  F   UNL     1     -11.365  14.178  70.462  1.00  0.00    -0.273 F  
HETATM   16  F   UNL     1      -9.954  14.136  68.782  1.00  0.00    -0.220 F  
HETATM   17  F   UNL     1     -12.038  14.713  68.456  1.00  0.00    -0.340 F  
ENDBRANCH  10  13
TORSDOF 1
ENDMDL
MODEL       77
REMARK 921   NORMALIZED FREE ENERGY PREDICTED BY IDOCK:   -4.33 KCAL/MOL
REMARK 922        TOTAL FREE ENERGY PREDICTED BY IDOCK:   -4.98 KCAL/MOL
REMARK 923 INTER-LIGAND FREE ENERGY PREDICTED BY IDOCK:   -4.66 KCAL/MOL
REMARK 924 INTRA-LIGAND FREE ENERGY PREDICTED BY IDOCK:   -0.32 KCAL/MOL
REMARK 927      BINDING AFFINITY PREDICTED BY RF-SCORE:    0.00 PKD
ROOT
HETATM    1  N   UNL     1     -11.571   6.918  72.903  1.00  0.00    -0.509 NA 
HETATM    2  C   UNL     1     -11.599   8.091  72.251  1.00  0.00    -0.366 A  
HETATM    3  H1  UNL     1     -12.317   6.610  73.527  1.00  0.00     0.000 HD 
HETATM    4  H2  UNL     1     -10.767   6.305  72.768  1.00  0.00     0.000 HD 
HETATM    5  N   UNL     1     -10.642   8.486  71.451  1.00  0.00    -0.227 NA 
HETATM    6  C   UNL     1     -10.969   9.708  70.889  1.00  0.00    -0.342 A  
HETATM    7  C   UNL     1     -12.181  10.252  71.308  1.00  0.00    -0.395 A  
HETATM    8  C   UNL     1     -12.646  11.486  70.825  1.00  0.00    -0.390 A  
HETATM    9  S   UNL     1     -12.914   9.175  72.431  1.00  0.00    -0.357 SA 
HETATM   10  C   UNL     1     -11.862  12.191  69.902  1.00  0.00    -0.319 A  
HETATM   11  C   UNL     1     -10.669  11.646  69.439  1.00  0.00    -0.080 A  
HETATM   12  C   UNL     1     -10.206  10.419  69.940  1.00  0.00    -0.190 A  
ENDROOT
BRANCH  10  13
HETATM   13  O   UNL     1     -12.419  13.360  69.476  1.00  0.00    -0.175 OA 
HETATM   14  C   UNL     1     -12.276  14.538  70.258  1.00  0.00    -0.330 C  
HETATM   15  F   UNL     1     -11.667  14.347  71.446  1.00  0.00    -0.369 F  
HETATM   16  F   UNL     1     -11.581  15.455  69.555  1.00  0.00    -0.254 F  
HETATM   17  F   UNL     1     -13.509  15.039  70.500  1.00  0.00    -0.353 F  
ENDBRANCH  10  13
TORSDOF 1
ENDMDL
MODEL       78
REMARK 921   NORMALIZED FREE ENERGY PREDICTED BY IDOCK:   -4.31 KCAL/MOL
REMARK 922        TOTAL FREE ENERGY PREDICTED BY IDOCK:   -4.96 KCAL/MOL
REMARK 923 INTER-LIGAND FREE ENERGY PREDICTED BY IDOCK:   -4.57 KCAL/MOL
REMARK 924 INTRA-LIGAND FREE ENERGY PREDICTED BY IDOCK:   -0.40 KCAL/MOL
REMARK 927      BINDING AFFINITY PREDICTED BY RF-SCORE:    0.00 PKD
ROOT
HETATM    1  N   UNL     1      -8.623   7.610  65.743  1.00  0.00    -0.158 NA 
HETATM    2  C   UNL     1      -9.312   7.755  66.885  1.00  0.00    -0.169 A  
HETATM    3  H1  UNL     1      -8.122   8.376  65.293  1.00  0.00     0.000 HD 
HETATM    4  H2  UNL     1      -8.598   6.690  65.302  1.00  0.00     0.000 HD 
HETATM    5  N   UNL     1      -9.955   6.772  67.461  1.00  0.00    -0.133 NA 
HETATM    6  C   UNL     1     -10.529   7.209  68.642  1.00  0.00    -0.197 A  
HETATM    7  C   UNL     1     -10.338   8.558  68.935  1.00  0.00    -0.210 A  
HETATM    8  C   UNL     1     -10.861   9.146  70.098  1.00  0.00    -0.269 A  
HETATM    9  S   UNL     1      -9.401   9.271  67.680  1.00  0.00    -0.128 SA 
HETATM   10  C   UNL     1     -11.601   8.351  70.984  1.00  0.00    -0.275 A  
HETATM   11  C   UNL     1     -11.767   6.994  70.732  1.00  0.00    -0.394 A  
HETATM   12  C   UNL     1     -11.254   6.420  69.557  1.00  0.00    -0.477 A  
ENDROOT
BRANCH  10  13
HETATM   13  O   UNL     1     -12.036   9.012  72.093  1.00  0.00    -0.363 OA 
HETATM   14  C   UNL     1     -13.339   9.579  72.114  1.00  0.00    -0.461 C  
HETATM   15  F   UNL     1     -14.002   9.493  70.943  1.00  0.00    -0.363 F  
HETATM   16  F   UNL     1     -14.070   8.975  73.075  1.00  0.00    -0.432 F  
HETATM   17  F   UNL     1     -13.228  10.889  72.432  1.00  0.00    -0.538 F  
ENDBRANCH  10  13
TORSDOF 1
ENDMDL
MODEL       79
REMARK 921   NORMALIZED FREE ENERGY PREDICTED BY IDOCK:   -4.30 KCAL/MOL
REMARK 922        TOTAL FREE ENERGY PREDICTED BY IDOCK:   -4.95 KCAL/MOL
REMARK 923 INTER-LIGAND FREE ENERGY PREDICTED BY IDOCK:   -4.69 KCAL/MOL
REMARK 924 INTRA-LIGAND FREE ENERGY PREDICTED BY IDOCK:   -0.26 KCAL/MOL
REMARK 927      BINDING AFFINITY PREDICTED BY RF-SCORE:    0.00 PKD
ROOT
HETATM    1  N   UNL     1      -8.744  19.377  68.263  1.00  0.00    -0.325 NA 
HETATM    2  C   UNL     1      -9.359  18.331  67.690  1.00  0.00    -0.267 A  
HETATM    3  H1  UNL     1      -8.458  19.388  69.242  1.00  0.00     0.000 HD 
HETATM    4  H2  UNL     1      -8.553  20.201  67.693  1.00  0.00     0.000 HD 
HETATM    5  N   UNL     1      -9.726  18.318  66.435  1.00  0.00    -0.370 NA 
HETATM    6  C   UNL     1     -10.289  17.093  66.118  1.00  0.00    -0.322 A  
HETATM    7  C   UNL     1     -10.375  16.186  67.173  1.00  0.00    -0.291 A  
HETATM    8  C   UNL     1     -10.923  14.904  67.005  1.00  0.00    -0.327 A  
HETATM    9  S   UNL     1      -9.716  16.914  68.586  1.00  0.00    -0.276 SA 
HETATM   10  C   UNL     1     -11.402  14.533  65.741  1.00  0.00    -0.336 A  
HETATM   11  C   UNL     1     -11.287  15.408  64.666  1.00  0.00    -0.361 A  
HETATM   12  C   UNL     1     -10.753  16.694  64.849  1.00  0.00    -0.102 A  
ENDROOT
BRANCH  10  13
HETATM   13  O   UNL     1     -11.885  13.260  65.681  1.00  0.00    -0.344 OA 
HETATM   14  C   UNL     1     -11.151  12.256  64.993  1.00  0.00    -0.316 C  
HETATM   15  F   UNL     1     -10.055  12.710  64.351  1.00  0.00    -0.313 F  
HETATM   16  F   UNL     1     -10.778  11.301  65.869  1.00  0.00    -0.299 F  
HETATM   17  F   UNL     1     -11.965  11.689  64.074  1.00  0.00    -0.437 F  
ENDBRANCH  10  13
TORSDOF 1
ENDMDL
MODEL       80
REMARK 921   NORMALIZED FREE ENERGY PREDICTED BY IDOCK:   -4.29 KCAL/MOL
REMARK 922        TOTAL FREE ENERGY PREDICTED BY IDOCK:   -4.94 KCAL/MOL
REMARK 923 INTER-LIGAND FREE ENERGY PREDICTED BY IDOCK:   -4.56 KCAL/MOL
REMARK 924 INTRA-LIGAND FREE ENERGY PREDICTED BY IDOCK:   -0.37 KCAL/MOL
REMARK 927      BINDING AFFINITY PREDICTED BY RF-SCORE:    0.00 PKD
ROOT
HETATM    1  N   UNL     1     -10.596   7.359  70.915  1.00  0.00    -0.222 NA 
HETATM    2  C   UNL     1     -10.809   8.479  70.206  1.00  0.00    -0.238 A  
HETATM    3  H1  UNL     1     -10.858   7.263  71.895  1.00  0.00     0.000 HD 
HETATM    4  H2  UNL     1     -10.152   6.567  70.451  1.00  0.00     0.000 HD 
HETATM    5  N   UNL     1     -10.472   8.602  68.948  1.00  0.00    -0.212 NA 
HETATM    6  C   UNL     1     -10.857   9.845  68.474  1.00  0.00    -0.217 A  
HETATM    7  C   UNL     1     -11.463  10.679  69.412  1.00  0.00    -0.286 A  
HETATM    8  C   UNL     1     -11.906  11.969  69.079  1.00  0.00    -0.372 A  
HETATM    9  S   UNL     1     -11.546   9.852  70.918  1.00  0.00    -0.399 SA 
HETATM   10  C   UNL     1     -11.726  12.430  67.768  1.00  0.00    -0.350 A  
HETATM   11  C   UNL     1     -11.161  11.598  66.807  1.00  0.00    -0.371 A  
HETATM   12  C   UNL     1     -10.707  10.316  67.154  1.00  0.00    -0.303 A  
ENDROOT
BRANCH  10  13
HETATM   13  O   UNL     1     -12.218  13.681  67.545  1.00  0.00    -0.342 OA 
HETATM   14  C   UNL     1     -11.326  14.778  67.399  1.00  0.00    -0.351 C  
HETATM   15  F   UNL     1     -10.029  14.472  67.611  1.00  0.00    -0.218 F  
HETATM   16  F   UNL     1     -11.455  15.293  66.159  1.00  0.00    -0.326 F  
HETATM   17  F   UNL     1     -11.676  15.733  68.290  1.00  0.00    -0.356 F  
ENDBRANCH  10  13
TORSDOF 1
ENDMDL
MODEL       81
REMARK 921   NORMALIZED FREE ENERGY PREDICTED BY IDOCK:   -4.28 KCAL/MOL
REMARK 922        TOTAL FREE ENERGY PREDICTED BY IDOCK:   -4.93 KCAL/MOL
REMARK 923 INTER-LIGAND FREE ENERGY PREDICTED BY IDOCK:   -4.70 KCAL/MOL
REMARK 924 INTRA-LIGAND FREE ENERGY PREDICTED BY IDOCK:   -0.22 KCAL/MOL
REMARK 927      BINDING AFFINITY PREDICTED BY RF-SCORE:    0.00 PKD
ROOT
HETATM    1  N   UNL     1     -12.406  14.442  68.959  1.00  0.00    -0.566 NA 
HETATM    2  C   UNL     1     -12.007  13.737  67.889  1.00  0.00    -0.356 A  
HETATM    3  H1  UNL     1     -12.394  14.070  69.908  1.00  0.00     0.000 HD 
HETATM    4  H2  UNL     1     -12.737  15.397  68.816  1.00  0.00     0.000 HD 
HETATM    5  N   UNL     1     -12.023  14.215  66.671  1.00  0.00    -0.427 NA 
HETATM    6  C   UNL     1     -11.513  13.279  65.788  1.00  0.00    -0.323 A  
HETATM    7  C   UNL     1     -11.141  12.062  66.357  1.00  0.00    -0.318 A  
HETATM    8  C   UNL     1     -10.608  11.016  65.587  1.00  0.00    -0.263 A  
HETATM    9  S   UNL     1     -11.443  12.126  68.050  1.00  0.00    -0.340 SA 
HETATM   10  C   UNL     1     -10.453  11.202  64.207  1.00  0.00    -0.362 A  
HETATM   11  C   UNL     1     -10.779  12.423  63.626  1.00  0.00    -0.497 A  
HETATM   12  C   UNL     1     -11.327  13.457  64.402  1.00  0.00    -0.419 A  
ENDROOT
BRANCH  10  13
HETATM   13  O   UNL     1      -9.900  10.138  63.561  1.00  0.00    -0.215 OA 
HETATM   14  C   UNL     1      -8.540   9.798  63.790  1.00  0.00    -0.200 C  
HETATM   15  F   UNL     1      -7.875  10.668  64.579  1.00  0.00    -0.137 F  
HETATM   16  F   UNL     1      -8.476   8.570  64.345  1.00  0.00    -0.164 F  
HETATM   17  F   UNL     1      -7.905   9.754  62.597  1.00  0.00    -0.115 F  
ENDBRANCH  10  13
TORSDOF 1
ENDMDL
MODEL       82
REMARK 921   NORMALIZED FREE ENERGY PREDICTED BY IDOCK:   -4.27 KCAL/MOL
REMARK 922        TOTAL FREE ENERGY PREDICTED BY IDOCK:   -4.92 KCAL/MOL
REMARK 923 INTER-LIGAND FREE ENERGY PREDICTED BY IDOCK:   -4.59 KCAL/MOL
REMARK 924 INTRA-LIGAND FREE ENERGY PREDICTED BY IDOCK:   -0.33 KCAL/MOL
REMARK 927      BINDING AFFINITY PREDICTED BY RF-SCORE:    0.00 PKD
ROOT
HETATM    1  N   UNL     1      -9.165   7.798  65.455  1.00  0.00    -0.386 NA 
HETATM    2  C   UNL     1      -9.673   8.922  65.986  1.00  0.00    -0.238 A  
HETATM    3  H1  UNL     1      -9.106   6.918  65.967  1.00  0.00     0.000 HD 
HETATM    4  H2  UNL     1      -8.823   7.826  64.495  1.00  0.00     0.000 HD 
HETATM    5  N   UNL     1      -9.749  10.051  65.330  1.00  0.00    -0.288 NA 
HETATM    6  C   UNL     1     -10.358  11.015  66.115  1.00  0.00    -0.251 A  
HETATM    7  C   UNL     1     -10.712  10.603  67.398  1.00  0.00    -0.276 A  
HETATM    8  C   UNL     1     -11.337  11.470  68.309  1.00  0.00    -0.352 A  
HETATM    9  S   UNL     1     -10.264   8.953  67.595  1.00  0.00    -0.252 SA 
HETATM   10  C   UNL     1     -11.604  12.788  67.914  1.00  0.00    -0.351 A  
HETATM   11  C   UNL     1     -11.298  13.206  66.624  1.00  0.00    -0.361 A  
HETATM   12  C   UNL     1     -10.658  12.336  65.727  1.00  0.00    -0.289 A  
ENDROOT
BRANCH  10  13
HETATM   13  O   UNL     1     -12.239  13.534  68.862  1.00  0.00    -0.315 OA 
HETATM   14  C   UNL     1     -11.566  14.629  69.469  1.00  0.00    -0.310 C  
HETATM   15  F   UNL     1     -10.274  14.758  69.106  1.00  0.00    -0.220 F  
HETATM   16  F   UNL     1     -12.219  15.771  69.171  1.00  0.00    -0.370 F  
HETATM   17  F   UNL     1     -11.604  14.460  70.811  1.00  0.00    -0.329 F  
ENDBRANCH  10  13
TORSDOF 1
ENDMDL
MODEL       83
REMARK 921   NORMALIZED FREE ENERGY PREDICTED BY IDOCK:   -4.26 KCAL/MOL
REMARK 922        TOTAL FREE ENERGY PREDICTED BY IDOCK:   -4.91 KCAL/MOL
REMARK 923 INTER-LIGAND FREE ENERGY PREDICTED BY IDOCK:   -4.51 KCAL/MOL
REMARK 924 INTRA-LIGAND FREE ENERGY PREDICTED BY IDOCK:   -0.39 KCAL/MOL
REMARK 927      BINDING AFFINITY PREDICTED BY RF-SCORE:    0.00 PKD
ROOT
HETATM    1  N   UNL     1      -9.391   2.651  70.736  1.00  0.00    -0.135 NA 
HETATM    2  C   UNL     1      -9.818   3.900  70.978  1.00  0.00    -0.149 A  
HETATM    3  H1  UNL     1      -9.156   2.313  69.803  1.00  0.00     0.000 HD 
HETATM    4  H2  UNL     1      -9.297   2.008  71.522  1.00  0.00     0.000 HD 
HETATM    5  N   UNL     1     -10.120   4.333  72.175  1.00  0.00    -0.185 NA 
HETATM    6  C   UNL     1     -10.482   5.667  72.119  1.00  0.00    -0.216 A  
HETATM    7  C   UNL     1     -10.483   6.232  70.845  1.00  0.00    -0.223 A  
HETATM    8  C   UNL     1     -10.829   7.576  70.630  1.00  0.00    -0.251 A  
HETATM    9  S   UNL     1     -10.005   5.034  69.707  1.00  0.00    -0.263 SA 
HETATM   10  C   UNL     1     -11.189   8.367  71.730  1.00  0.00    -0.293 A  
HETATM   11  C   UNL     1     -11.153   7.834  73.014  1.00  0.00    -0.419 A  
HETATM   12  C   UNL     1     -10.822   6.484  73.216  1.00  0.00    -0.276 A  
ENDROOT
BRANCH  10  13
HETATM   13  O   UNL     1     -11.476   9.661  71.415  1.00  0.00    -0.356 OA 
HETATM   14  C   UNL     1     -12.829  10.088  71.342  1.00  0.00    -0.417 C  
HETATM   15  F   UNL     1     -13.734   9.100  71.494  1.00  0.00    -0.383 F  
HETATM   16  F   UNL     1     -13.049  11.029  72.283  1.00  0.00    -0.575 F  
HETATM   17  F   UNL     1     -13.032  10.652  70.129  1.00  0.00    -0.370 F  
ENDBRANCH  10  13
TORSDOF 1
ENDMDL
MODEL       84
REMARK 921   NORMALIZED FREE ENERGY PREDICTED BY IDOCK:   -4.26 KCAL/MOL
REMARK 922        TOTAL FREE ENERGY PREDICTED BY IDOCK:   -4.90 KCAL/MOL
REMARK 923 INTER-LIGAND FREE ENERGY PREDICTED BY IDOCK:   -4.50 KCAL/MOL
REMARK 924 INTRA-LIGAND FREE ENERGY PREDICTED BY IDOCK:   -0.40 KCAL/MOL
REMARK 927      BINDING AFFINITY PREDICTED BY RF-SCORE:    0.00 PKD
ROOT
HETATM    1  N   UNL     1     -13.854  14.340  72.734  1.00  0.00    -0.626 NA 
HETATM    2  C   UNL     1     -13.136  14.079  71.630  1.00  0.00    -0.359 A  
HETATM    3  H1  UNL     1     -14.254  13.611  73.324  1.00  0.00     0.000 HD 
HETATM    4  H2  UNL     1     -14.006  15.314  72.997  1.00  0.00     0.000 HD 
HETATM    5  N   UNL     1     -12.623  15.015  70.874  1.00  0.00    -0.328 NA 
HETATM    6  C   UNL     1     -11.900  14.446  69.840  1.00  0.00    -0.323 A  
HETATM    7  C   UNL     1     -11.904  13.053  69.806  1.00  0.00    -0.311 A  
HETATM    8  C   UNL     1     -11.216  12.333  68.816  1.00  0.00    -0.312 A  
HETATM    9  S   UNL     1     -12.842  12.468  71.125  1.00  0.00    -0.108 SA 
HETATM   10  C   UNL     1     -10.511  13.040  67.832  1.00  0.00    -0.229 A  
HETATM   11  C   UNL     1     -10.460  14.429  67.873  1.00  0.00    -0.239 A  
HETATM   12  C   UNL     1     -11.165  15.139  68.857  1.00  0.00    -0.292 A  
ENDROOT
BRANCH  10  13
HETATM   13  O   UNL     1      -9.855  12.247  66.939  1.00  0.00    -0.203 OA 
HETATM   14  C   UNL     1     -10.467  11.921  65.699  1.00  0.00    -0.262 C  
HETATM   15  F   UNL     1     -11.735  12.363  65.570  1.00  0.00    -0.374 F  
HETATM   16  F   UNL     1      -9.725  12.427  64.692  1.00  0.00    -0.212 F  
HETATM   17  F   UNL     1     -10.483  10.574  65.573  1.00  0.00    -0.327 F  
ENDBRANCH  10  13
TORSDOF 1
ENDMDL
MODEL       85
REMARK 921   NORMALIZED FREE ENERGY PREDICTED BY IDOCK:   -4.25 KCAL/MOL
REMARK 922        TOTAL FREE ENERGY PREDICTED BY IDOCK:   -4.89 KCAL/MOL
REMARK 923 INTER-LIGAND FREE ENERGY PREDICTED BY IDOCK:   -4.54 KCAL/MOL
REMARK 924 INTRA-LIGAND FREE ENERGY PREDICTED BY IDOCK:   -0.35 KCAL/MOL
REMARK 927      BINDING AFFINITY PREDICTED BY RF-SCORE:    0.00 PKD
ROOT
HETATM    1  N   UNL     1      -8.627   8.244  69.299  1.00  0.00    -0.136 NA 
HETATM    2  C   UNL     1      -9.043   9.267  68.536  1.00  0.00    -0.132 A  
HETATM    3  H1  UNL     1      -8.541   7.289  68.951  1.00  0.00     0.000 HD 
HETATM    4  H2  UNL     1      -8.385   8.430  70.273  1.00  0.00     0.000 HD 
HETATM    5  N   UNL     1      -9.153  10.492  68.983  1.00  0.00    -0.179 NA 
HETATM    6  C   UNL     1      -9.556  11.334  67.961  1.00  0.00    -0.180 A  
HETATM    7  C   UNL     1      -9.786  10.716  66.734  1.00  0.00    -0.185 A  
HETATM    8  C   UNL     1     -10.199  11.440  65.604  1.00  0.00    -0.298 A  
HETATM    9  S   UNL     1      -9.470   9.032  66.894  1.00  0.00    -0.181 SA 
HETATM   10  C   UNL     1     -10.393  12.823  65.721  1.00  0.00    -0.281 A  
HETATM   11  C   UNL     1     -10.129  13.466  66.925  1.00  0.00    -0.255 A  
HETATM   12  C   UNL     1      -9.731  12.730  68.053  1.00  0.00    -0.220 A  
ENDROOT
BRANCH  10  13
HETATM   13  O   UNL     1     -10.765  13.433  64.560  1.00  0.00    -0.380 OA 
HETATM   14  C   UNL     1     -12.139  13.498  64.203  1.00  0.00    -0.435 C  
HETATM   15  F   UNL     1     -12.962  12.826  65.034  1.00  0.00    -0.558 F  
HETATM   16  F   UNL     1     -12.524  14.790  64.157  1.00  0.00    -0.513 F  
HETATM   17  F   UNL     1     -12.281  12.972  62.965  1.00  0.00    -0.607 F  
ENDBRANCH  10  13
TORSDOF 1
ENDMDL
MODEL       86
REMARK 921   NORMALIZED FREE ENERGY PREDICTED BY IDOCK:   -4.24 KCAL/MOL
REMARK 922        TOTAL FREE ENERGY PREDICTED BY IDOCK:   -4.89 KCAL/MOL
REMARK 923 INTER-LIGAND FREE ENERGY PREDICTED BY IDOCK:   -4.57 KCAL/MOL
REMARK 924 INTRA-LIGAND FREE ENERGY PREDICTED BY IDOCK:   -0.32 KCAL/MOL
REMARK 927      BINDING AFFINITY PREDICTED BY RF-SCORE:    0.00 PKD
ROOT
HETATM    1  N   UNL     1     -13.988   8.887  73.298  1.00  0.00    -1.217 NA 
HETATM    2  C   UNL     1     -13.145   9.103  72.276  1.00  0.00    -0.438 A  
HETATM    3  H1  UNL     1     -14.591   9.612  73.685  1.00  0.00     0.000 HD 
HETATM    4  H2  UNL     1     -14.028   7.953  73.706  1.00  0.00     0.000 HD 
HETATM    5  N   UNL     1     -12.371   8.172  71.779  1.00  0.00    -0.307 NA 
HETATM    6  C   UNL     1     -11.652   8.676  70.709  1.00  0.00    -0.242 A  
HETATM    7  C   UNL     1     -11.869  10.023  70.425  1.00  0.00    -0.262 A  
HETATM    8  C   UNL     1     -11.211  10.674  69.369  1.00  0.00    -0.329 A  
HETATM    9  S   UNL     1     -13.020  10.647  71.542  1.00  0.00    -0.460 SA 
HETATM   10  C   UNL     1     -10.305   9.946  68.585  1.00  0.00    -0.195 A  
HETATM   11  C   UNL     1     -10.105   8.591  68.826  1.00  0.00    -0.210 A  
HETATM   12  C   UNL     1     -10.756   7.954  69.895  1.00  0.00    -0.244 A  
ENDROOT
BRANCH  10  13
HETATM   13  O   UNL     1      -9.746  10.664  67.571  1.00  0.00    -0.163 OA 
HETATM   14  C   UNL     1      -8.619  11.492  67.826  1.00  0.00    -0.138 C  
HETATM   15  F   UNL     1      -8.268  11.568  69.127  1.00  0.00    -0.107 F  
HETATM   16  F   UNL     1      -7.565  11.038  67.117  1.00  0.00    -0.098 F  
HETATM   17  F   UNL     1      -8.906  12.743  67.401  1.00  0.00    -0.158 F  
ENDBRANCH  10  13
TORSDOF 1
ENDMDL
MODEL       87
REMARK 921   NORMALIZED FREE ENERGY PREDICTED BY IDOCK:   -4.24 KCAL/MOL
REMARK 922        TOTAL FREE ENERGY PREDICTED BY IDOCK:   -4.88 KCAL/MOL
REMARK 923 INTER-LIGAND FREE ENERGY PREDICTED BY IDOCK:   -4.59 KCAL/MOL
REMARK 924 INTRA-LIGAND FREE ENERGY PREDICTED BY IDOCK:   -0.30 KCAL/MOL
REMARK 927      BINDING AFFINITY PREDICTED BY RF-SCORE:    0.00 PKD
ROOT
HETATM    1  N   UNL     1      -8.088   4.215  74.334  1.00  0.00    -0.090 NA 
HETATM    2  C   UNL     1      -8.959   5.023  73.709  1.00  0.00    -0.114 A  
HETATM    3  H1  UNL     1      -7.799   4.350  75.302  1.00  0.00     0.000 HD 
HETATM    4  H2  UNL     1      -7.696   3.428  73.816  1.00  0.00     0.000 HD 
HETATM    5  N   UNL     1      -9.329   4.849  72.466  1.00  0.00    -0.134 NA 
HETATM    6  C   UNL     1     -10.266   5.805  72.113  1.00  0.00    -0.199 A  
HETATM    7  C   UNL     1     -10.575   6.733  73.105  1.00  0.00    -0.287 A  
HETATM    8  C   UNL     1     -11.507   7.762  72.894  1.00  0.00    -0.359 A  
HETATM    9  S   UNL     1      -9.655   6.367  74.512  1.00  0.00    -0.301 SA 
HETATM   10  C   UNL     1     -12.137   7.858  71.646  1.00  0.00    -0.299 A  
HETATM   11  C   UNL     1     -11.875   6.917  70.656  1.00  0.00    -0.418 A  
HETATM   12  C   UNL     1     -10.928   5.902  70.872  1.00  0.00    -0.335 A  
ENDROOT
BRANCH  10  13
HETATM   13  O   UNL     1     -13.044   8.872  71.558  1.00  0.00    -0.332 OA 
HETATM   14  C   UNL     1     -12.602  10.198  71.302  1.00  0.00    -0.404 C  
HETATM   15  F   UNL     1     -11.261  10.342  71.277  1.00  0.00    -0.393 F  
HETATM   16  F   UNL     1     -13.107  10.614  70.122  1.00  0.00    -0.345 F  
HETATM   17  F   UNL     1     -13.087  11.003  72.275  1.00  0.00    -0.575 F  
ENDBRANCH  10  13
TORSDOF 1
ENDMDL
MODEL       88
REMARK 921   NORMALIZED FREE ENERGY PREDICTED BY IDOCK:   -4.20 KCAL/MOL
REMARK 922        TOTAL FREE ENERGY PREDICTED BY IDOCK:   -4.84 KCAL/MOL
REMARK 923 INTER-LIGAND FREE ENERGY PREDICTED BY IDOCK:   -4.56 KCAL/MOL
REMARK 924 INTRA-LIGAND FREE ENERGY PREDICTED BY IDOCK:   -0.28 KCAL/MOL
REMARK 927      BINDING AFFINITY PREDICTED BY RF-SCORE:    0.00 PKD
ROOT
HETATM    1  N   UNL     1     -11.596  14.409  65.434  1.00  0.00    -0.339 NA 
HETATM    2  C   UNL     1     -11.317  13.159  65.836  1.00  0.00    -0.311 A  
HETATM    3  H1  UNL     1     -12.056  15.096  66.030  1.00  0.00     0.000 HD 
HETATM    4  H2  UNL     1     -11.335  14.685  64.487  1.00  0.00     0.000 HD 
HETATM    5  N   UNL     1     -10.726  12.278  65.071  1.00  0.00    -0.288 NA 
HETATM    6  C   UNL     1     -10.530  11.100  65.771  1.00  0.00    -0.246 A  
HETATM    7  C   UNL     1     -11.016  11.093  67.076  1.00  0.00    -0.289 A  
HETATM    8  C   UNL     1     -10.891   9.969  67.909  1.00  0.00    -0.323 A  
HETATM    9  S   UNL     1     -11.728  12.623  67.411  1.00  0.00    -0.338 SA 
HETATM   10  C   UNL     1     -10.263   8.821  67.405  1.00  0.00    -0.252 A  
HETATM   11  C   UNL     1      -9.733   8.821  66.120  1.00  0.00    -0.320 A  
HETATM   12  C   UNL     1      -9.879   9.945  65.290  1.00  0.00    -0.373 A  
ENDROOT
BRANCH  10  13
HETATM   13  O   UNL     1     -10.167   7.801  68.304  1.00  0.00    -0.190 OA 
HETATM   14  C   UNL     1     -10.812   6.562  68.040  1.00  0.00    -0.295 C  
HETATM   15  F   UNL     1     -11.575   6.558  66.928  1.00  0.00    -0.411 F  
HETATM   16  F   UNL     1      -9.881   5.591  67.934  1.00  0.00    -0.122 F  
HETATM   17  F   UNL     1     -11.610   6.266  69.091  1.00  0.00    -0.458 F  
ENDBRANCH  10  13
TORSDOF 1
ENDMDL
MODEL       89
REMARK 921   NORMALIZED FREE ENERGY PREDICTED BY IDOCK:   -4.16 KCAL/MOL
REMARK 922        TOTAL FREE ENERGY PREDICTED BY IDOCK:   -4.79 KCAL/MOL
REMARK 923 INTER-LIGAND FREE ENERGY PREDICTED BY IDOCK:   -4.41 KCAL/MOL
REMARK 924 INTRA-LIGAND FREE ENERGY PREDICTED BY IDOCK:   -0.39 KCAL/MOL
REMARK 927      BINDING AFFINITY PREDICTED BY RF-SCORE:    0.00 PKD
ROOT
HETATM    1  N   UNL     1     -13.409  11.638  72.196  1.00  0.00    -0.562 NA 
HETATM    2  C   UNL     1     -12.891  10.504  71.699  1.00  0.00    -0.475 A  
HETATM    3  H1  UNL     1     -14.111  11.652  72.936  1.00  0.00     0.000 HD 
HETATM    4  H2  UNL     1     -13.085  12.528  71.818  1.00  0.00     0.000 HD 
HETATM    5  N   UNL     1     -11.990  10.486  70.751  1.00  0.00    -0.340 NA 
HETATM    6  C   UNL     1     -11.614   9.182  70.480  1.00  0.00    -0.197 A  
HETATM    7  C   UNL     1     -12.276   8.204  71.219  1.00  0.00    -0.279 A  
HETATM    8  C   UNL     1     -12.001   6.837  71.054  1.00  0.00    -0.431 A  
HETATM    9  S   UNL     1     -13.389   8.972  72.283  1.00  0.00    -0.477 SA 
HETATM   10  C   UNL     1     -11.038   6.449  70.113  1.00  0.00    -0.365 A  
HETATM   11  C   UNL     1     -10.336   7.411  69.395  1.00  0.00    -0.211 A  
HETATM   12  C   UNL     1     -10.630   8.774  69.556  1.00  0.00    -0.224 A  
ENDROOT
BRANCH  10  13
HETATM   13  O   UNL     1     -10.828   5.103  70.055  1.00  0.00    -0.169 OA 
HETATM   14  C   UNL     1      -9.827   4.507  70.868  1.00  0.00    -0.199 C  
HETATM   15  F   UNL     1      -9.082   5.387  71.568  1.00  0.00    -0.138 F  
HETATM   16  F   UNL     1     -10.410   3.647  71.729  1.00  0.00    -0.226 F  
HETATM   17  F   UNL     1      -8.994   3.802  70.069  1.00  0.00    -0.113 F  
ENDBRANCH  10  13
TORSDOF 1
ENDMDL
MODEL       90
REMARK 921   NORMALIZED FREE ENERGY PREDICTED BY IDOCK:   -4.12 KCAL/MOL
REMARK 922        TOTAL FREE ENERGY PREDICTED BY IDOCK:   -4.76 KCAL/MOL
REMARK 923 INTER-LIGAND FREE ENERGY PREDICTED BY IDOCK:   -4.37 KCAL/MOL
REMARK 924 INTRA-LIGAND FREE ENERGY PREDICTED BY IDOCK:   -0.39 KCAL/MOL
REMARK 927      BINDING AFFINITY PREDICTED BY RF-SCORE:    0.00 PKD
ROOT
HETATM    1  N   UNL     1      -9.324   4.702  67.147  1.00  0.00    -0.133 NA 
HETATM    2  C   UNL     1      -9.702   5.707  67.953  1.00  0.00    -0.125 A  
HETATM    3  H1  UNL     1      -9.368   3.721  67.422  1.00  0.00     0.000 HD 
HETATM    4  H2  UNL     1      -8.977   4.930  66.216  1.00  0.00     0.000 HD 
HETATM    5  N   UNL     1      -9.645   6.966  67.601  1.00  0.00    -0.125 NA 
HETATM    6  C   UNL     1     -10.142   7.765  68.615  1.00  0.00    -0.199 A  
HETATM    7  C   UNL     1     -10.546   7.088  69.764  1.00  0.00    -0.233 A  
HETATM    8  C   UNL     1     -11.071   7.764  70.878  1.00  0.00    -0.270 A  
HETATM    9  S   UNL     1     -10.292   5.402  69.533  1.00  0.00    -0.268 SA 
HETATM   10  C   UNL     1     -11.183   9.160  70.830  1.00  0.00    -0.277 A  
HETATM   11  C   UNL     1     -10.825   9.851  69.677  1.00  0.00    -0.281 A  
HETATM   12  C   UNL     1     -10.286   9.167  68.576  1.00  0.00    -0.223 A  
ENDROOT
BRANCH  10  13
HETATM   13  O   UNL     1     -11.732   9.712  71.949  1.00  0.00    -0.357 OA 
HETATM   14  C   UNL     1     -13.137   9.908  72.026  1.00  0.00    -0.448 C  
HETATM   15  F   UNL     1     -13.803   9.612  70.891  1.00  0.00    -0.394 F  
HETATM   16  F   UNL     1     -13.635   9.159  73.031  1.00  0.00    -0.454 F  
HETATM   17  F   UNL     1     -13.370  11.209  72.315  1.00  0.00    -0.582 F  
ENDBRANCH  10  13
TORSDOF 1
ENDMDL
MODEL       91
REMARK 921   NORMALIZED FREE ENERGY PREDICTED BY IDOCK:   -4.12 KCAL/MOL
REMARK 922        TOTAL FREE ENERGY PREDICTED BY IDOCK:   -4.75 KCAL/MOL
REMARK 923 INTER-LIGAND FREE ENERGY PREDICTED BY IDOCK:   -4.39 KCAL/MOL
REMARK 924 INTRA-LIGAND FREE ENERGY PREDICTED BY IDOCK:   -0.37 KCAL/MOL
REMARK 927      BINDING AFFINITY PREDICTED BY RF-SCORE:    0.00 PKD
ROOT
HETATM    1  N   UNL     1     -12.433   6.051  72.464  1.00  0.00    -0.513 NA 
HETATM    2  C   UNL     1     -12.016   7.106  71.747  1.00  0.00    -0.313 A  
HETATM    3  H1  UNL     1     -13.032   6.137  73.285  1.00  0.00     0.000 HD 
HETATM    4  H2  UNL     1     -12.138   5.118  72.174  1.00  0.00     0.000 HD 
HETATM    5  N   UNL     1     -11.248   6.995  70.693  1.00  0.00    -0.274 NA 
HETATM    6  C   UNL     1     -11.024   8.242  70.137  1.00  0.00    -0.222 A  
HETATM    7  C   UNL     1     -11.610   9.311  70.813  1.00  0.00    -0.285 A  
HETATM    8  C   UNL     1     -11.470  10.636  70.369  1.00  0.00    -0.422 A  
HETATM    9  S   UNL     1     -12.467   8.703  72.175  1.00  0.00    -0.399 SA 
HETATM   10  C   UNL     1     -10.713  10.886  69.216  1.00  0.00    -0.231 A  
HETATM   11  C   UNL     1     -10.155   9.830  68.504  1.00  0.00    -0.185 A  
HETATM   12  C   UNL     1     -10.287   8.511  68.966  1.00  0.00    -0.229 A  
ENDROOT
BRANCH  10  13
HETATM   13  O   UNL     1     -10.667  12.200  68.856  1.00  0.00    -0.219 OA 
HETATM   14  C   UNL     1     -11.576  12.701  67.886  1.00  0.00    -0.349 C  
HETATM   15  F   UNL     1     -12.357  11.760  67.317  1.00  0.00    -0.090 F  
HETATM   16  F   UNL     1     -12.365  13.635  68.457  1.00  0.00    -0.389 F  
HETATM   17  F   UNL     1     -10.863  13.297  66.903  1.00  0.00    -0.267 F  
ENDBRANCH  10  13
TORSDOF 1
ENDMDL
MODEL       92
REMARK 921   NORMALIZED FREE ENERGY PREDICTED BY IDOCK:   -4.10 KCAL/MOL
REMARK 922        TOTAL FREE ENERGY PREDICTED BY IDOCK:   -4.74 KCAL/MOL
REMARK 923 INTER-LIGAND FREE ENERGY PREDICTED BY IDOCK:   -4.45 KCAL/MOL
REMARK 924 INTRA-LIGAND FREE ENERGY PREDICTED BY IDOCK:   -0.29 KCAL/MOL
REMARK 927      BINDING AFFINITY PREDICTED BY RF-SCORE:    0.00 PKD
ROOT
HETATM    1  N   UNL     1      -7.219  10.891  65.389  1.00  0.00    -0.362 NA 
HETATM    2  C   UNL     1      -8.213  10.971  66.287  1.00  0.00    -0.164 A  
HETATM    3  H1  UNL     1      -6.926  10.014  64.959  1.00  0.00     0.000 HD 
HETATM    4  H2  UNL     1      -6.733  11.748  65.124  1.00  0.00     0.000 HD 
HETATM    5  N   UNL     1      -8.589  12.097  66.838  1.00  0.00    -0.196 NA 
HETATM    6  C   UNL     1      -9.663  11.875  67.683  1.00  0.00    -0.185 A  
HETATM    7  C   UNL     1     -10.074  10.548  67.790  1.00  0.00    -0.175 A  
HETATM    8  C   UNL     1     -11.150  10.169  68.608  1.00  0.00    -0.254 A  
HETATM    9  S   UNL     1      -9.073   9.575  66.784  1.00  0.00    -0.150 SA 
HETATM   10  C   UNL     1     -11.822  11.155  69.343  1.00  0.00    -0.345 A  
HETATM   11  C   UNL     1     -11.454  12.491  69.218  1.00  0.00    -0.353 A  
HETATM   12  C   UNL     1     -10.366  12.857  68.410  1.00  0.00    -0.249 A  
ENDROOT
BRANCH  10  13
HETATM   13  O   UNL     1     -12.867  10.685  70.080  1.00  0.00    -0.276 OA 
HETATM   14  C   UNL     1     -12.626  10.068  71.338  1.00  0.00    -0.415 C  
HETATM   15  F   UNL     1     -11.320   9.909  71.638  1.00  0.00    -0.426 F  
HETATM   16  F   UNL     1     -13.211  10.798  72.310  1.00  0.00    -0.561 F  
HETATM   17  F   UNL     1     -13.200   8.844  71.328  1.00  0.00    -0.334 F  
ENDBRANCH  10  13
TORSDOF 1
ENDMDL
MODEL       93
REMARK 921   NORMALIZED FREE ENERGY PREDICTED BY IDOCK:   -4.07 KCAL/MOL
REMARK 922        TOTAL FREE ENERGY PREDICTED BY IDOCK:   -4.71 KCAL/MOL
REMARK 923 INTER-LIGAND FREE ENERGY PREDICTED BY IDOCK:   -4.36 KCAL/MOL
REMARK 924 INTRA-LIGAND FREE ENERGY PREDICTED BY IDOCK:   -0.35 KCAL/MOL
REMARK 927      BINDING AFFINITY PREDICTED BY RF-SCORE:    0.00 PKD
ROOT
HETATM    1  N   UNL     1     -13.576  11.820  72.134  1.00  0.00    -0.445 NA 
HETATM    2  C   UNL     1     -12.874  10.845  71.535  1.00  0.00    -0.454 A  
HETATM    3  H1  UNL     1     -13.534  12.796  71.844  1.00  0.00     0.000 HD 
HETATM    4  H2  UNL     1     -14.181  11.572  72.918  1.00  0.00     0.000 HD 
HETATM    5  N   UNL     1     -12.928   9.593  71.908  1.00  0.00    -0.406 NA 
HETATM    6  C   UNL     1     -12.138   8.817  71.078  1.00  0.00    -0.225 A  
HETATM    7  C   UNL     1     -11.451   9.513  70.085  1.00  0.00    -0.162 A  
HETATM    8  C   UNL     1     -10.611   8.862  69.168  1.00  0.00    -0.211 A  
HETATM    9  S   UNL     1     -11.834  11.185  70.215  1.00  0.00    -0.374 SA 
HETATM   10  C   UNL     1     -10.455   7.472  69.262  1.00  0.00    -0.214 A  
HETATM   11  C   UNL     1     -11.164   6.753  70.219  1.00  0.00    -0.385 A  
HETATM   12  C   UNL     1     -11.989   7.416  71.141  1.00  0.00    -0.351 A  
ENDROOT
BRANCH  10  13
HETATM   13  O   UNL     1      -9.643   6.938  68.308  1.00  0.00    -0.130 OA 
HETATM   14  C   UNL     1     -10.145   6.706  66.999  1.00  0.00    -0.187 C  
HETATM   15  F   UNL     1     -11.464   6.952  66.858  1.00  0.00    -0.456 F  
HETATM   16  F   UNL     1      -9.464   7.471  66.120  1.00  0.00    -0.217 F  
HETATM   17  F   UNL     1      -9.929   5.409  66.683  1.00  0.00    -0.143 F  
ENDBRANCH  10  13
TORSDOF 1
ENDMDL
MODEL       94
REMARK 921   NORMALIZED FREE ENERGY PREDICTED BY IDOCK:   -4.07 KCAL/MOL
REMARK 922        TOTAL FREE ENERGY PREDICTED BY IDOCK:   -4.70 KCAL/MOL
REMARK 923 INTER-LIGAND FREE ENERGY PREDICTED BY IDOCK:   -4.37 KCAL/MOL
REMARK 924 INTRA-LIGAND FREE ENERGY PREDICTED BY IDOCK:   -0.33 KCAL/MOL
REMARK 927      BINDING AFFINITY PREDICTED BY RF-SCORE:    0.00 PKD
ROOT
HETATM    1  N   UNL     1      -8.689  12.308  67.454  1.00  0.00    -0.171 NA 
HETATM    2  C   UNL     1      -9.343  11.576  68.370  1.00  0.00    -0.194 A  
HETATM    3  H1  UNL     1      -7.754  12.075  67.119  1.00  0.00     0.000 HD 
HETATM    4  H2  UNL     1      -9.148  13.136  67.075  1.00  0.00     0.000 HD 
HETATM    5  N   UNL     1     -10.542  11.875  68.799  1.00  0.00    -0.219 NA 
HETATM    6  C   UNL     1     -10.975  10.917  69.700  1.00  0.00    -0.252 A  
HETATM    7  C   UNL     1     -10.062   9.900  69.974  1.00  0.00    -0.260 A  
HETATM    8  C   UNL     1     -10.359   8.859  70.868  1.00  0.00    -0.303 A  
HETATM    9  S   UNL     1      -8.634  10.174  69.055  1.00  0.00    -0.166 SA 
HETATM   10  C   UNL     1     -11.608   8.849  71.505  1.00  0.00    -0.318 A  
HETATM   11  C   UNL     1     -12.548   9.831  71.214  1.00  0.00    -0.460 A  
HETATM   12  C   UNL     1     -12.234  10.878  70.331  1.00  0.00    -0.453 A  
ENDROOT
BRANCH  10  13
HETATM   13  O   UNL     1     -11.804   7.780  72.327  1.00  0.00    -0.309 OA 
HETATM   14  C   UNL     1     -12.133   6.513  71.775  1.00  0.00    -0.342 C  
HETATM   15  F   UNL     1     -12.330   6.522  70.441  1.00  0.00    -0.433 F  
HETATM   16  F   UNL     1     -11.151   5.634  72.064  1.00  0.00    -0.285 F  
HETATM   17  F   UNL     1     -13.273   6.077  72.359  1.00  0.00    -0.209 F  
ENDBRANCH  10  13
TORSDOF 1
ENDMDL
MODEL       95
REMARK 921   NORMALIZED FREE ENERGY PREDICTED BY IDOCK:   -4.06 KCAL/MOL
REMARK 922        TOTAL FREE ENERGY PREDICTED BY IDOCK:   -4.69 KCAL/MOL
REMARK 923 INTER-LIGAND FREE ENERGY PREDICTED BY IDOCK:   -4.31 KCAL/MOL
REMARK 924 INTRA-LIGAND FREE ENERGY PREDICTED BY IDOCK:   -0.38 KCAL/MOL
REMARK 927      BINDING AFFINITY PREDICTED BY RF-SCORE:    0.00 PKD
ROOT
HETATM    1  N   UNL     1     -10.158  12.877  63.663  1.00  0.00    -0.715 NA 
HETATM    2  C   UNL     1     -10.353  12.065  64.713  1.00  0.00    -0.280 A  
HETATM    3  H1  UNL     1     -10.452  13.854  63.653  1.00  0.00     0.000 HD 
HETATM    4  H2  UNL     1      -9.695  12.501  62.836  1.00  0.00     0.000 HD 
HETATM    5  N   UNL     1      -9.976  10.812  64.726  1.00  0.00    -0.294 NA 
HETATM    6  C   UNL     1     -10.266  10.243  65.955  1.00  0.00    -0.223 A  
HETATM    7  C   UNL     1     -10.905  11.082  66.865  1.00  0.00    -0.269 A  
HETATM    8  C   UNL     1     -11.262  10.646  68.151  1.00  0.00    -0.366 A  
HETATM    9  S   UNL     1     -11.128  12.625  66.136  1.00  0.00    -0.305 SA 
HETATM   10  C   UNL     1     -10.973   9.326  68.523  1.00  0.00     0.011 A  
HETATM   11  C   UNL     1     -10.298   8.485  67.645  1.00  0.00    -0.317 A  
HETATM   12  C   UNL     1      -9.960   8.926  66.355  1.00  0.00    -0.354 A  
ENDROOT
BRANCH  10  13
HETATM   13  O   UNL     1     -11.334   9.016  69.800  1.00  0.00    -0.105 OA 
HETATM   14  C   UNL     1     -10.454   9.312  70.877  1.00  0.00    -0.302 C  
HETATM   15  F   UNL     1      -9.253   9.794  70.497  1.00  0.00    -0.275 F  
HETATM   16  F   UNL     1     -11.043  10.206  71.698  1.00  0.00    -0.301 F  
HETATM   17  F   UNL     1     -10.242   8.174  71.577  1.00  0.00    -0.212 F  
ENDBRANCH  10  13
TORSDOF 1
ENDMDL
MODEL       96
REMARK 921   NORMALIZED FREE ENERGY PREDICTED BY IDOCK:   -4.05 KCAL/MOL
REMARK 922        TOTAL FREE ENERGY PREDICTED BY IDOCK:   -4.69 KCAL/MOL
REMARK 923 INTER-LIGAND FREE ENERGY PREDICTED BY IDOCK:   -4.30 KCAL/MOL
REMARK 924 INTRA-LIGAND FREE ENERGY PREDICTED BY IDOCK:   -0.38 KCAL/MOL
REMARK 927      BINDING AFFINITY PREDICTED BY RF-SCORE:    0.00 PKD
ROOT
HETATM    1  N   UNL     1      -7.602   2.856  72.187  1.00  0.00    -0.051 NA 
HETATM    2  C   UNL     1      -8.584   3.735  71.936  1.00  0.00    -0.091 A  
HETATM    3  H1  UNL     1      -7.411   2.486  73.118  1.00  0.00     0.000 HD 
HETATM    4  H2  UNL     1      -7.019   2.543  71.411  1.00  0.00     0.000 HD 
HETATM    5  N   UNL     1      -8.830   4.210  70.741  1.00  0.00    -0.083 NA 
HETATM    6  C   UNL     1      -9.926   5.054  70.783  1.00  0.00    -0.221 A  
HETATM    7  C   UNL     1     -10.488   5.240  72.044  1.00  0.00    -0.222 A  
HETATM    8  C   UNL     1     -11.604   6.069  72.244  1.00  0.00    -0.359 A  
HETATM    9  S   UNL     1      -9.602   4.311  73.189  1.00  0.00    -0.125 SA 
HETATM   10  C   UNL     1     -12.160   6.732  71.141  1.00  0.00    -0.370 A  
HETATM   11  C   UNL     1     -11.640   6.527  69.868  1.00  0.00    -0.433 A  
HETATM   12  C   UNL     1     -10.514   5.709  69.682  1.00  0.00    -0.374 A  
ENDROOT
BRANCH  10  13
HETATM   13  O   UNL     1     -13.256   7.485  71.440  1.00  0.00    -0.349 OA 
HETATM   14  C   UNL     1     -13.101   8.855  71.787  1.00  0.00    -0.374 C  
HETATM   15  F   UNL     1     -11.818   9.260  71.892  1.00  0.00    -0.394 F  
HETATM   16  F   UNL     1     -13.725   9.618  70.866  1.00  0.00    -0.403 F  
HETATM   17  F   UNL     1     -13.700   9.062  72.981  1.00  0.00    -0.454 F  
ENDBRANCH  10  13
TORSDOF 1
ENDMDL
MODEL       97
REMARK 921   NORMALIZED FREE ENERGY PREDICTED BY IDOCK:   -4.01 KCAL/MOL
REMARK 922        TOTAL FREE ENERGY PREDICTED BY IDOCK:   -4.64 KCAL/MOL
REMARK 923 INTER-LIGAND FREE ENERGY PREDICTED BY IDOCK:   -4.23 KCAL/MOL
REMARK 924 INTRA-LIGAND FREE ENERGY PREDICTED BY IDOCK:   -0.40 KCAL/MOL
REMARK 927      BINDING AFFINITY PREDICTED BY RF-SCORE:    0.00 PKD
ROOT
HETATM    1  N   UNL     1     -13.611  12.649  72.147  1.00  0.00    -0.497 NA 
HETATM    2  C   UNL     1     -12.890  11.703  71.526  1.00  0.00    -0.364 A  
HETATM    3  H1  UNL     1     -14.214  12.456  72.947  1.00  0.00     0.000 HD 
HETATM    4  H2  UNL     1     -13.555  13.608  71.802  1.00  0.00     0.000 HD 
HETATM    5  N   UNL     1     -12.118  11.952  70.500  1.00  0.00    -0.372 NA 
HETATM    6  C   UNL     1     -11.467  10.795  70.106  1.00  0.00    -0.331 A  
HETATM    7  C   UNL     1     -11.789   9.651  70.833  1.00  0.00    -0.323 A  
HETATM    8  C   UNL     1     -11.211   8.404  70.549  1.00  0.00    -0.252 A  
HETATM    9  S   UNL     1     -12.937  10.070  72.045  1.00  0.00    -0.379 SA 
HETATM   10  C   UNL     1     -10.288   8.310  69.498  1.00  0.00    -0.219 A  
HETATM   11  C   UNL     1      -9.921   9.447  68.787  1.00  0.00    -0.191 A  
HETATM   12  C   UNL     1     -10.518  10.686  69.069  1.00  0.00    -0.237 A  
ENDROOT
BRANCH  10  13
HETATM   13  O   UNL     1      -9.765   7.063  69.328  1.00  0.00    -0.157 OA 
HETATM   14  C   UNL     1     -10.289   6.207  68.322  1.00  0.00    -0.198 C  
HETATM   15  F   UNL     1     -11.369   6.698  67.681  1.00  0.00    -0.359 F  
HETATM   16  F   UNL     1      -9.325   5.946  67.415  1.00  0.00    -0.115 F  
HETATM   17  F   UNL     1     -10.647   5.039  68.902  1.00  0.00    -0.243 F  
ENDBRANCH  10  13
TORSDOF 1
ENDMDL
MODEL       98
REMARK 921   NORMALIZED FREE ENERGY PREDICTED BY IDOCK:   -4.00 KCAL/MOL
REMARK 922        TOTAL FREE ENERGY PREDICTED BY IDOCK:   -4.63 KCAL/MOL
REMARK 923 INTER-LIGAND FREE ENERGY PREDICTED BY IDOCK:   -4.23 KCAL/MOL
REMARK 924 INTRA-LIGAND FREE ENERGY PREDICTED BY IDOCK:   -0.40 KCAL/MOL
REMARK 927      BINDING AFFINITY PREDICTED BY RF-SCORE:    0.00 PKD
ROOT
HETATM    1  N   UNL     1     -14.361   8.885  73.078  1.00  0.00    -1.154 NA 
HETATM    2  C   UNL     1     -13.342   8.632  72.242  1.00  0.00    -0.375 A  
HETATM    3  H1  UNL     1     -14.628   9.827  73.362  1.00  0.00     0.000 HD 
HETATM    4  H2  UNL     1     -14.894   8.098  73.448  1.00  0.00     0.000 HD 
HETATM    5  N   UNL     1     -13.000   7.422  71.879  1.00  0.00    -0.293 NA 
HETATM    6  C   UNL     1     -11.950   7.478  70.979  1.00  0.00    -0.290 A  
HETATM    7  C   UNL     1     -11.476   8.756  70.692  1.00  0.00    -0.231 A  
HETATM    8  C   UNL     1     -10.415   8.971  69.798  1.00  0.00    -0.227 A  
HETATM    9  S   UNL     1     -12.398   9.902  71.585  1.00  0.00    -0.386 SA 
HETATM   10  C   UNL     1      -9.813   7.864  69.184  1.00  0.00    -0.174 A  
HETATM   11  C   UNL     1     -10.298   6.583  69.424  1.00  0.00    -0.241 A  
HETATM   12  C   UNL     1     -11.349   6.378  70.332  1.00  0.00    -0.453 A  
ENDROOT
BRANCH  10  13
HETATM   13  O   UNL     1      -8.815   8.186  68.313  1.00  0.00    -0.133 OA 
HETATM   14  C   UNL     1      -7.461   8.145  68.742  1.00  0.00    -0.090 C  
HETATM   15  F   UNL     1      -7.301   7.883  70.055  1.00  0.00    -0.064 F  
HETATM   16  F   UNL     1      -6.797   7.212  68.028  1.00  0.00    -0.059 F  
HETATM   17  F   UNL     1      -6.898   9.348  68.488  1.00  0.00    -0.059 F  
ENDBRANCH  10  13
TORSDOF 1
ENDMDL
MODEL       99
REMARK 921   NORMALIZED FREE ENERGY PREDICTED BY IDOCK:   -3.99 KCAL/MOL
REMARK 922        TOTAL FREE ENERGY PREDICTED BY IDOCK:   -4.62 KCAL/MOL
REMARK 923 INTER-LIGAND FREE ENERGY PREDICTED BY IDOCK:   -4.29 KCAL/MOL
REMARK 924 INTRA-LIGAND FREE ENERGY PREDICTED BY IDOCK:   -0.33 KCAL/MOL
REMARK 927      BINDING AFFINITY PREDICTED BY RF-SCORE:    0.00 PKD
ROOT
HETATM    1  N   UNL     1      -7.795   6.315  66.075  1.00  0.00    -0.103 NA 
HETATM    2  C   UNL     1      -8.503   7.454  66.110  1.00  0.00    -0.145 A  
HETATM    3  H1  UNL     1      -7.784   5.642  66.840  1.00  0.00     0.000 HD 
HETATM    4  H2  UNL     1      -7.240   6.113  65.243  1.00  0.00     0.000 HD 
HETATM    5  N   UNL     1      -8.516   8.318  65.127  1.00  0.00    -0.167 NA 
HETATM    6  C   UNL     1      -9.369   9.366  65.429  1.00  0.00    -0.247 A  
HETATM    7  C   UNL     1      -9.979   9.298  66.680  1.00  0.00    -0.264 A  
HETATM    8  C   UNL     1     -10.869  10.288  67.126  1.00  0.00    -0.278 A  
HETATM    9  S   UNL     1      -9.455   7.865  67.475  1.00  0.00    -0.150 SA 
HETATM   10  C   UNL     1     -11.144  11.378  66.288  1.00  0.00    -0.221 A  
HETATM   11  C   UNL     1     -10.578  11.443  65.019  1.00  0.00    -0.359 A  
HETATM   12  C   UNL     1      -9.677  10.456  64.590  1.00  0.00    -0.392 A  
ENDROOT
BRANCH  10  13
HETATM   13  O   UNL     1     -12.042  12.263  66.805  1.00  0.00    -0.593 OA 
HETATM   14  C   UNL     1     -11.624  13.578  67.145  1.00  0.00    -0.357 C  
HETATM   15  F   UNL     1     -10.299  13.792  67.015  1.00  0.00    -0.251 F  
HETATM   16  F   UNL     1     -12.286  14.467  66.375  1.00  0.00    -0.416 F  
HETATM   17  F   UNL     1     -11.957  13.810  68.435  1.00  0.00    -0.350 F  
ENDBRANCH  10  13
TORSDOF 1
ENDMDL
MODEL      100
REMARK 921   NORMALIZED FREE ENERGY PREDICTED BY IDOCK:   -3.96 KCAL/MOL
REMARK 922        TOTAL FREE ENERGY PREDICTED BY IDOCK:   -4.59 KCAL/MOL
REMARK 923 INTER-LIGAND FREE ENERGY PREDICTED BY IDOCK:   -4.28 KCAL/MOL
REMARK 924 INTRA-LIGAND FREE ENERGY PREDICTED BY IDOCK:   -0.31 KCAL/MOL
REMARK 927      BINDING AFFINITY PREDICTED BY RF-SCORE:    0.00 PKD
ROOT
HETATM    1  N   UNL     1     -12.500  15.580  69.131  1.00  0.00    -0.595 NA 
HETATM    2  C   UNL     1     -12.075  14.369  68.738  1.00  0.00    -0.241 A  
HETATM    3  H1  UNL     1     -12.679  16.345  68.481  1.00  0.00     0.000 HD 
HETATM    4  H2  UNL     1     -12.651  15.743  70.126  1.00  0.00     0.000 HD 
HETATM    5  N   UNL     1     -11.845  13.387  69.571  1.00  0.00    -0.316 NA 
HETATM    6  C   UNL     1     -11.464  12.253  68.874  1.00  0.00    -0.304 A  
HETATM    7  C   UNL     1     -11.376  12.404  67.492  1.00  0.00    -0.315 A  
HETATM    8  C   UNL     1     -11.002  11.343  66.652  1.00  0.00    -0.341 A  
HETATM    9  S   UNL     1     -11.795  14.022  67.083  1.00  0.00    -0.421 SA 
HETATM   10  C   UNL     1     -10.704  10.099  67.226  1.00  0.00    -0.254 A  
HETATM   11  C   UNL     1     -10.826   9.916  68.599  1.00  0.00    -0.244 A  
HETATM   12  C   UNL     1     -11.185  10.989  69.431  1.00  0.00    -0.332 A  
ENDROOT
BRANCH  10  13
HETATM   13  O   UNL     1     -10.382   9.132  66.321  1.00  0.00    -0.244 OA 
HETATM   14  C   UNL     1      -9.059   9.054  65.808  1.00  0.00    -0.219 C  
HETATM   15  F   UNL     1      -8.248  10.055  66.206  1.00  0.00    -0.117 F  
HETATM   16  F   UNL     1      -8.510   7.877  66.173  1.00  0.00    -0.106 F  
HETATM   17  F   UNL     1      -9.125   9.086  64.457  1.00  0.00    -0.226 F  
ENDBRANCH  10  13
TORSDOF 1
ENDMDL
MODEL      101
REMARK 921   NORMALIZED FREE ENERGY PREDICTED BY IDOCK:   -3.95 KCAL/MOL
REMARK 922        TOTAL FREE ENERGY PREDICTED BY IDOCK:   -4.58 KCAL/MOL
REMARK 923 INTER-LIGAND FREE ENERGY PREDICTED BY IDOCK:   -4.23 KCAL/MOL
REMARK 924 INTRA-LIGAND FREE ENERGY PREDICTED BY IDOCK:   -0.35 KCAL/MOL
REMARK 927      BINDING AFFINITY PREDICTED BY RF-SCORE:    0.00 PKD
ROOT
HETATM    1  N   UNL     1      -7.851  11.948  68.894  1.00  0.00    -0.320 NA 
HETATM    2  C   UNL     1      -8.071  13.232  68.574  1.00  0.00    -0.094 A  
HETATM    3  H1  UNL     1      -8.345  11.172  68.454  1.00  0.00     0.000 HD 
HETATM    4  H2  UNL     1      -7.157  11.737  69.611  1.00  0.00     0.000 HD 
HETATM    5  N   UNL     1      -7.438  14.228  69.139  1.00  0.00    -0.103 NA 
HETATM    6  C   UNL     1      -7.839  15.426  68.574  1.00  0.00    -0.134 A  
HETATM    7  C   UNL     1      -8.820  15.323  67.589  1.00  0.00    -0.175 A  
HETATM    8  C   UNL     1      -9.327  16.452  66.926  1.00  0.00    -0.244 A  
HETATM    9  S   UNL     1      -9.225  13.664  67.382  1.00  0.00    -0.233 SA 
HETATM   10  C   UNL     1      -8.834  17.718  67.272  1.00  0.00    -0.238 A  
HETATM   11  C   UNL     1      -7.825  17.839  68.222  1.00  0.00    -0.279 A  
HETATM   12  C   UNL     1      -7.337  16.705  68.890  1.00  0.00    -0.225 A  
ENDROOT
BRANCH  10  13
HETATM   13  O   UNL     1      -9.371  18.740  66.548  1.00  0.00    -0.318 OA 
HETATM   14  C   UNL     1     -10.241  19.672  67.176  1.00  0.00    -0.435 C  
HETATM   15  F   UNL     1     -10.544  19.375  68.456  1.00  0.00    -0.439 F  
HETATM   16  F   UNL     1      -9.681  20.899  67.135  1.00  0.00    -0.595 F  
HETATM   17  F   UNL     1     -11.397  19.713  66.476  1.00  0.00    -0.400 F  
ENDBRANCH  10  13
TORSDOF 1
ENDMDL
MODEL      102
REMARK 921   NORMALIZED FREE ENERGY PREDICTED BY IDOCK:   -3.95 KCAL/MOL
REMARK 922        TOTAL FREE ENERGY PREDICTED BY IDOCK:   -4.58 KCAL/MOL
REMARK 923 INTER-LIGAND FREE ENERGY PREDICTED BY IDOCK:   -4.19 KCAL/MOL
REMARK 924 INTRA-LIGAND FREE ENERGY PREDICTED BY IDOCK:   -0.39 KCAL/MOL
REMARK 927      BINDING AFFINITY PREDICTED BY RF-SCORE:    0.00 PKD
ROOT
HETATM    1  N   UNL     1     -10.416  17.892  67.546  1.00  0.00    -0.383 NA 
HETATM    2  C   UNL     1     -10.396  16.550  67.565  1.00  0.00    -0.294 A  
HETATM    3  H1  UNL     1      -9.630  18.457  67.227  1.00  0.00     0.000 HD 
HETATM    4  H2  UNL     1     -11.258  18.370  67.867  1.00  0.00     0.000 HD 
HETATM    5  N   UNL     1     -11.405  15.826  67.976  1.00  0.00    -0.338 NA 
HETATM    6  C   UNL     1     -11.111  14.481  67.836  1.00  0.00    -0.279 A  
HETATM    7  C   UNL     1      -9.839  14.196  67.342  1.00  0.00    -0.239 A  
HETATM    8  C   UNL     1      -9.397  12.878  67.147  1.00  0.00    -0.229 A  
HETATM    9  S   UNL     1      -9.015  15.677  67.046  1.00  0.00    -0.240 SA 
HETATM   10  C   UNL     1     -10.260  11.821  67.465  1.00  0.00    -0.195 A  
HETATM   11  C   UNL     1     -11.548  12.083  67.918  1.00  0.00    -0.405 A  
HETATM   12  C   UNL     1     -11.974  13.405  68.126  1.00  0.00    -0.356 A  
ENDROOT
BRANCH  10  13
HETATM   13  O   UNL     1      -9.745  10.585  67.209  1.00  0.00    -0.164 OA 
HETATM   14  C   UNL     1      -9.949   9.981  65.939  1.00  0.00    -0.269 C  
HETATM   15  F   UNL     1     -10.759  10.678  65.115  1.00  0.00    -0.334 F  
HETATM   16  F   UNL     1      -8.756   9.808  65.333  1.00  0.00    -0.134 F  
HETATM   17  F   UNL     1     -10.504   8.763  66.132  1.00  0.00    -0.329 F  
ENDBRANCH  10  13
TORSDOF 1
ENDMDL
MODEL      103
REMARK 921   NORMALIZED FREE ENERGY PREDICTED BY IDOCK:   -3.94 KCAL/MOL
REMARK 922        TOTAL FREE ENERGY PREDICTED BY IDOCK:   -4.57 KCAL/MOL
REMARK 923 INTER-LIGAND FREE ENERGY PREDICTED BY IDOCK:   -4.20 KCAL/MOL
REMARK 924 INTRA-LIGAND FREE ENERGY PREDICTED BY IDOCK:   -0.37 KCAL/MOL
REMARK 927      BINDING AFFINITY PREDICTED BY RF-SCORE:    0.00 PKD
ROOT
HETATM    1  N   UNL     1     -14.013  14.318  72.348  1.00  0.00    -0.537 NA 
HETATM    2  C   UNL     1     -13.384  13.234  71.867  1.00  0.00    -0.451 A  
HETATM    3  H1  UNL     1     -13.977  15.230  71.893  1.00  0.00     0.000 HD 
HETATM    4  H2  UNL     1     -14.552  14.226  73.209  1.00  0.00     0.000 HD 
HETATM    5  N   UNL     1     -13.429  12.064  72.451  1.00  0.00    -0.219 NA 
HETATM    6  C   UNL     1     -12.728  11.134  71.704  1.00  0.00    -0.360 A  
HETATM    7  C   UNL     1     -12.117  11.631  70.554  1.00  0.00    -0.366 A  
HETATM    8  C   UNL     1     -11.371  10.807  69.696  1.00  0.00    -0.362 A  
HETATM    9  S   UNL     1     -12.456  13.313  70.429  1.00  0.00    -0.167 SA 
HETATM   10  C   UNL     1     -11.234   9.448  70.012  1.00  0.00    -0.190 A  
HETATM   11  C   UNL     1     -11.870   8.924  71.132  1.00  0.00    -0.353 A  
HETATM   12  C   UNL     1     -12.600   9.760  71.992  1.00  0.00    -0.432 A  
ENDROOT
BRANCH  10  13
HETATM   13  O   UNL     1     -10.517   8.734  69.099  1.00  0.00    -0.222 OA 
HETATM   14  C   UNL     1      -9.198   8.308  69.411  1.00  0.00    -0.155 C  
HETATM   15  F   UNL     1      -8.730   8.765  70.590  1.00  0.00    -0.127 F  
HETATM   16  F   UNL     1      -9.157   6.960  69.419  1.00  0.00    -0.139 F  
HETATM   17  F   UNL     1      -8.368   8.748  68.437  1.00  0.00    -0.119 F  
ENDBRANCH  10  13
TORSDOF 1
ENDMDL
MODEL      104
REMARK 921   NORMALIZED FREE ENERGY PREDICTED BY IDOCK:   -3.94 KCAL/MOL
REMARK 922        TOTAL FREE ENERGY PREDICTED BY IDOCK:   -4.57 KCAL/MOL
REMARK 923 INTER-LIGAND FREE ENERGY PREDICTED BY IDOCK:   -4.34 KCAL/MOL
REMARK 924 INTRA-LIGAND FREE ENERGY PREDICTED BY IDOCK:   -0.23 KCAL/MOL
REMARK 927      BINDING AFFINITY PREDICTED BY RF-SCORE:    0.00 PKD
ROOT
HETATM    1  N   UNL     1      -9.877  12.858  65.084  1.00  0.00    -0.496 NA 
HETATM    2  C   UNL     1     -10.051  12.261  66.274  1.00  0.00    -0.234 A  
HETATM    3  H1  UNL     1      -9.089  12.654  64.469  1.00  0.00     0.000 HD 
HETATM    4  H2  UNL     1     -10.565  13.547  64.780  1.00  0.00     0.000 HD 
HETATM    5  N   UNL     1     -11.061  12.523  67.063  1.00  0.00    -0.267 NA 
HETATM    6  C   UNL     1     -11.000  11.724  68.192  1.00  0.00    -0.228 A  
HETATM    7  C   UNL     1      -9.899  10.873  68.261  1.00  0.00    -0.170 A  
HETATM    8  C   UNL     1      -9.700  10.004  69.346  1.00  0.00    -0.240 A  
HETATM    9  S   UNL     1      -8.935  11.097  66.853  1.00  0.00    -0.165 SA 
HETATM   10  C   UNL     1     -10.635  10.001  70.390  1.00  0.00    -0.280 A  
HETATM   11  C   UNL     1     -11.763  10.812  70.321  1.00  0.00    -0.442 A  
HETATM   12  C   UNL     1     -11.943  11.689  69.239  1.00  0.00    -0.382 A  
ENDROOT
BRANCH  10  13
HETATM   13  O   UNL     1     -10.364   9.101  71.377  1.00  0.00    -0.297 OA 
HETATM   14  C   UNL     1     -11.204   7.968  71.553  1.00  0.00    -0.255 C  
HETATM   15  F   UNL     1     -12.294   7.955  70.758  1.00  0.00    -0.264 F  
HETATM   16  F   UNL     1     -10.489   6.846  71.330  1.00  0.00    -0.212 F  
HETATM   17  F   UNL     1     -11.628   7.949  72.837  1.00  0.00    -0.410 F  
ENDBRANCH  10  13
TORSDOF 1
ENDMDL
MODEL      105
REMARK 921   NORMALIZED FREE ENERGY PREDICTED BY IDOCK:   -3.92 KCAL/MOL
REMARK 922        TOTAL FREE ENERGY PREDICTED BY IDOCK:   -4.54 KCAL/MOL
REMARK 923 INTER-LIGAND FREE ENERGY PREDICTED BY IDOCK:   -4.16 KCAL/MOL
REMARK 924 INTRA-LIGAND FREE ENERGY PREDICTED BY IDOCK:   -0.39 KCAL/MOL
REMARK 927      BINDING AFFINITY PREDICTED BY RF-SCORE:    0.00 PKD
ROOT
HETATM    1  N   UNL     1      -5.485   9.895  70.164  1.00  0.00    -0.040 NA 
HETATM    2  C   UNL     1      -6.739   9.529  70.474  1.00  0.00    -0.101 A  
HETATM    3  H1  UNL     1      -5.233  10.317  69.270  1.00  0.00     0.000 HD 
HETATM    4  H2  UNL     1      -4.749   9.744  70.854  1.00  0.00     0.000 HD 
HETATM    5  N   UNL     1      -7.061   8.987  71.621  1.00  0.00    -0.286 NA 
HETATM    6  C   UNL     1      -8.426   8.762  71.671  1.00  0.00    -0.141 A  
HETATM    7  C   UNL     1      -9.131   9.113  70.521  1.00  0.00    -0.241 A  
HETATM    8  C   UNL     1     -10.522   8.943  70.423  1.00  0.00    -0.245 A  
HETATM    9  S   UNL     1      -8.026   9.747  69.365  1.00  0.00    -0.140 SA 
HETATM   10  C   UNL     1     -11.215   8.398  71.512  1.00  0.00    -0.267 A  
HETATM   11  C   UNL     1     -10.537   8.081  72.684  1.00  0.00    -0.419 A  
HETATM   12  C   UNL     1      -9.144   8.240  72.765  1.00  0.00    -0.332 A  
ENDROOT
BRANCH  10  13
HETATM   13  O   UNL     1     -12.562   8.305  71.324  1.00  0.00    -0.296 OA 
HETATM   14  C   UNL     1     -13.406   9.386  71.695  1.00  0.00    -0.404 C  
HETATM   15  F   UNL     1     -12.771  10.397  72.323  1.00  0.00    -0.454 F  
HETATM   16  F   UNL     1     -14.016   9.871  70.595  1.00  0.00    -0.305 F  
HETATM   17  F   UNL     1     -14.359   8.913  72.531  1.00  0.00    -0.484 F  
ENDBRANCH  10  13
TORSDOF 1
ENDMDL
MODEL      106
REMARK 921   NORMALIZED FREE ENERGY PREDICTED BY IDOCK:   -3.91 KCAL/MOL
REMARK 922        TOTAL FREE ENERGY PREDICTED BY IDOCK:   -4.53 KCAL/MOL
REMARK 923 INTER-LIGAND FREE ENERGY PREDICTED BY IDOCK:   -4.16 KCAL/MOL
REMARK 924 INTRA-LIGAND FREE ENERGY PREDICTED BY IDOCK:   -0.37 KCAL/MOL
REMARK 927      BINDING AFFINITY PREDICTED BY RF-SCORE:    0.00 PKD
ROOT
HETATM    1  N   UNL     1     -11.158  17.369  69.213  1.00  0.00    -0.083 NA 
HETATM    2  C   UNL     1     -11.254  16.084  68.836  1.00  0.00    -0.353 A  
HETATM    3  H1  UNL     1     -11.244  17.672  70.183  1.00  0.00     0.000 HD 
HETATM    4  H2  UNL     1     -10.991  18.075  68.496  1.00  0.00     0.000 HD 
HETATM    5  N   UNL     1     -11.145  15.695  67.592  1.00  0.00    -0.323 NA 
HETATM    6  C   UNL     1     -11.240  14.316  67.517  1.00  0.00    -0.307 A  
HETATM    7  C   UNL     1     -11.461  13.666  68.730  1.00  0.00    -0.309 A  
HETATM    8  C   UNL     1     -11.580  12.270  68.812  1.00  0.00    -0.380 A  
HETATM    9  S   UNL     1     -11.538  14.843  69.983  1.00  0.00    -0.308 SA 
HETATM   10  C   UNL     1     -11.480  11.512  67.637  1.00  0.00    -0.285 A  
HETATM   11  C   UNL     1     -11.218  12.137  66.423  1.00  0.00    -0.380 A  
HETATM   12  C   UNL     1     -11.118  13.536  66.349  1.00  0.00    -0.311 A  
ENDROOT
BRANCH  10  13
HETATM   13  O   UNL     1     -11.580  10.167  67.833  1.00  0.00    -0.256 OA 
HETATM   14  C   UNL     1     -10.403   9.381  67.960  1.00  0.00    -0.220 C  
HETATM   15  F   UNL     1      -9.255  10.061  67.759  1.00  0.00    -0.132 F  
HETATM   16  F   UNL     1     -10.371   8.826  69.189  1.00  0.00    -0.197 F  
HETATM   17  F   UNL     1     -10.457   8.382  67.049  1.00  0.00    -0.319 F  
ENDBRANCH  10  13
TORSDOF 1
ENDMDL
MODEL      107
REMARK 921   NORMALIZED FREE ENERGY PREDICTED BY IDOCK:   -3.91 KCAL/MOL
REMARK 922        TOTAL FREE ENERGY PREDICTED BY IDOCK:   -4.53 KCAL/MOL
REMARK 923 INTER-LIGAND FREE ENERGY PREDICTED BY IDOCK:   -4.16 KCAL/MOL
REMARK 924 INTRA-LIGAND FREE ENERGY PREDICTED BY IDOCK:   -0.37 KCAL/MOL
REMARK 927      BINDING AFFINITY PREDICTED BY RF-SCORE:    0.00 PKD
ROOT
HETATM    1  N   UNL     1      -8.191  10.750  65.993  1.00  0.00    -0.162 NA 
HETATM    2  C   UNL     1      -8.672  11.754  66.742  1.00  0.00    -0.192 A  
HETATM    3  H1  UNL     1      -8.785  10.039  65.567  1.00  0.00     0.000 HD 
HETATM    4  H2  UNL     1      -7.184  10.696  65.841  1.00  0.00     0.000 HD 
HETATM    5  N   UNL     1      -7.910  12.666  67.289  1.00  0.00    -0.172 NA 
HETATM    6  C   UNL     1      -8.688  13.593  67.960  1.00  0.00    -0.176 A  
HETATM    7  C   UNL     1     -10.059  13.346  67.943  1.00  0.00    -0.238 A  
HETATM    8  C   UNL     1     -10.975  14.199  68.581  1.00  0.00    -0.275 A  
HETATM    9  S   UNL     1     -10.352  11.908  67.044  1.00  0.00    -0.216 SA 
HETATM   10  C   UNL     1     -10.491  15.325  69.260  1.00  0.00    -0.258 A  
HETATM   11  C   UNL     1      -9.130  15.613  69.254  1.00  0.00    -0.270 A  
HETATM   12  C   UNL     1      -8.222  14.745  68.626  1.00  0.00    -0.159 A  
ENDROOT
BRANCH  10  13
HETATM   13  O   UNL     1     -11.464  16.100  69.817  1.00  0.00    -0.321 OA 
HETATM   14  C   UNL     1     -11.910  15.833  71.139  1.00  0.00    -0.425 C  
HETATM   15  F   UNL     1     -11.377  14.725  71.694  1.00  0.00    -0.376 F  
HETATM   16  F   UNL     1     -11.628  16.893  71.925  1.00  0.00    -0.443 F  
HETATM   17  F   UNL     1     -13.253  15.676  71.111  1.00  0.00    -0.481 F  
ENDBRANCH  10  13
TORSDOF 1
ENDMDL
MODEL      108
REMARK 921   NORMALIZED FREE ENERGY PREDICTED BY IDOCK:   -3.87 KCAL/MOL
REMARK 922        TOTAL FREE ENERGY PREDICTED BY IDOCK:   -4.49 KCAL/MOL
REMARK 923 INTER-LIGAND FREE ENERGY PREDICTED BY IDOCK:   -4.10 KCAL/MOL
REMARK 924 INTRA-LIGAND FREE ENERGY PREDICTED BY IDOCK:   -0.39 KCAL/MOL
REMARK 927      BINDING AFFINITY PREDICTED BY RF-SCORE:    0.00 PKD
ROOT
HETATM    1  N   UNL     1      -9.611  11.622  65.015  1.00  0.00    -0.352 NA 
HETATM    2  C   UNL     1      -9.837  10.803  66.054  1.00  0.00    -0.235 A  
HETATM    3  H1  UNL     1      -9.392  12.612  65.124  1.00  0.00     0.000 HD 
HETATM    4  H2  UNL     1      -9.661  11.237  64.072  1.00  0.00     0.000 HD 
HETATM    5  N   UNL     1     -10.118   9.533  65.914  1.00  0.00    -0.273 NA 
HETATM    6  C   UNL     1     -10.251   8.938  67.157  1.00  0.00    -0.269 A  
HETATM    7  C   UNL     1     -10.101   9.792  68.247  1.00  0.00    -0.163 A  
HETATM    8  C   UNL     1     -10.210   9.333  69.570  1.00  0.00    -0.214 A  
HETATM    9  S   UNL     1      -9.775  11.379  67.667  1.00  0.00    -0.175 SA 
HETATM   10  C   UNL     1     -10.485   7.977  69.795  1.00  0.00    -0.227 A  
HETATM   11  C   UNL     1     -10.596   7.100  68.722  1.00  0.00    -0.219 A  
HETATM   12  C   UNL     1     -10.502   7.572  67.403  1.00  0.00    -0.367 A  
ENDROOT
BRANCH  10  13
HETATM   13  O   UNL     1     -10.539   7.632  71.112  1.00  0.00    -0.220 OA 
HETATM   14  C   UNL     1     -11.799   7.441  71.742  1.00  0.00    -0.294 C  
HETATM   15  F   UNL     1     -12.860   7.736  70.965  1.00  0.00    -0.298 F  
HETATM   16  F   UNL     1     -11.900   6.158  72.149  1.00  0.00    -0.329 F  
HETATM   17  F   UNL     1     -11.852   8.235  72.836  1.00  0.00    -0.462 F  
ENDBRANCH  10  13
TORSDOF 1
ENDMDL
MODEL      109
REMARK 921   NORMALIZED FREE ENERGY PREDICTED BY IDOCK:   -3.86 KCAL/MOL
REMARK 922        TOTAL FREE ENERGY PREDICTED BY IDOCK:   -4.48 KCAL/MOL
REMARK 923 INTER-LIGAND FREE ENERGY PREDICTED BY IDOCK:   -4.10 KCAL/MOL
REMARK 924 INTRA-LIGAND FREE ENERGY PREDICTED BY IDOCK:   -0.38 KCAL/MOL
REMARK 927      BINDING AFFINITY PREDICTED BY RF-SCORE:    0.00 PKD
ROOT
HETATM    1  N   UNL     1     -11.655   7.453  73.250  1.00  0.00    -0.572 NA 
HETATM    2  C   UNL     1     -11.353   7.557  71.947  1.00  0.00    -0.260 A  
HETATM    3  H1  UNL     1     -11.636   8.246  73.891  1.00  0.00     0.000 HD 
HETATM    4  H2  UNL     1     -11.915   6.538  73.618  1.00  0.00     0.000 HD 
HETATM    5  N   UNL     1     -11.377   6.540  71.124  1.00  0.00    -0.299 NA 
HETATM    6  C   UNL     1     -11.068   6.960  69.842  1.00  0.00    -0.288 A  
HETATM    7  C   UNL     1     -10.772   8.316  69.713  1.00  0.00    -0.221 A  
HETATM    8  C   UNL     1     -10.440   8.887  68.475  1.00  0.00    -0.218 A  
HETATM    9  S   UNL     1     -10.903   9.061  71.258  1.00  0.00    -0.345 SA 
HETATM   10  C   UNL     1     -10.398   8.066  67.339  1.00  0.00    -0.284 A  
HETATM   11  C   UNL     1     -10.730   6.719  67.439  1.00  0.00    -0.405 A  
HETATM   12  C   UNL     1     -11.045   6.154  68.685  1.00  0.00    -0.378 A  
ENDROOT
BRANCH  10  13
HETATM   13  O   UNL     1     -10.095   8.726  66.187  1.00  0.00    -0.269 OA 
HETATM   14  C   UNL     1      -8.741   8.831  65.765  1.00  0.00    -0.179 C  
HETATM   15  F   UNL     1      -7.845   8.336  66.644  1.00  0.00    -0.089 F  
HETATM   16  F   UNL     1      -8.593   8.194  64.586  1.00  0.00    -0.157 F  
HETATM   17  F   UNL     1      -8.456  10.140  65.575  1.00  0.00    -0.132 F  
ENDBRANCH  10  13
TORSDOF 1
ENDMDL
MODEL      110
REMARK 921   NORMALIZED FREE ENERGY PREDICTED BY IDOCK:   -3.85 KCAL/MOL
REMARK 922        TOTAL FREE ENERGY PREDICTED BY IDOCK:   -4.47 KCAL/MOL
REMARK 923 INTER-LIGAND FREE ENERGY PREDICTED BY IDOCK:   -4.12 KCAL/MOL
REMARK 924 INTRA-LIGAND FREE ENERGY PREDICTED BY IDOCK:   -0.36 KCAL/MOL
REMARK 927      BINDING AFFINITY PREDICTED BY RF-SCORE:    0.00 PKD
ROOT
HETATM    1  N   UNL     1      -5.478  11.442  65.897  1.00  0.00    -0.473 NA 
HETATM    2  C   UNL     1      -6.730  11.311  66.362  1.00  0.00    -0.065 A  
HETATM    3  H1  UNL     1      -4.902  12.265  66.073  1.00  0.00     0.000 HD 
HETATM    4  H2  UNL     1      -5.083  10.683  65.341  1.00  0.00     0.000 HD 
HETATM    5  N   UNL     1      -7.469  10.256  66.136  1.00  0.00    -0.115 NA 
HETATM    6  C   UNL     1      -8.689  10.385  66.778  1.00  0.00    -0.127 A  
HETATM    7  C   UNL     1      -8.875  11.581  67.469  1.00  0.00    -0.155 A  
HETATM    8  C   UNL     1     -10.061  11.856  68.168  1.00  0.00    -0.200 A  
HETATM    9  S   UNL     1      -7.461  12.546  67.298  1.00  0.00    -0.084 SA 
HETATM   10  C   UNL     1     -11.087  10.901  68.163  1.00  0.00    -0.280 A  
HETATM   11  C   UNL     1     -10.905   9.684  67.515  1.00  0.00    -0.265 A  
HETATM   12  C   UNL     1      -9.722   9.426  66.805  1.00  0.00    -0.257 A  
ENDROOT
BRANCH  10  13
HETATM   13  O   UNL     1     -12.180  11.255  68.896  1.00  0.00    -0.494 OA 
HETATM   14  C   UNL     1     -12.178  11.073  70.305  1.00  0.00    -0.363 C  
HETATM   15  F   UNL     1     -11.085  10.441  70.782  1.00  0.00    -0.366 F  
HETATM   16  F   UNL     1     -12.284  12.275  70.908  1.00  0.00    -0.444 F  
HETATM   17  F   UNL     1     -13.261  10.336  70.641  1.00  0.00    -0.427 F  
ENDBRANCH  10  13
TORSDOF 1
ENDMDL
MODEL      111
REMARK 921   NORMALIZED FREE ENERGY PREDICTED BY IDOCK:   -3.83 KCAL/MOL
REMARK 922        TOTAL FREE ENERGY PREDICTED BY IDOCK:   -4.45 KCAL/MOL
REMARK 923 INTER-LIGAND FREE ENERGY PREDICTED BY IDOCK:   -4.09 KCAL/MOL
REMARK 924 INTRA-LIGAND FREE ENERGY PREDICTED BY IDOCK:   -0.36 KCAL/MOL
REMARK 927      BINDING AFFINITY PREDICTED BY RF-SCORE:    0.00 PKD
ROOT
HETATM    1  N   UNL     1      -7.536   4.800  68.528  1.00  0.00    -0.072 NA 
HETATM    2  C   UNL     1      -8.352   5.519  69.315  1.00  0.00    -0.101 A  
HETATM    3  H1  UNL     1      -7.876   4.126  67.842  1.00  0.00     0.000 HD 
HETATM    4  H2  UNL     1      -6.529   4.934  68.620  1.00  0.00     0.000 HD 
HETATM    5  N   UNL     1      -7.916   6.383  70.195  1.00  0.00    -0.110 NA 
HETATM    6  C   UNL     1      -8.984   7.003  70.820  1.00  0.00    -0.150 A  
HETATM    7  C   UNL     1     -10.245   6.564  70.421  1.00  0.00    -0.193 A  
HETATM    8  C   UNL     1     -11.423   7.098  70.967  1.00  0.00    -0.331 A  
HETATM    9  S   UNL     1     -10.054   5.346  69.220  1.00  0.00    -0.244 SA 
HETATM   10  C   UNL     1     -11.324   8.096  71.945  1.00  0.00    -0.296 A  
HETATM   11  C   UNL     1     -10.076   8.578  72.327  1.00  0.00    -0.386 A  
HETATM   12  C   UNL     1      -8.904   8.025  71.787  1.00  0.00    -0.184 A  
ENDROOT
BRANCH  10  13
HETATM   13  O   UNL     1     -12.525   8.566  72.385  1.00  0.00    -0.373 OA 
HETATM   14  C   UNL     1     -13.230   9.535  71.621  1.00  0.00    -0.406 C  
HETATM   15  F   UNL     1     -12.557   9.990  70.544  1.00  0.00    -0.328 F  
HETATM   16  F   UNL     1     -14.403   9.010  71.212  1.00  0.00    -0.412 F  
HETATM   17  F   UNL     1     -13.497  10.593  72.419  1.00  0.00    -0.502 F  
ENDBRANCH  10  13
TORSDOF 1
ENDMDL
MODEL      112
REMARK 921   NORMALIZED FREE ENERGY PREDICTED BY IDOCK:   -3.80 KCAL/MOL
REMARK 922        TOTAL FREE ENERGY PREDICTED BY IDOCK:   -4.42 KCAL/MOL
REMARK 923 INTER-LIGAND FREE ENERGY PREDICTED BY IDOCK:   -4.04 KCAL/MOL
REMARK 924 INTRA-LIGAND FREE ENERGY PREDICTED BY IDOCK:   -0.38 KCAL/MOL
REMARK 927      BINDING AFFINITY PREDICTED BY RF-SCORE:    0.00 PKD
ROOT
HETATM    1  N   UNL     1      -6.024  14.571  70.457  1.00  0.00    -0.168 NA 
HETATM    2  C   UNL     1      -6.854  14.268  69.447  1.00  0.00    -0.122 A  
HETATM    3  H1  UNL     1      -6.032  15.474  70.932  1.00  0.00     0.000 HD 
HETATM    4  H2  UNL     1      -5.355  13.866  70.765  1.00  0.00     0.000 HD 
HETATM    5  N   UNL     1      -6.845  13.110  68.838  1.00  0.00    -0.102 NA 
HETATM    6  C   UNL     1      -7.839  13.074  67.875  1.00  0.00    -0.149 A  
HETATM    7  C   UNL     1      -8.583  14.244  67.741  1.00  0.00    -0.177 A  
HETATM    8  C   UNL     1      -9.625  14.357  66.806  1.00  0.00    -0.279 A  
HETATM    9  S   UNL     1      -8.003  15.403  68.872  1.00  0.00    -0.195 SA 
HETATM   10  C   UNL     1      -9.916  13.262  65.982  1.00  0.00    -0.292 A  
HETATM   11  C   UNL     1      -9.214  12.071  66.129  1.00  0.00    -0.181 A  
HETATM   12  C   UNL     1      -8.163  11.974  67.055  1.00  0.00    -0.169 A  
ENDROOT
BRANCH  10  13
HETATM   13  O   UNL     1     -10.963  13.467  65.133  1.00  0.00    -0.299 OA 
HETATM   14  C   UNL     1     -12.273  13.074  65.516  1.00  0.00    -0.469 C  
HETATM   15  F   UNL     1     -12.334  12.410  66.689  1.00  0.00    -0.354 F  
HETATM   16  F   UNL     1     -13.061  14.166  65.592  1.00  0.00    -0.560 F  
HETATM   17  F   UNL     1     -12.771  12.262  64.556  1.00  0.00    -0.519 F  
ENDBRANCH  10  13
TORSDOF 1
ENDMDL
MODEL      113
REMARK 921   NORMALIZED FREE ENERGY PREDICTED BY IDOCK:   -3.80 KCAL/MOL
REMARK 922        TOTAL FREE ENERGY PREDICTED BY IDOCK:   -4.41 KCAL/MOL
REMARK 923 INTER-LIGAND FREE ENERGY PREDICTED BY IDOCK:   -4.01 KCAL/MOL
REMARK 924 INTRA-LIGAND FREE ENERGY PREDICTED BY IDOCK:   -0.40 KCAL/MOL
REMARK 927      BINDING AFFINITY PREDICTED BY RF-SCORE:    0.00 PKD
ROOT
HETATM    1  N   UNL     1     -10.376   4.515  65.020  1.00  0.00    -0.434 NA 
HETATM    2  C   UNL     1     -10.315   4.932  66.295  1.00  0.00    -0.298 A  
HETATM    3  H1  UNL     1     -10.696   5.108  64.255  1.00  0.00     0.000 HD 
HETATM    4  H2  UNL     1     -10.089   3.560  64.807  1.00  0.00     0.000 HD 
HETATM    5  N   UNL     1      -9.904   4.171  67.276  1.00  0.00    -0.171 NA 
HETATM    6  C   UNL     1      -9.905   4.885  68.462  1.00  0.00    -0.141 A  
HETATM    7  C   UNL     1     -10.361   6.199  68.367  1.00  0.00    -0.200 A  
HETATM    8  C   UNL     1     -10.420   7.046  69.485  1.00  0.00    -0.235 A  
HETATM    9  S   UNL     1     -10.784   6.522  66.731  1.00  0.00    -0.214 SA 
HETATM   10  C   UNL     1     -10.015   6.550  70.732  1.00  0.00    -0.184 A  
HETATM   11  C   UNL     1      -9.518   5.256  70.841  1.00  0.00    -0.216 A  
HETATM   12  C   UNL     1      -9.479   4.412  69.719  1.00  0.00    -0.254 A  
ENDROOT
BRANCH  10  13
HETATM   13  O   UNL     1     -10.084   7.463  71.742  1.00  0.00    -0.176 OA 
HETATM   14  C   UNL     1     -11.232   7.507  72.579  1.00  0.00    -0.331 C  
HETATM   15  F   UNL     1     -12.226   6.676  72.204  1.00  0.00    -0.333 F  
HETATM   16  F   UNL     1     -10.870   7.212  73.844  1.00  0.00    -0.399 F  
HETATM   17  F   UNL     1     -11.719   8.769  72.564  1.00  0.00    -0.427 F  
ENDBRANCH  10  13
TORSDOF 1
ENDMDL
MODEL      114
REMARK 921   NORMALIZED FREE ENERGY PREDICTED BY IDOCK:   -3.77 KCAL/MOL
REMARK 922        TOTAL FREE ENERGY PREDICTED BY IDOCK:   -4.39 KCAL/MOL
REMARK 923 INTER-LIGAND FREE ENERGY PREDICTED BY IDOCK:   -4.00 KCAL/MOL
REMARK 924 INTRA-LIGAND FREE ENERGY PREDICTED BY IDOCK:   -0.39 KCAL/MOL
REMARK 927      BINDING AFFINITY PREDICTED BY RF-SCORE:    0.00 PKD
ROOT
HETATM    1  N   UNL     1     -12.758  12.414  71.097  1.00  0.00    -0.313 NA 
HETATM    2  C   UNL     1     -12.447  11.113  70.988  1.00  0.00    -0.403 A  
HETATM    3  H1  UNL     1     -12.320  13.141  70.531  1.00  0.00     0.000 HD 
HETATM    4  H2  UNL     1     -13.466  12.690  71.777  1.00  0.00     0.000 HD 
HETATM    5  N   UNL     1     -13.009  10.181  71.714  1.00  0.00    -0.434 NA 
HETATM    6  C   UNL     1     -12.523   8.938  71.347  1.00  0.00    -0.304 A  
HETATM    7  C   UNL     1     -11.551   8.947  70.349  1.00  0.00    -0.101 A  
HETATM    8  C   UNL     1     -10.965   7.763  69.873  1.00  0.00    -0.194 A  
HETATM    9  S   UNL     1     -11.265  10.575  69.870  1.00  0.00    -0.324 SA 
HETATM   10  C   UNL     1     -11.367   6.540  70.426  1.00  0.00    -0.383 A  
HETATM   11  C   UNL     1     -12.365   6.505  71.394  1.00  0.00    -0.254 A  
HETATM   12  C   UNL     1     -12.933   7.696  71.874  1.00  0.00    -0.299 A  
ENDROOT
BRANCH  10  13
HETATM   13  O   UNL     1     -10.759   5.453  69.873  1.00  0.00    -0.316 OA 
HETATM   14  C   UNL     1      -9.716   4.791  70.575  1.00  0.00    -0.211 C  
HETATM   15  F   UNL     1      -9.346   5.397  71.722  1.00  0.00    -0.149 F  
HETATM   16  F   UNL     1     -10.101   3.528  70.854  1.00  0.00    -0.235 F  
HETATM   17  F   UNL     1      -8.631   4.732  69.770  1.00  0.00    -0.079 F  
ENDBRANCH  10  13
TORSDOF 1
ENDMDL
MODEL      115
REMARK 921   NORMALIZED FREE ENERGY PREDICTED BY IDOCK:   -3.75 KCAL/MOL
REMARK 922        TOTAL FREE ENERGY PREDICTED BY IDOCK:   -4.36 KCAL/MOL
REMARK 923 INTER-LIGAND FREE ENERGY PREDICTED BY IDOCK:   -3.99 KCAL/MOL
REMARK 924 INTRA-LIGAND FREE ENERGY PREDICTED BY IDOCK:   -0.37 KCAL/MOL
REMARK 927      BINDING AFFINITY PREDICTED BY RF-SCORE:    0.00 PKD
ROOT
HETATM    1  N   UNL     1     -10.776   7.084  68.137  1.00  0.00    -0.340 NA 
HETATM    2  C   UNL     1     -10.581   8.384  67.864  1.00  0.00    -0.154 A  
HETATM    3  H1  UNL     1     -10.906   6.728  69.084  1.00  0.00     0.000 HD 
HETATM    4  H2  UNL     1     -10.794   6.421  67.362  1.00  0.00     0.000 HD 
HETATM    5  N   UNL     1     -10.414   8.840  66.649  1.00  0.00    -0.230 NA 
HETATM    6  C   UNL     1     -10.284  10.218  66.675  1.00  0.00    -0.233 A  
HETATM    7  C   UNL     1     -10.320  10.797  67.942  1.00  0.00    -0.185 A  
HETATM    8  C   UNL     1     -10.201  12.184  68.128  1.00  0.00    -0.203 A  
HETATM    9  S   UNL     1     -10.533   9.555  69.114  1.00  0.00    -0.214 SA 
HETATM   10  C   UNL     1     -10.034  13.005  67.004  1.00  0.00    -0.242 A  
HETATM   11  C   UNL     1     -10.037  12.452  65.728  1.00  0.00    -0.273 A  
HETATM   12  C   UNL     1     -10.141  11.062  65.555  1.00  0.00    -0.316 A  
ENDROOT
BRANCH  10  13
HETATM   13  O   UNL     1      -9.959  14.335  67.293  1.00  0.00    -0.246 OA 
HETATM   14  C   UNL     1     -11.125  15.143  67.219  1.00  0.00    -0.332 C  
HETATM   15  F   UNL     1     -12.215  14.504  66.746  1.00  0.00    -0.421 F  
HETATM   16  F   UNL     1     -11.405  15.632  68.445  1.00  0.00    -0.292 F  
HETATM   17  F   UNL     1     -10.868  16.186  66.398  1.00  0.00    -0.311 F  
ENDBRANCH  10  13
TORSDOF 1
ENDMDL
MODEL      116
REMARK 921   NORMALIZED FREE ENERGY PREDICTED BY IDOCK:   -3.69 KCAL/MOL
REMARK 922        TOTAL FREE ENERGY PREDICTED BY IDOCK:   -4.30 KCAL/MOL
REMARK 923 INTER-LIGAND FREE ENERGY PREDICTED BY IDOCK:   -4.01 KCAL/MOL
REMARK 924 INTRA-LIGAND FREE ENERGY PREDICTED BY IDOCK:   -0.29 KCAL/MOL
REMARK 927      BINDING AFFINITY PREDICTED BY RF-SCORE:    0.00 PKD
ROOT
HETATM    1  N   UNL     1     -13.110  14.057  73.403  1.00  0.00    -0.371 NA 
HETATM    2  C   UNL     1     -12.718  14.424  72.173  1.00  0.00    -0.323 A  
HETATM    3  H1  UNL     1     -13.663  13.220  73.585  1.00  0.00     0.000 HD 
HETATM    4  H2  UNL     1     -12.842  14.642  74.194  1.00  0.00     0.000 HD 
HETATM    5  N   UNL     1     -12.009  15.498  71.940  1.00  0.00    -0.380 NA 
HETATM    6  C   UNL     1     -11.719  15.591  70.590  1.00  0.00    -0.357 A  
HETATM    7  C   UNL     1     -12.254  14.580  69.794  1.00  0.00    -0.312 A  
HETATM    8  C   UNL     1     -12.045  14.540  68.406  1.00  0.00    -0.249 A  
HETATM    9  S   UNL     1     -13.134  13.493  70.796  1.00  0.00     0.092 SA 
HETATM   10  C   UNL     1     -11.282  15.552  67.807  1.00  0.00    -0.302 A  
HETATM   11  C   UNL     1     -10.704  16.546  68.589  1.00  0.00    -0.334 A  
HETATM   12  C   UNL     1     -10.932  16.586  69.974  1.00  0.00    -0.245 A  
ENDROOT
BRANCH  10  13
HETATM   13  O   UNL     1     -11.116  15.402  66.463  1.00  0.00    -0.308 OA 
HETATM   14  C   UNL     1      -9.863  14.972  65.947  1.00  0.00    -0.338 C  
HETATM   15  F   UNL     1      -8.891  14.854  66.875  1.00  0.00    -0.211 F  
HETATM   16  F   UNL     1     -10.022  13.784  65.329  1.00  0.00    -0.321 F  
HETATM   17  F   UNL     1      -9.451  15.874  65.027  1.00  0.00    -0.051 F  
ENDBRANCH  10  13
TORSDOF 1
ENDMDL
MODEL      117
REMARK 921   NORMALIZED FREE ENERGY PREDICTED BY IDOCK:   -3.69 KCAL/MOL
REMARK 922        TOTAL FREE ENERGY PREDICTED BY IDOCK:   -4.30 KCAL/MOL
REMARK 923 INTER-LIGAND FREE ENERGY PREDICTED BY IDOCK:   -3.92 KCAL/MOL
REMARK 924 INTRA-LIGAND FREE ENERGY PREDICTED BY IDOCK:   -0.37 KCAL/MOL
REMARK 927      BINDING AFFINITY PREDICTED BY RF-SCORE:    0.00 PKD
ROOT
HETATM    1  N   UNL     1      -9.627   3.567  69.798  1.00  0.00    -0.173 NA 
HETATM    2  C   UNL     1      -9.887   4.878  69.929  1.00  0.00    -0.225 A  
HETATM    3  H1  UNL     1      -9.689   2.907  70.573  1.00  0.00     0.000 HD 
HETATM    4  H2  UNL     1      -9.354   3.215  68.881  1.00  0.00     0.000 HD 
HETATM    5  N   UNL     1      -9.806   5.724  68.934  1.00  0.00    -0.138 NA 
HETATM    6  C   UNL     1     -10.176   6.989  69.358  1.00  0.00    -0.189 A  
HETATM    7  C   UNL     1     -10.505   7.094  70.709  1.00  0.00    -0.212 A  
HETATM    8  C   UNL     1     -10.898   8.312  71.284  1.00  0.00    -0.285 A  
HETATM    9  S   UNL     1     -10.346   5.544  71.439  1.00  0.00    -0.234 SA 
HETATM   10  C   UNL     1     -10.953   9.456  70.475  1.00  0.00    -0.274 A  
HETATM   11  C   UNL     1     -10.669   9.365  69.117  1.00  0.00    -0.216 A  
HETATM   12  C   UNL     1     -10.261   8.144  68.555  1.00  0.00    -0.233 A  
ENDROOT
BRANCH  10  13
HETATM   13  O   UNL     1     -11.375  10.577  71.125  1.00  0.00    -0.196 OA 
HETATM   14  C   UNL     1     -12.745  10.951  71.076  1.00  0.00    -0.407 C  
HETATM   15  F   UNL     1     -13.503  10.182  70.268  1.00  0.00    -0.293 F  
HETATM   16  F   UNL     1     -13.260  10.912  72.323  1.00  0.00    -0.573 F  
HETATM   17  F   UNL     1     -12.822  12.225  70.629  1.00  0.00    -0.278 F  
ENDBRANCH  10  13
TORSDOF 1
ENDMDL
MODEL      118
REMARK 921   NORMALIZED FREE ENERGY PREDICTED BY IDOCK:   -3.69 KCAL/MOL
REMARK 922        TOTAL FREE ENERGY PREDICTED BY IDOCK:   -4.30 KCAL/MOL
REMARK 923 INTER-LIGAND FREE ENERGY PREDICTED BY IDOCK:   -4.13 KCAL/MOL
REMARK 924 INTRA-LIGAND FREE ENERGY PREDICTED BY IDOCK:   -0.16 KCAL/MOL
REMARK 927      BINDING AFFINITY PREDICTED BY RF-SCORE:    0.00 PKD
ROOT
HETATM    1  N   UNL     1     -11.117  16.614  68.391  1.00  0.00    -0.350 NA 
HETATM    2  C   UNL     1     -11.194  15.277  68.482  1.00  0.00    -0.303 A  
HETATM    3  H1  UNL     1     -11.410  17.241  69.140  1.00  0.00     0.000 HD 
HETATM    4  H2  UNL     1     -10.748  17.023  67.533  1.00  0.00     0.000 HD 
HETATM    5  N   UNL     1     -10.817  14.473  67.521  1.00  0.00    -0.283 NA 
HETATM    6  C   UNL     1     -10.969  13.156  67.918  1.00  0.00    -0.249 A  
HETATM    7  C   UNL     1     -11.504  12.975  69.192  1.00  0.00    -0.299 A  
HETATM    8  C   UNL     1     -11.716  11.697  69.732  1.00  0.00    -0.425 A  
HETATM    9  S   UNL     1     -11.807  14.518  69.891  1.00  0.00    -0.336 SA 
HETATM   10  C   UNL     1     -11.387  10.573  68.962  1.00  0.00    -0.257 A  
HETATM   11  C   UNL     1     -10.813  10.732  67.705  1.00  0.00    -0.332 A  
HETATM   12  C   UNL     1     -10.620  12.015  67.168  1.00  0.00    -0.255 A  
ENDROOT
BRANCH  10  13
HETATM   13  O   UNL     1     -11.604   9.384  69.591  1.00  0.00     0.004 OA 
HETATM   14  C   UNL     1     -10.858   9.051  70.754  1.00  0.00    -0.251 C  
HETATM   15  F   UNL     1      -9.893   9.940  71.069  1.00  0.00    -0.271 F  
HETATM   16  F   UNL     1     -11.700   8.932  71.802  1.00  0.00    -0.336 F  
HETATM   17  F   UNL     1     -10.267   7.852  70.551  1.00  0.00    -0.194 F  
ENDBRANCH  10  13
TORSDOF 1
ENDMDL
MODEL      119
REMARK 921   NORMALIZED FREE ENERGY PREDICTED BY IDOCK:   -3.68 KCAL/MOL
REMARK 922        TOTAL FREE ENERGY PREDICTED BY IDOCK:   -4.29 KCAL/MOL
REMARK 923 INTER-LIGAND FREE ENERGY PREDICTED BY IDOCK:   -3.96 KCAL/MOL
REMARK 924 INTRA-LIGAND FREE ENERGY PREDICTED BY IDOCK:   -0.33 KCAL/MOL
REMARK 927      BINDING AFFINITY PREDICTED BY RF-SCORE:    0.00 PKD
ROOT
HETATM    1  N   UNL     1     -12.925   9.703  70.717  1.00  0.00    -0.559 NA 
HETATM    2  C   UNL     1     -12.368   8.690  71.399  1.00  0.00    -0.304 A  
HETATM    3  H1  UNL     1     -13.757   9.593  70.138  1.00  0.00     0.000 HD 
HETATM    4  H2  UNL     1     -12.497  10.626  70.782  1.00  0.00     0.000 HD 
HETATM    5  N   UNL     1     -11.301   8.831  72.142  1.00  0.00    -0.360 NA 
HETATM    6  C   UNL     1     -10.989   7.630  72.756  1.00  0.00    -0.377 A  
HETATM    7  C   UNL     1     -11.823   6.561  72.434  1.00  0.00    -0.197 A  
HETATM    8  C   UNL     1     -11.631   5.281  72.978  1.00  0.00    -0.290 A  
HETATM    9  S   UNL     1     -13.028   7.110  71.336  1.00  0.00    -0.309 SA 
HETATM   10  C   UNL     1     -10.565   5.075  73.864  1.00  0.00    -0.289 A  
HETATM   11  C   UNL     1      -9.746   6.138  74.231  1.00  0.00    -0.243 A  
HETATM   12  C   UNL     1      -9.937   7.410  73.668  1.00  0.00    -0.379 A  
ENDROOT
BRANCH  10  13
HETATM   13  O   UNL     1     -10.488   3.806  74.356  1.00  0.00    -0.191 OA 
HETATM   14  C   UNL     1      -9.831   2.794  73.604  1.00  0.00    -0.101 C  
HETATM   15  F   UNL     1      -9.425   3.186  72.379  1.00  0.00    -0.135 F  
HETATM   16  F   UNL     1      -8.760   2.352  74.297  1.00  0.00    -0.069 F  
HETATM   17  F   UNL     1     -10.686   1.759  73.446  1.00  0.00    -0.157 F  
ENDBRANCH  10  13
TORSDOF 1
ENDMDL
MODEL      120
REMARK 921   NORMALIZED FREE ENERGY PREDICTED BY IDOCK:   -3.66 KCAL/MOL
REMARK 922        TOTAL FREE ENERGY PREDICTED BY IDOCK:   -4.26 KCAL/MOL
REMARK 923 INTER-LIGAND FREE ENERGY PREDICTED BY IDOCK:   -3.98 KCAL/MOL
REMARK 924 INTRA-LIGAND FREE ENERGY PREDICTED BY IDOCK:   -0.28 KCAL/MOL
REMARK 927      BINDING AFFINITY PREDICTED BY RF-SCORE:    0.00 PKD
ROOT
HETATM    1  N   UNL     1      -7.529  12.203  66.496  1.00  0.00    -0.360 NA 
HETATM    2  C   UNL     1      -8.182  11.465  67.407  1.00  0.00    -0.145 A  
HETATM    3  H1  UNL     1      -7.978  12.587  65.665  1.00  0.00     0.000 HD 
HETATM    4  H2  UNL     1      -6.537  12.389  66.641  1.00  0.00     0.000 HD 
HETATM    5  N   UNL     1      -7.606  10.972  68.473  1.00  0.00    -0.106 NA 
HETATM    6  C   UNL     1      -8.536  10.300  69.246  1.00  0.00    -0.168 A  
HETATM    7  C   UNL     1      -9.828  10.261  68.726  1.00  0.00    -0.180 A  
HETATM    8  C   UNL     1     -10.879   9.614  69.397  1.00  0.00    -0.239 A  
HETATM    9  S   UNL     1      -9.849  11.108  67.228  1.00  0.00    -0.176 SA 
HETATM   10  C   UNL     1     -10.614   8.986  70.621  1.00  0.00    -0.236 A  
HETATM   11  C   UNL     1      -9.341   9.049  71.178  1.00  0.00    -0.336 A  
HETATM   12  C   UNL     1      -8.294   9.683  70.491  1.00  0.00    -0.134 A  
ENDROOT
BRANCH  10  13
HETATM   13  O   UNL     1     -11.708   8.416  71.201  1.00  0.00    -0.276 OA 
HETATM   14  C   UNL     1     -12.702   9.237  71.797  1.00  0.00    -0.381 C  
HETATM   15  F   UNL     1     -12.396  10.551  71.823  1.00  0.00    -0.448 F  
HETATM   16  F   UNL     1     -13.867   9.074  71.137  1.00  0.00    -0.383 F  
HETATM   17  F   UNL     1     -12.882   8.829  73.074  1.00  0.00    -0.413 F  
ENDBRANCH  10  13
TORSDOF 1
ENDMDL
MODEL      121
REMARK 921   NORMALIZED FREE ENERGY PREDICTED BY IDOCK:   -3.57 KCAL/MOL
REMARK 922        TOTAL FREE ENERGY PREDICTED BY IDOCK:   -4.18 KCAL/MOL
REMARK 923 INTER-LIGAND FREE ENERGY PREDICTED BY IDOCK:   -4.05 KCAL/MOL
REMARK 924 INTRA-LIGAND FREE ENERGY PREDICTED BY IDOCK:   -0.13 KCAL/MOL
REMARK 927      BINDING AFFINITY PREDICTED BY RF-SCORE:    0.00 PKD
ROOT
HETATM    1  N   UNL     1     -12.425  14.005  63.175  1.00  0.00    -1.070 NA 
HETATM    2  C   UNL     1     -11.662  13.455  64.132  1.00  0.00    -0.419 A  
HETATM    3  H1  UNL     1     -12.436  15.005  62.978  1.00  0.00     0.000 HD 
HETATM    4  H2  UNL     1     -13.023  13.394  62.619  1.00  0.00     0.000 HD 
HETATM    5  N   UNL     1     -11.648  12.171  64.385  1.00  0.00    -0.345 NA 
HETATM    6  C   UNL     1     -10.734  11.896  65.387  1.00  0.00    -0.283 A  
HETATM    7  C   UNL     1     -10.077  13.005  65.917  1.00  0.00    -0.288 A  
HETATM    8  C   UNL     1      -9.122  12.883  66.939  1.00  0.00    -0.224 A  
HETATM    9  S   UNL     1     -10.635  14.418  65.110  1.00  0.00    -0.435 SA 
HETATM   10  C   UNL     1      -8.830  11.608  67.444  1.00  0.00    -0.160 A  
HETATM   11  C   UNL     1      -9.443  10.484  66.900  1.00  0.00    -0.191 A  
HETATM   12  C   UNL     1     -10.409  10.619  65.889  1.00  0.00    -0.291 A  
ENDROOT
BRANCH  10  13
HETATM   13  O   UNL     1      -7.869  11.599  68.410  1.00  0.00    -0.124 OA 
HETATM   14  C   UNL     1      -6.662  10.880  68.202  1.00  0.00    -0.063 C  
HETATM   15  F   UNL     1      -6.632  10.160  67.062  1.00  0.00    -0.068 F  
HETATM   16  F   UNL     1      -5.626  11.744  68.199  1.00  0.00    -0.043 F  
HETATM   17  F   UNL     1      -6.492  10.025  69.236  1.00  0.00    -0.045 F  
ENDBRANCH  10  13
TORSDOF 1
ENDMDL
MODEL      122
REMARK 921   NORMALIZED FREE ENERGY PREDICTED BY IDOCK:   -3.56 KCAL/MOL
REMARK 922        TOTAL FREE ENERGY PREDICTED BY IDOCK:   -4.17 KCAL/MOL
REMARK 923 INTER-LIGAND FREE ENERGY PREDICTED BY IDOCK:   -3.77 KCAL/MOL
REMARK 924 INTRA-LIGAND FREE ENERGY PREDICTED BY IDOCK:   -0.40 KCAL/MOL
REMARK 927      BINDING AFFINITY PREDICTED BY RF-SCORE:    0.00 PKD
ROOT
HETATM    1  N   UNL     1     -10.895   3.238  74.132  1.00  0.00    -0.186 NA 
HETATM    2  C   UNL     1     -10.804   4.095  73.103  1.00  0.00    -0.197 A  
HETATM    3  H1  UNL     1     -10.340   2.385  74.198  1.00  0.00     0.000 HD 
HETATM    4  H2  UNL     1     -11.549   3.450  74.886  1.00  0.00     0.000 HD 
HETATM    5  N   UNL     1     -11.516   5.189  73.020  1.00  0.00    -0.314 NA 
HETATM    6  C   UNL     1     -11.174   5.891  71.877  1.00  0.00    -0.264 A  
HETATM    7  C   UNL     1     -10.209   5.288  71.073  1.00  0.00    -0.229 A  
HETATM    8  C   UNL     1      -9.760   5.881  69.882  1.00  0.00    -0.208 A  
HETATM    9  S   UNL     1      -9.730   3.804  71.800  1.00  0.00    -0.177 SA 
HETATM   10  C   UNL     1     -10.306   7.111  69.491  1.00  0.00    -0.215 A  
HETATM   11  C   UNL     1     -11.239   7.750  70.300  1.00  0.00    -0.215 A  
HETATM   12  C   UNL     1     -11.693   7.140  71.481  1.00  0.00    -0.324 A  
ENDROOT
BRANCH  10  13
HETATM   13  O   UNL     1      -9.780   7.611  68.337  1.00  0.00    -0.152 OA 
HETATM   14  C   UNL     1     -10.443   7.386  67.101  1.00  0.00    -0.333 C  
HETATM   15  F   UNL     1     -11.517   6.574  67.185  1.00  0.00    -0.437 F  
HETATM   16  F   UNL     1     -10.832   8.570  66.584  1.00  0.00    -0.316 F  
HETATM   17  F   UNL     1      -9.563   6.821  66.243  1.00  0.00    -0.201 F  
ENDBRANCH  10  13
TORSDOF 1
ENDMDL
MODEL      123
REMARK 921   NORMALIZED FREE ENERGY PREDICTED BY IDOCK:   -3.54 KCAL/MOL
REMARK 922        TOTAL FREE ENERGY PREDICTED BY IDOCK:   -4.14 KCAL/MOL
REMARK 923 INTER-LIGAND FREE ENERGY PREDICTED BY IDOCK:   -4.15 KCAL/MOL
REMARK 924 INTRA-LIGAND FREE ENERGY PREDICTED BY IDOCK:    0.00 KCAL/MOL
REMARK 927      BINDING AFFINITY PREDICTED BY RF-SCORE:    0.00 PKD
ROOT
HETATM    1  N   UNL     1      -8.624   5.732  70.132  1.00  0.00    -0.127 NA 
HETATM    2  C   UNL     1      -9.309   6.846  69.827  1.00  0.00    -0.146 A  
HETATM    3  H1  UNL     1      -8.268   5.087  69.428  1.00  0.00     0.000 HD 
HETATM    4  H2  UNL     1      -8.452   5.521  71.115  1.00  0.00     0.000 HD 
HETATM    5  N   UNL     1      -9.766   7.673  70.731  1.00  0.00    -0.174 NA 
HETATM    6  C   UNL     1     -10.386   8.749  70.118  1.00  0.00    -0.208 A  
HETATM    7  C   UNL     1     -10.422   8.703  68.726  1.00  0.00    -0.185 A  
HETATM    8  C   UNL     1     -11.017   9.722  67.966  1.00  0.00    -0.236 A  
HETATM    9  S   UNL     1      -9.641   7.264  68.198  1.00  0.00    -0.142 SA 
HETATM   10  C   UNL     1     -11.597  10.811  68.630  1.00  0.00    -0.272 A  
HETATM   11  C   UNL     1     -11.535  10.897  70.017  1.00  0.00    -0.411 A  
HETATM   12  C   UNL     1     -10.952   9.864  70.768  1.00  0.00    -0.407 A  
ENDROOT
BRANCH  10  13
HETATM   13  O   UNL     1     -12.119  11.756  67.798  1.00  0.00    -0.595 OA 
HETATM   14  C   UNL     1     -11.303  12.346  66.796  1.00  0.00    -0.335 C  
HETATM   15  F   UNL     1     -10.008  11.971  66.841  1.00  0.00    -0.199 F  
HETATM   16  F   UNL     1     -11.803  12.042  65.580  1.00  0.00    -0.414 F  
HETATM   17  F   UNL     1     -11.351  13.690  66.946  1.00  0.00    -0.297 F  
ENDBRANCH  10  13
TORSDOF 1
ENDMDL
MODEL      124
REMARK 921   NORMALIZED FREE ENERGY PREDICTED BY IDOCK:   -3.52 KCAL/MOL
REMARK 922        TOTAL FREE ENERGY PREDICTED BY IDOCK:   -4.12 KCAL/MOL
REMARK 923 INTER-LIGAND FREE ENERGY PREDICTED BY IDOCK:   -3.78 KCAL/MOL
REMARK 924 INTRA-LIGAND FREE ENERGY PREDICTED BY IDOCK:   -0.34 KCAL/MOL
REMARK 927      BINDING AFFINITY PREDICTED BY RF-SCORE:    0.00 PKD
ROOT
HETATM    1  N   UNL     1     -11.105  11.391  69.844  1.00  0.00    -0.474 NA 
HETATM    2  C   UNL     1     -10.994  10.147  70.336  1.00  0.00    -0.319 A  
HETATM    3  H1  UNL     1     -10.318  11.908  69.454  1.00  0.00     0.000 HD 
HETATM    4  H2  UNL     1     -12.021  11.840  69.862  1.00  0.00     0.000 HD 
HETATM    5  N   UNL     1     -12.004   9.484  70.838  1.00  0.00    -0.295 NA 
HETATM    6  C   UNL     1     -11.596   8.217  71.220  1.00  0.00    -0.281 A  
HETATM    7  C   UNL     1     -10.243   7.944  71.031  1.00  0.00    -0.197 A  
HETATM    8  C   UNL     1      -9.683   6.702  71.371  1.00  0.00    -0.181 A  
HETATM    9  S   UNL     1      -9.488   9.329  70.345  1.00  0.00    -0.262 SA 
HETATM   10  C   UNL     1     -10.511   5.715  71.923  1.00  0.00    -0.225 A  
HETATM   11  C   UNL     1     -11.872   5.953  72.081  1.00  0.00    -0.247 A  
HETATM   12  C   UNL     1     -12.418   7.204  71.753  1.00  0.00    -0.385 A  
ENDROOT
BRANCH  10  13
HETATM   13  O   UNL     1      -9.874   4.540  72.189  1.00  0.00    -0.162 OA 
HETATM   14  C   UNL     1      -9.607   3.624  71.135  1.00  0.00    -0.177 C  
HETATM   15  F   UNL     1     -10.130   3.981  69.944  1.00  0.00    -0.286 F  
HETATM   16  F   UNL     1      -8.273   3.480  70.999  1.00  0.00    -0.061 F  
HETATM   17  F   UNL     1     -10.128   2.423  71.474  1.00  0.00    -0.230 F  
ENDBRANCH  10  13
TORSDOF 1
ENDMDL
MODEL      125
REMARK 921   NORMALIZED FREE ENERGY PREDICTED BY IDOCK:   -3.50 KCAL/MOL
REMARK 922        TOTAL FREE ENERGY PREDICTED BY IDOCK:   -4.10 KCAL/MOL
REMARK 923 INTER-LIGAND FREE ENERGY PREDICTED BY IDOCK:   -3.72 KCAL/MOL
REMARK 924 INTRA-LIGAND FREE ENERGY PREDICTED BY IDOCK:   -0.39 KCAL/MOL
REMARK 927      BINDING AFFINITY PREDICTED BY RF-SCORE:    0.00 PKD
ROOT
HETATM    1  N   UNL     1     -12.543  15.519  69.135  1.00  0.00    -0.476 NA 
HETATM    2  C   UNL     1     -11.733  14.664  68.492  1.00  0.00    -0.316 A  
HETATM    3  H1  UNL     1     -13.226  16.106  68.657  1.00  0.00     0.000 HD 
HETATM    4  H2  UNL     1     -12.472  15.586  70.151  1.00  0.00     0.000 HD 
HETATM    5  N   UNL     1     -10.856  13.912  69.106  1.00  0.00    -0.225 NA 
HETATM    6  C   UNL     1     -10.203  13.103  68.192  1.00  0.00    -0.239 A  
HETATM    7  C   UNL     1     -10.578  13.283  66.862  1.00  0.00    -0.264 A  
HETATM    8  C   UNL     1     -10.003  12.535  65.822  1.00  0.00    -0.272 A  
HETATM    9  S   UNL     1     -11.791  14.500  66.787  1.00  0.00    -0.326 SA 
HETATM   10  C   UNL     1      -9.019  11.586  66.134  1.00  0.00    -0.197 A  
HETATM   11  C   UNL     1      -8.661  11.362  67.459  1.00  0.00    -0.137 A  
HETATM   12  C   UNL     1      -9.230  12.127  68.490  1.00  0.00    -0.100 A  
ENDROOT
BRANCH  10  13
HETATM   13  O   UNL     1      -8.550  10.896  65.057  1.00  0.00    -0.153 OA 
HETATM   14  C   UNL     1      -9.179   9.685  64.662  1.00  0.00    -0.234 C  
HETATM   15  F   UNL     1     -10.155   9.269  65.495  1.00  0.00    -0.370 F  
HETATM   16  F   UNL     1      -9.698   9.837  63.426  1.00  0.00    -0.275 F  
HETATM   17  F   UNL     1      -8.239   8.715  64.608  1.00  0.00    -0.133 F  
ENDBRANCH  10  13
TORSDOF 1
ENDMDL
MODEL      126
REMARK 921   NORMALIZED FREE ENERGY PREDICTED BY IDOCK:   -3.49 KCAL/MOL
REMARK 922        TOTAL FREE ENERGY PREDICTED BY IDOCK:   -4.09 KCAL/MOL
REMARK 923 INTER-LIGAND FREE ENERGY PREDICTED BY IDOCK:   -3.70 KCAL/MOL
REMARK 924 INTRA-LIGAND FREE ENERGY PREDICTED BY IDOCK:   -0.38 KCAL/MOL
REMARK 927      BINDING AFFINITY PREDICTED BY RF-SCORE:    0.00 PKD
ROOT
HETATM    1  N   UNL     1      -9.898   8.691  65.847  1.00  0.00    -0.464 NA 
HETATM    2  C   UNL     1      -9.872   9.855  66.514  1.00  0.00    -0.215 A  
HETATM    3  H1  UNL     1     -10.665   8.023  65.923  1.00  0.00     0.000 HD 
HETATM    4  H2  UNL     1      -9.114   8.463  65.236  1.00  0.00     0.000 HD 
HETATM    5  N   UNL     1      -8.888  10.712  66.417  1.00  0.00    -0.150 NA 
HETATM    6  C   UNL     1      -9.161  11.835  67.179  1.00  0.00    -0.179 A  
HETATM    7  C   UNL     1     -10.361  11.798  67.888  1.00  0.00    -0.193 A  
HETATM    8  C   UNL     1     -10.773  12.864  68.704  1.00  0.00    -0.273 A  
HETATM    9  S   UNL     1     -11.151  10.305  67.563  1.00  0.00    -0.116 SA 
HETATM   10  C   UNL     1      -9.948  13.992  68.812  1.00  0.00    -0.162 A  
HETATM   11  C   UNL     1      -8.768  14.066  68.081  1.00  0.00    -0.180 A  
HETATM   12  C   UNL     1      -8.357  12.988  67.281  1.00  0.00    -0.186 A  
ENDROOT
BRANCH  10  13
HETATM   13  O   UNL     1     -10.456  14.978  69.604  1.00  0.00    -0.241 OA 
HETATM   14  C   UNL     1     -11.346  15.939  69.054  1.00  0.00    -0.371 C  
HETATM   15  F   UNL     1     -11.523  15.836  67.721  1.00  0.00    -0.335 F  
HETATM   16  F   UNL     1     -12.546  15.832  69.663  1.00  0.00    -0.334 F  
HETATM   17  F   UNL     1     -10.853  17.172  69.313  1.00  0.00    -0.306 F  
ENDBRANCH  10  13
TORSDOF 1
ENDMDL
MODEL      127
REMARK 921   NORMALIZED FREE ENERGY PREDICTED BY IDOCK:   -3.47 KCAL/MOL
REMARK 922        TOTAL FREE ENERGY PREDICTED BY IDOCK:   -4.07 KCAL/MOL
REMARK 923 INTER-LIGAND FREE ENERGY PREDICTED BY IDOCK:   -3.68 KCAL/MOL
REMARK 924 INTRA-LIGAND FREE ENERGY PREDICTED BY IDOCK:   -0.39 KCAL/MOL
REMARK 927      BINDING AFFINITY PREDICTED BY RF-SCORE:    0.00 PKD
ROOT
HETATM    1  N   UNL     1     -10.532   5.233  70.406  1.00  0.00    -0.272 NA 
HETATM    2  C   UNL     1     -10.374   6.426  69.812  1.00  0.00    -0.200 A  
HETATM    3  H1  UNL     1     -10.477   5.102  71.416  1.00  0.00     0.000 HD 
HETATM    4  H2  UNL     1     -10.715   4.418  69.821  1.00  0.00     0.000 HD 
HETATM    5  N   UNL     1     -10.445   6.594  68.517  1.00  0.00    -0.195 NA 
HETATM    6  C   UNL     1     -10.290   7.933  68.203  1.00  0.00    -0.200 A  
HETATM    7  C   UNL     1     -10.064   8.778  69.288  1.00  0.00    -0.204 A  
HETATM    8  C   UNL     1      -9.888  10.161  69.127  1.00  0.00    -0.225 A  
HETATM    9  S   UNL     1     -10.060   7.839  70.730  1.00  0.00    -0.192 SA 
HETATM   10  C   UNL     1      -9.935  10.704  67.835  1.00  0.00    -0.166 A  
HETATM   11  C   UNL     1     -10.201   9.884  66.743  1.00  0.00    -0.301 A  
HETATM   12  C   UNL     1     -10.359   8.500  66.914  1.00  0.00    -0.367 A  
ENDROOT
BRANCH  10  13
HETATM   13  O   UNL     1      -9.782  12.057  67.794  1.00  0.00    -0.183 OA 
HETATM   14  C   UNL     1     -10.922  12.901  67.881  1.00  0.00    -0.241 C  
HETATM   15  F   UNL     1     -12.100  12.246  67.888  1.00  0.00    -0.403 F  
HETATM   16  F   UNL     1     -10.834  13.652  68.998  1.00  0.00    -0.245 F  
HETATM   17  F   UNL     1     -10.917  13.733  66.814  1.00  0.00    -0.292 F  
ENDBRANCH  10  13
TORSDOF 1
ENDMDL
MODEL      128
REMARK 921   NORMALIZED FREE ENERGY PREDICTED BY IDOCK:   -3.45 KCAL/MOL
REMARK 922        TOTAL FREE ENERGY PREDICTED BY IDOCK:   -4.05 KCAL/MOL
REMARK 923 INTER-LIGAND FREE ENERGY PREDICTED BY IDOCK:   -3.72 KCAL/MOL
REMARK 924 INTRA-LIGAND FREE ENERGY PREDICTED BY IDOCK:   -0.33 KCAL/MOL
REMARK 927      BINDING AFFINITY PREDICTED BY RF-SCORE:    0.00 PKD
ROOT
HETATM    1  N   UNL     1      -5.702   5.995  71.322  1.00  0.00    -0.021 NA 
HETATM    2  C   UNL     1      -6.970   6.407  71.170  1.00  0.00    -0.068 A  
HETATM    3  H1  UNL     1      -4.943   6.619  71.595  1.00  0.00     0.000 HD 
HETATM    4  H2  UNL     1      -5.487   5.012  71.157  1.00  0.00     0.000 HD 
HETATM    5  N   UNL     1      -7.944   5.607  70.819  1.00  0.00    -0.110 NA 
HETATM    6  C   UNL     1      -9.141   6.303  70.790  1.00  0.00    -0.147 A  
HETATM    7  C   UNL     1      -9.050   7.660  71.092  1.00  0.00    -0.146 A  
HETATM    8  C   UNL     1     -10.179   8.495  71.101  1.00  0.00    -0.272 A  
HETATM    9  S   UNL     1      -7.407   8.045  71.426  1.00  0.00    -0.076 SA 
HETATM   10  C   UNL     1     -11.430   7.944  70.791  1.00  0.00    -0.263 A  
HETATM   11  C   UNL     1     -11.549   6.584  70.528  1.00  0.00    -0.455 A  
HETATM   12  C   UNL     1     -10.411   5.762  70.505  1.00  0.00    -0.331 A  
ENDROOT
BRANCH  10  13
HETATM   13  O   UNL     1     -12.461   8.833  70.859  1.00  0.00    -0.181 OA 
HETATM   14  C   UNL     1     -12.987   9.212  72.124  1.00  0.00    -0.425 C  
HETATM   15  F   UNL     1     -12.459   8.543  73.169  1.00  0.00    -0.302 F  
HETATM   16  F   UNL     1     -12.790  10.534  72.308  1.00  0.00    -0.491 F  
HETATM   17  F   UNL     1     -14.320   8.983  72.116  1.00  0.00    -0.435 F  
ENDBRANCH  10  13
TORSDOF 1
ENDMDL
MODEL      129
REMARK 921   NORMALIZED FREE ENERGY PREDICTED BY IDOCK:   -3.45 KCAL/MOL
REMARK 922        TOTAL FREE ENERGY PREDICTED BY IDOCK:   -4.04 KCAL/MOL
REMARK 923 INTER-LIGAND FREE ENERGY PREDICTED BY IDOCK:   -3.66 KCAL/MOL
REMARK 924 INTRA-LIGAND FREE ENERGY PREDICTED BY IDOCK:   -0.39 KCAL/MOL
REMARK 927      BINDING AFFINITY PREDICTED BY RF-SCORE:    0.00 PKD
ROOT
HETATM    1  N   UNL     1     -13.312  10.204  72.213  1.00  0.00    -0.590 NA 
HETATM    2  C   UNL     1     -12.463   9.320  71.667  1.00  0.00    -0.368 A  
HETATM    3  H1  UNL     1     -14.204   9.937  72.628  1.00  0.00     0.000 HD 
HETATM    4  H2  UNL     1     -13.053  11.191  72.213  1.00  0.00     0.000 HD 
HETATM    5  N   UNL     1     -11.318   9.664  71.134  1.00  0.00    -0.357 NA 
HETATM    6  C   UNL     1     -10.642   8.538  70.698  1.00  0.00    -0.209 A  
HETATM    7  C   UNL     1     -11.314   7.330  70.879  1.00  0.00    -0.280 A  
HETATM    8  C   UNL     1     -10.754   6.104  70.485  1.00  0.00    -0.340 A  
HETATM    9  S   UNL     1     -12.831   7.647  71.627  1.00  0.00    -0.341 SA 
HETATM   10  C   UNL     1      -9.486   6.099  69.888  1.00  0.00    -0.152 A  
HETATM   11  C   UNL     1      -8.781   7.289  69.737  1.00  0.00    -0.142 A  
HETATM   12  C   UNL     1      -9.357   8.511  70.119  1.00  0.00    -0.164 A  
ENDROOT
BRANCH  10  13
HETATM   13  O   UNL     1      -9.024   4.857  69.573  1.00  0.00    -0.089 OA 
HETATM   14  C   UNL     1      -9.271   4.316  68.282  1.00  0.00    -0.142 C  
HETATM   15  F   UNL     1     -10.064   5.078  67.502  1.00  0.00    -0.177 F  
HETATM   16  F   UNL     1      -8.095   4.121  67.650  1.00  0.00    -0.091 F  
HETATM   17  F   UNL     1      -9.872   3.113  68.433  1.00  0.00    -0.217 F  
ENDBRANCH  10  13
TORSDOF 1
ENDMDL
MODEL      130
REMARK 921   NORMALIZED FREE ENERGY PREDICTED BY IDOCK:   -3.43 KCAL/MOL
REMARK 922        TOTAL FREE ENERGY PREDICTED BY IDOCK:   -4.02 KCAL/MOL
REMARK 923 INTER-LIGAND FREE ENERGY PREDICTED BY IDOCK:   -3.68 KCAL/MOL
REMARK 924 INTRA-LIGAND FREE ENERGY PREDICTED BY IDOCK:   -0.34 KCAL/MOL
REMARK 927      BINDING AFFINITY PREDICTED BY RF-SCORE:    0.00 PKD
ROOT
HETATM    1  N   UNL     1     -13.627  12.786  72.080  1.00  0.00    -0.514 NA 
HETATM    2  C   UNL     1     -12.762  12.168  71.261  1.00  0.00    -0.261 A  
HETATM    3  H1  UNL     1     -13.874  13.771  71.989  1.00  0.00     0.000 HD 
HETATM    4  H2  UNL     1     -14.058  12.245  72.830  1.00  0.00     0.000 HD 
HETATM    5  N   UNL     1     -12.445  10.904  71.378  1.00  0.00    -0.369 NA 
HETATM    6  C   UNL     1     -11.572  10.539  70.368  1.00  0.00    -0.342 A  
HETATM    7  C   UNL     1     -11.202  11.564  69.499  1.00  0.00    -0.236 A  
HETATM    8  C   UNL     1     -10.322  11.347  68.427  1.00  0.00    -0.209 A  
HETATM    9  S   UNL     1     -11.995  13.013  69.982  1.00  0.00    -0.251 SA 
HETATM   10  C   UNL     1      -9.798  10.061  68.232  1.00  0.00    -0.146 A  
HETATM   11  C   UNL     1     -10.186   9.016  69.062  1.00  0.00    -0.216 A  
HETATM   12  C   UNL     1     -11.054   9.248  70.142  1.00  0.00    -0.260 A  
ENDROOT
BRANCH  10  13
HETATM   13  O   UNL     1      -8.980   9.953  67.147  1.00  0.00    -0.137 OA 
HETATM   14  C   UNL     1      -9.541   9.834  65.847  1.00  0.00    -0.250 C  
HETATM   15  F   UNL     1     -10.885   9.729  65.828  1.00  0.00    -0.074 F  
HETATM   16  F   UNL     1      -9.177  10.902  65.107  1.00  0.00    -0.199 F  
HETATM   17  F   UNL     1      -9.030   8.725  65.264  1.00  0.00    -0.210 F  
ENDBRANCH  10  13
TORSDOF 1
ENDMDL
MODEL      131
REMARK 921   NORMALIZED FREE ENERGY PREDICTED BY IDOCK:   -3.40 KCAL/MOL
REMARK 922        TOTAL FREE ENERGY PREDICTED BY IDOCK:   -4.00 KCAL/MOL
REMARK 923 INTER-LIGAND FREE ENERGY PREDICTED BY IDOCK:   -3.68 KCAL/MOL
REMARK 924 INTRA-LIGAND FREE ENERGY PREDICTED BY IDOCK:   -0.32 KCAL/MOL
REMARK 927      BINDING AFFINITY PREDICTED BY RF-SCORE:    0.00 PKD
ROOT
HETATM    1  N   UNL     1     -14.320   7.201  72.182  1.00  0.00    -0.644 NA 
HETATM    2  C   UNL     1     -13.183   7.655  71.634  1.00  0.00    -0.352 A  
HETATM    3  H1  UNL     1     -14.968   7.798  72.696  1.00  0.00     0.000 HD 
HETATM    4  H2  UNL     1     -14.549   6.212  72.080  1.00  0.00     0.000 HD 
HETATM    5  N   UNL     1     -12.352   6.889  70.974  1.00  0.00    -0.383 NA 
HETATM    6  C   UNL     1     -11.298   7.641  70.488  1.00  0.00    -0.250 A  
HETATM    7  C   UNL     1     -11.326   8.994  70.822  1.00  0.00    -0.277 A  
HETATM    8  C   UNL     1     -10.324   9.883  70.401  1.00  0.00    -0.322 A  
HETATM    9  S   UNL     1     -12.730   9.302  71.767  1.00  0.00    -0.412 SA 
HETATM   10  C   UNL     1      -9.263   9.390  69.628  1.00  0.00    -0.185 A  
HETATM   11  C   UNL     1      -9.239   8.053  69.248  1.00  0.00    -0.152 A  
HETATM   12  C   UNL     1     -10.237   7.169  69.688  1.00  0.00    -0.215 A  
ENDROOT
BRANCH  10  13
HETATM   13  O   UNL     1      -8.364  10.341  69.248  1.00  0.00    -0.141 OA 
HETATM   14  C   UNL     1      -7.030  10.290  69.737  1.00  0.00    -0.129 C  
HETATM   15  F   UNL     1      -6.810   9.323  70.651  1.00  0.00    -0.054 F  
HETATM   16  F   UNL     1      -6.185  10.111  68.701  1.00  0.00    -0.044 F  
HETATM   17  F   UNL     1      -6.743  11.479  70.313  1.00  0.00    -0.121 F  
ENDBRANCH  10  13
TORSDOF 1
ENDMDL
MODEL      132
REMARK 921   NORMALIZED FREE ENERGY PREDICTED BY IDOCK:   -3.40 KCAL/MOL
REMARK 922        TOTAL FREE ENERGY PREDICTED BY IDOCK:   -4.00 KCAL/MOL
REMARK 923 INTER-LIGAND FREE ENERGY PREDICTED BY IDOCK:   -3.62 KCAL/MOL
REMARK 924 INTRA-LIGAND FREE ENERGY PREDICTED BY IDOCK:   -0.38 KCAL/MOL
REMARK 927      BINDING AFFINITY PREDICTED BY RF-SCORE:    0.00 PKD
ROOT
HETATM    1  N   UNL     1     -10.058   4.147  72.280  1.00  0.00    -0.176 NA 
HETATM    2  C   UNL     1     -10.064   5.352  71.689  1.00  0.00    -0.203 A  
HETATM    3  H1  UNL     1     -10.103   4.022  73.291  1.00  0.00     0.000 HD 
HETATM    4  H2  UNL     1     -10.007   3.316  71.690  1.00  0.00     0.000 HD 
HETATM    5  N   UNL     1     -10.006   5.512  70.392  1.00  0.00    -0.199 NA 
HETATM    6  C   UNL     1     -10.077   6.858  70.077  1.00  0.00    -0.182 A  
HETATM    7  C   UNL     1     -10.155   7.722  71.167  1.00  0.00    -0.187 A  
HETATM    8  C   UNL     1     -10.232   9.115  71.005  1.00  0.00    -0.372 A  
HETATM    9  S   UNL     1     -10.145   6.792  72.614  1.00  0.00    -0.180 SA 
HETATM   10  C   UNL     1     -10.223   9.647  69.708  1.00  0.00    -0.237 A  
HETATM   11  C   UNL     1     -10.189   8.799  68.606  1.00  0.00    -0.214 A  
HETATM   12  C   UNL     1     -10.095   7.409  68.779  1.00  0.00    -0.184 A  
ENDROOT
BRANCH  10  13
HETATM   13  O   UNL     1     -10.333  11.004  69.663  1.00  0.00    -0.123 OA 
HETATM   14  C   UNL     1     -11.612  11.608  69.527  1.00  0.00    -0.331 C  
HETATM   15  F   UNL     1     -12.622  10.734  69.341  1.00  0.00    -0.367 F  
HETATM   16  F   UNL     1     -11.873  12.348  70.624  1.00  0.00    -0.399 F  
HETATM   17  F   UNL     1     -11.580  12.437  68.458  1.00  0.00    -0.263 F  
ENDBRANCH  10  13
TORSDOF 1
ENDMDL
MODEL      133
REMARK 921   NORMALIZED FREE ENERGY PREDICTED BY IDOCK:   -3.32 KCAL/MOL
REMARK 922        TOTAL FREE ENERGY PREDICTED BY IDOCK:   -3.91 KCAL/MOL
REMARK 923 INTER-LIGAND FREE ENERGY PREDICTED BY IDOCK:   -3.53 KCAL/MOL
REMARK 924 INTRA-LIGAND FREE ENERGY PREDICTED BY IDOCK:   -0.38 KCAL/MOL
REMARK 927      BINDING AFFINITY PREDICTED BY RF-SCORE:    0.00 PKD
ROOT
HETATM    1  N   UNL     1     -13.411  10.559  72.284  1.00  0.00    -0.577 NA 
HETATM    2  C   UNL     1     -12.558  10.667  71.253  1.00  0.00    -0.427 A  
HETATM    3  H1  UNL     1     -13.440   9.747  72.900  1.00  0.00     0.000 HD 
HETATM    4  H2  UNL     1     -14.061  11.325  72.460  1.00  0.00     0.000 HD 
HETATM    5  N   UNL     1     -12.521  11.709  70.463  1.00  0.00    -0.289 NA 
HETATM    6  C   UNL     1     -11.514  11.557  69.526  1.00  0.00    -0.311 A  
HETATM    7  C   UNL     1     -10.807  10.358  69.598  1.00  0.00    -0.277 A  
HETATM    8  C   UNL     1      -9.757  10.061  68.714  1.00  0.00    -0.174 A  
HETATM    9  S   UNL     1     -11.440   9.418  70.893  1.00  0.00    -0.341 SA 
HETATM   10  C   UNL     1      -9.419  10.997  67.727  1.00  0.00    -0.162 A  
HETATM   11  C   UNL     1     -10.083  12.217  67.664  1.00  0.00    -0.205 A  
HETATM   12  C   UNL     1     -11.142  12.497  68.543  1.00  0.00    -0.297 A  
ENDROOT
BRANCH  10  13
HETATM   13  O   UNL     1      -8.369  10.623  66.943  1.00  0.00    -0.121 OA 
HETATM   14  C   UNL     1      -7.038  10.860  67.382  1.00  0.00    -0.093 C  
HETATM   15  F   UNL     1      -6.947  11.558  68.532  1.00  0.00    -0.064 F  
HETATM   16  F   UNL     1      -6.405   9.679  67.537  1.00  0.00    -0.060 F  
HETATM   17  F   UNL     1      -6.392  11.560  66.421  1.00  0.00    -0.135 F  
ENDBRANCH  10  13
TORSDOF 1
ENDMDL
MODEL      134
REMARK 921   NORMALIZED FREE ENERGY PREDICTED BY IDOCK:   -3.32 KCAL/MOL
REMARK 922        TOTAL FREE ENERGY PREDICTED BY IDOCK:   -3.90 KCAL/MOL
REMARK 923 INTER-LIGAND FREE ENERGY PREDICTED BY IDOCK:   -3.53 KCAL/MOL
REMARK 924 INTRA-LIGAND FREE ENERGY PREDICTED BY IDOCK:   -0.37 KCAL/MOL
REMARK 927      BINDING AFFINITY PREDICTED BY RF-SCORE:    0.00 PKD
ROOT
HETATM    1  N   UNL     1      -9.464   2.421  66.611  1.00  0.00    -0.382 NA 
HETATM    2  C   UNL     1      -9.555   3.677  67.076  1.00  0.00    -0.152 A  
HETATM    3  H1  UNL     1      -8.900   1.700  67.061  1.00  0.00     0.000 HD 
HETATM    4  H2  UNL     1      -9.985   2.175  65.769  1.00  0.00     0.000 HD 
HETATM    5  N   UNL     1     -10.279   4.602  66.499  1.00  0.00    -0.253 NA 
HETATM    6  C   UNL     1     -10.214   5.777  67.227  1.00  0.00    -0.205 A  
HETATM    7  C   UNL     1      -9.394   5.737  68.353  1.00  0.00    -0.121 A  
HETATM    8  C   UNL     1      -9.228   6.852  69.190  1.00  0.00    -0.141 A  
HETATM    9  S   UNL     1      -8.706   4.165  68.482  1.00  0.00    -0.104 SA 
HETATM   10  C   UNL     1      -9.903   8.040  68.876  1.00  0.00    -0.175 A  
HETATM   11  C   UNL     1     -10.758   8.088  67.780  1.00  0.00    -0.174 A  
HETATM   12  C   UNL     1     -10.904   6.972  66.941  1.00  0.00    -0.350 A  
ENDROOT
BRANCH  10  13
HETATM   13  O   UNL     1      -9.696   9.049  69.768  1.00  0.00    -0.166 OA 
HETATM   14  C   UNL     1     -10.622   9.260  70.826  1.00  0.00    -0.285 C  
HETATM   15  F   UNL     1     -11.715   8.471  70.774  1.00  0.00    -0.282 F  
HETATM   16  F   UNL     1      -9.999   9.064  72.006  1.00  0.00    -0.374 F  
HETATM   17  F   UNL     1     -11.037  10.546  70.778  1.00  0.00    -0.369 F  
ENDBRANCH  10  13
TORSDOF 1
ENDMDL
MODEL      135
REMARK 921   NORMALIZED FREE ENERGY PREDICTED BY IDOCK:   -3.29 KCAL/MOL
REMARK 922        TOTAL FREE ENERGY PREDICTED BY IDOCK:   -3.88 KCAL/MOL
REMARK 923 INTER-LIGAND FREE ENERGY PREDICTED BY IDOCK:   -3.50 KCAL/MOL
REMARK 924 INTRA-LIGAND FREE ENERGY PREDICTED BY IDOCK:   -0.37 KCAL/MOL
REMARK 927      BINDING AFFINITY PREDICTED BY RF-SCORE:    0.00 PKD
ROOT
HETATM    1  N   UNL     1     -14.162   7.612  70.981  1.00  0.00    -0.662 NA 
HETATM    2  C   UNL     1     -12.983   7.456  71.603  1.00  0.00    -0.366 A  
HETATM    3  H1  UNL     1     -14.518   8.520  70.680  1.00  0.00     0.000 HD 
HETATM    4  H2  UNL     1     -14.730   6.785  70.800  1.00  0.00     0.000 HD 
HETATM    5  N   UNL     1     -12.528   6.292  71.988  1.00  0.00    -0.214 NA 
HETATM    6  C   UNL     1     -11.274   6.438  72.555  1.00  0.00    -0.272 A  
HETATM    7  C   UNL     1     -10.799   7.746  72.625  1.00  0.00    -0.354 A  
HETATM    8  C   UNL     1      -9.543   8.052  73.174  1.00  0.00    -0.344 A  
HETATM    9  S   UNL     1     -11.977   8.800  71.945  1.00  0.00    -0.387 SA 
HETATM   10  C   UNL     1      -8.750   7.008  73.671  1.00  0.00    -0.144 A  
HETATM   11  C   UNL     1      -9.187   5.692  73.573  1.00  0.00    -0.134 A  
HETATM   12  C   UNL     1     -10.452   5.399  73.037  1.00  0.00    -0.246 A  
ENDROOT
BRANCH  10  13
HETATM   13  O   UNL     1      -7.541   7.410  74.153  1.00  0.00    -0.112 OA 
HETATM   14  C   UNL     1      -6.448   7.589  73.263  1.00  0.00    -0.065 C  
HETATM   15  F   UNL     1      -6.702   7.224  71.990  1.00  0.00    -0.053 F  
HETATM   16  F   UNL     1      -6.070   8.884  73.278  1.00  0.00    -0.105 F  
HETATM   17  F   UNL     1      -5.410   6.843  73.708  1.00  0.00    -0.043 F  
ENDBRANCH  10  13
TORSDOF 1
ENDMDL
MODEL      136
REMARK 921   NORMALIZED FREE ENERGY PREDICTED BY IDOCK:   -3.28 KCAL/MOL
REMARK 922        TOTAL FREE ENERGY PREDICTED BY IDOCK:   -3.87 KCAL/MOL
REMARK 923 INTER-LIGAND FREE ENERGY PREDICTED BY IDOCK:   -3.46 KCAL/MOL
REMARK 924 INTRA-LIGAND FREE ENERGY PREDICTED BY IDOCK:   -0.40 KCAL/MOL
REMARK 927      BINDING AFFINITY PREDICTED BY RF-SCORE:    0.00 PKD
ROOT
HETATM    1  N   UNL     1      -8.741  11.258  67.732  1.00  0.00    -0.131 NA 
HETATM    2  C   UNL     1      -9.051  10.445  68.754  1.00  0.00    -0.165 A  
HETATM    3  H1  UNL     1      -9.422  11.566  67.039  1.00  0.00     0.000 HD 
HETATM    4  H2  UNL     1      -7.778  11.585  67.645  1.00  0.00     0.000 HD 
HETATM    5  N   UNL     1      -8.177  10.051  69.644  1.00  0.00    -0.165 NA 
HETATM    6  C   UNL     1      -8.796   9.262  70.598  1.00  0.00    -0.237 A  
HETATM    7  C   UNL     1     -10.156   9.035  70.395  1.00  0.00    -0.207 A  
HETATM    8  C   UNL     1     -10.917   8.254  71.278  1.00  0.00    -0.290 A  
HETATM    9  S   UNL     1     -10.646   9.853  68.963  1.00  0.00    -0.228 SA 
HETATM   10  C   UNL     1     -10.287   7.682  72.392  1.00  0.00    -0.238 A  
HETATM   11  C   UNL     1      -8.941   7.931  72.637  1.00  0.00    -0.251 A  
HETATM   12  C   UNL     1      -8.184   8.700  71.738  1.00  0.00    -0.184 A  
ENDROOT
BRANCH  10  13
HETATM   13  O   UNL     1     -11.122   6.970  73.199  1.00  0.00    -0.279 OA 
HETATM   14  C   UNL     1     -11.186   5.555  73.081  1.00  0.00    -0.267 C  
HETATM   15  F   UNL     1     -10.459   5.049  72.064  1.00  0.00    -0.250 F  
HETATM   16  F   UNL     1     -10.770   4.994  74.235  1.00  0.00    -0.288 F  
HETATM   17  F   UNL     1     -12.476   5.203  72.883  1.00  0.00    -0.284 F  
ENDBRANCH  10  13
TORSDOF 1
ENDMDL
MODEL      137
REMARK 921   NORMALIZED FREE ENERGY PREDICTED BY IDOCK:   -3.26 KCAL/MOL
REMARK 922        TOTAL FREE ENERGY PREDICTED BY IDOCK:   -3.84 KCAL/MOL
REMARK 923 INTER-LIGAND FREE ENERGY PREDICTED BY IDOCK:   -3.91 KCAL/MOL
REMARK 924 INTRA-LIGAND FREE ENERGY PREDICTED BY IDOCK:    0.07 KCAL/MOL
REMARK 927      BINDING AFFINITY PREDICTED BY RF-SCORE:    0.00 PKD
ROOT
HETATM    1  N   UNL     1     -12.654  13.980  64.400  1.00  0.00    -0.677 NA 
HETATM    2  C   UNL     1     -12.053  13.173  65.287  1.00  0.00    -0.429 A  
HETATM    3  H1  UNL     1     -12.386  14.026  63.417  1.00  0.00     0.000 HD 
HETATM    4  H2  UNL     1     -13.416  14.577  64.724  1.00  0.00     0.000 HD 
HETATM    5  N   UNL     1     -12.397  13.114  66.548  1.00  0.00    -0.375 NA 
HETATM    6  C   UNL     1     -11.635  12.163  67.204  1.00  0.00    -0.335 A  
HETATM    7  C   UNL     1     -10.677  11.522  66.420  1.00  0.00    -0.273 A  
HETATM    8  C   UNL     1      -9.829  10.534  66.945  1.00  0.00    -0.235 A  
HETATM    9  S   UNL     1     -10.764  12.145  64.819  1.00  0.00    -0.316 SA 
HETATM   10  C   UNL     1      -9.948  10.190  68.299  1.00  0.00    -0.148 A  
HETATM   11  C   UNL     1     -10.925  10.787  69.088  1.00  0.00    -0.293 A  
HETATM   12  C   UNL     1     -11.757  11.786  68.556  1.00  0.00    -0.390 A  
ENDROOT
BRANCH  10  13
HETATM   13  O   UNL     1      -9.100   9.201  68.698  1.00  0.00    -0.136 OA 
HETATM   14  C   UNL     1      -7.697   9.367  68.544  1.00  0.00    -0.085 C  
HETATM   15  F   UNL     1      -7.337  10.492  67.892  1.00  0.00    -0.085 F  
HETATM   16  F   UNL     1      -7.113   9.363  69.761  1.00  0.00    -0.052 F  
HETATM   17  F   UNL     1      -7.218   8.312  67.845  1.00  0.00    -0.084 F  
ENDBRANCH  10  13
TORSDOF 1
ENDMDL
MODEL      138
REMARK 921   NORMALIZED FREE ENERGY PREDICTED BY IDOCK:   -3.20 KCAL/MOL
REMARK 922        TOTAL FREE ENERGY PREDICTED BY IDOCK:   -3.78 KCAL/MOL
REMARK 923 INTER-LIGAND FREE ENERGY PREDICTED BY IDOCK:   -3.40 KCAL/MOL
REMARK 924 INTRA-LIGAND FREE ENERGY PREDICTED BY IDOCK:   -0.38 KCAL/MOL
REMARK 927      BINDING AFFINITY PREDICTED BY RF-SCORE:    0.00 PKD
ROOT
HETATM    1  N   UNL     1      -5.506  11.288  65.570  1.00  0.00    -0.496 NA 
HETATM    2  C   UNL     1      -6.560  10.731  66.186  1.00  0.00    -0.127 A  
HETATM    3  H1  UNL     1      -4.702  11.664  66.073  1.00  0.00     0.000 HD 
HETATM    4  H2  UNL     1      -5.507  11.337  64.551  1.00  0.00     0.000 HD 
HETATM    5  N   UNL     1      -7.591  10.248  65.540  1.00  0.00    -0.146 NA 
HETATM    6  C   UNL     1      -8.494   9.699  66.434  1.00  0.00    -0.123 A  
HETATM    7  C   UNL     1      -8.145   9.807  67.778  1.00  0.00    -0.113 A  
HETATM    8  C   UNL     1      -8.962   9.298  68.800  1.00  0.00    -0.132 A  
HETATM    9  S   UNL     1      -6.631  10.617  67.894  1.00  0.00    -0.060 SA 
HETATM   10  C   UNL     1     -10.166   8.669  68.454  1.00  0.00    -0.200 A  
HETATM   11  C   UNL     1     -10.513   8.514  67.117  1.00  0.00    -0.370 A  
HETATM   12  C   UNL     1      -9.697   9.042  66.104  1.00  0.00    -0.354 A  
ENDROOT
BRANCH  10  13
HETATM   13  O   UNL     1     -10.867   8.186  69.518  1.00  0.00    -0.213 OA 
HETATM   14  C   UNL     1     -10.703   6.832  69.918  1.00  0.00    -0.250 C  
HETATM   15  F   UNL     1      -9.916   6.102  69.101  1.00  0.00    -0.146 F  
HETATM   16  F   UNL     1     -10.189   6.796  71.165  1.00  0.00    -0.196 F  
HETATM   17  F   UNL     1     -11.923   6.247  69.948  1.00  0.00    -0.479 F  
ENDBRANCH  10  13
TORSDOF 1
ENDMDL
MODEL      139
REMARK 921   NORMALIZED FREE ENERGY PREDICTED BY IDOCK:   -3.20 KCAL/MOL
REMARK 922        TOTAL FREE ENERGY PREDICTED BY IDOCK:   -3.78 KCAL/MOL
REMARK 923 INTER-LIGAND FREE ENERGY PREDICTED BY IDOCK:   -3.38 KCAL/MOL
REMARK 924 INTRA-LIGAND FREE ENERGY PREDICTED BY IDOCK:   -0.39 KCAL/MOL
REMARK 927      BINDING AFFINITY PREDICTED BY RF-SCORE:    0.00 PKD
ROOT
HETATM    1  N   UNL     1      -9.976  19.073  68.770  1.00  0.00    -0.407 NA 
HETATM    2  C   UNL     1      -9.668  17.790  68.528  1.00  0.00    -0.343 A  
HETATM    3  H1  UNL     1     -10.921  19.387  68.989  1.00  0.00     0.000 HD 
HETATM    4  H2  UNL     1      -9.230  19.768  68.734  1.00  0.00     0.000 HD 
HETATM    5  N   UNL     1      -8.455  17.387  68.247  1.00  0.00    -0.242 NA 
HETATM    6  C   UNL     1      -8.436  16.012  68.093  1.00  0.00    -0.169 A  
HETATM    7  C   UNL     1      -9.671  15.379  68.228  1.00  0.00    -0.209 A  
HETATM    8  C   UNL     1      -9.809  13.988  68.099  1.00  0.00    -0.235 A  
HETATM    9  S   UNL     1     -10.868  16.568  68.566  1.00  0.00    -0.351 SA 
HETATM   10  C   UNL     1      -8.672  13.218  67.819  1.00  0.00    -0.194 A  
HETATM   11  C   UNL     1      -7.424  13.824  67.722  1.00  0.00    -0.168 A  
HETATM   12  C   UNL     1      -7.300  15.218  67.837  1.00  0.00    -0.155 A  
ENDROOT
BRANCH  10  13
HETATM   13  O   UNL     1      -8.912  11.879  67.744  1.00  0.00    -0.160 OA 
HETATM   14  C   UNL     1      -9.176  11.276  66.484  1.00  0.00    -0.188 C  
HETATM   15  F   UNL     1      -9.270  12.148  65.459  1.00  0.00    -0.180 F  
HETATM   16  F   UNL     1      -8.204  10.383  66.207  1.00  0.00    -0.126 F  
HETATM   17  F   UNL     1     -10.349  10.608  66.569  1.00  0.00    -0.259 F  
ENDBRANCH  10  13
TORSDOF 1
ENDMDL
MODEL      140
REMARK 921   NORMALIZED FREE ENERGY PREDICTED BY IDOCK:   -3.20 KCAL/MOL
REMARK 922        TOTAL FREE ENERGY PREDICTED BY IDOCK:   -3.78 KCAL/MOL
REMARK 923 INTER-LIGAND FREE ENERGY PREDICTED BY IDOCK:   -3.70 KCAL/MOL
REMARK 924 INTRA-LIGAND FREE ENERGY PREDICTED BY IDOCK:   -0.08 KCAL/MOL
REMARK 927      BINDING AFFINITY PREDICTED BY RF-SCORE:    0.00 PKD
ROOT
HETATM    1  N   UNL     1     -11.266   9.439  68.949  1.00  0.00    -0.451 NA 
HETATM    2  C   UNL     1     -10.780  10.663  68.696  1.00  0.00    -0.207 A  
HETATM    3  H1  UNL     1     -12.264   9.239  69.017  1.00  0.00     0.000 HD 
HETATM    4  H2  UNL     1     -10.608   8.671  69.079  1.00  0.00     0.000 HD 
HETATM    5  N   UNL     1      -9.500  10.919  68.609  1.00  0.00    -0.184 NA 
HETATM    6  C   UNL     1      -9.304  12.253  68.295  1.00  0.00    -0.199 A  
HETATM    7  C   UNL     1     -10.464  13.016  68.180  1.00  0.00    -0.245 A  
HETATM    8  C   UNL     1     -10.424  14.384  67.866  1.00  0.00    -0.239 A  
HETATM    9  S   UNL     1     -11.824  12.003  68.471  1.00  0.00    -0.242 SA 
HETATM   10  C   UNL     1      -9.179  14.997  67.670  1.00  0.00    -0.182 A  
HETATM   11  C   UNL     1      -8.012  14.245  67.739  1.00  0.00    -0.174 A  
HETATM   12  C   UNL     1      -8.062  12.882  68.070  1.00  0.00    -0.159 A  
ENDROOT
BRANCH  10  13
HETATM   13  O   UNL     1      -9.256  16.318  67.341  1.00  0.00    -0.209 OA 
HETATM   14  C   UNL     1      -9.764  17.254  68.282  1.00  0.00    -0.294 C  
HETATM   15  F   UNL     1     -10.239  16.700  69.417  1.00  0.00    -0.253 F  
HETATM   16  F   UNL     1      -8.793  18.135  68.601  1.00  0.00    -0.289 F  
HETATM   17  F   UNL     1     -10.776  17.936  67.699  1.00  0.00    -0.373 F  
ENDBRANCH  10  13
TORSDOF 1
ENDMDL
MODEL      141
REMARK 921   NORMALIZED FREE ENERGY PREDICTED BY IDOCK:   -3.17 KCAL/MOL
REMARK 922        TOTAL FREE ENERGY PREDICTED BY IDOCK:   -3.75 KCAL/MOL
REMARK 923 INTER-LIGAND FREE ENERGY PREDICTED BY IDOCK:   -3.38 KCAL/MOL
REMARK 924 INTRA-LIGAND FREE ENERGY PREDICTED BY IDOCK:   -0.37 KCAL/MOL
REMARK 927      BINDING AFFINITY PREDICTED BY RF-SCORE:    0.00 PKD
ROOT
HETATM    1  N   UNL     1     -10.998   6.207  66.426  1.00  0.00    -0.680 NA 
HETATM    2  C   UNL     1     -10.491   6.723  67.556  1.00  0.00    -0.239 A  
HETATM    3  H1  UNL     1     -11.562   5.357  66.406  1.00  0.00     0.000 HD 
HETATM    4  H2  UNL     1     -10.812   6.686  65.545  1.00  0.00     0.000 HD 
HETATM    5  N   UNL     1      -9.767   7.813  67.581  1.00  0.00    -0.148 NA 
HETATM    6  C   UNL     1      -9.427   8.125  68.886  1.00  0.00    -0.151 A  
HETATM    7  C   UNL     1      -9.877   7.228  69.852  1.00  0.00    -0.178 A  
HETATM    8  C   UNL     1      -9.609   7.411  71.218  1.00  0.00    -0.166 A  
HETATM    9  S   UNL     1     -10.757   5.971  69.073  1.00  0.00    -0.339 SA 
HETATM   10  C   UNL     1      -8.861   8.527  71.616  1.00  0.00    -0.207 A  
HETATM   11  C   UNL     1      -8.438   9.458  70.673  1.00  0.00    -0.239 A  
HETATM   12  C   UNL     1      -8.697   9.255  69.308  1.00  0.00    -0.141 A  
ENDROOT
BRANCH  10  13
HETATM   13  O   UNL     1      -8.684   8.626  72.964  1.00  0.00    -0.380 OA 
HETATM   14  C   UNL     1      -7.559   8.014  73.578  1.00  0.00    -0.154 C  
HETATM   15  F   UNL     1      -6.803   7.274  72.740  1.00  0.00    -0.065 F  
HETATM   16  F   UNL     1      -6.784   8.967  74.137  1.00  0.00    -0.156 F  
HETATM   17  F   UNL     1      -8.002   7.200  74.563  1.00  0.00    -0.137 F  
ENDBRANCH  10  13
TORSDOF 1
ENDMDL
MODEL      142
REMARK 921   NORMALIZED FREE ENERGY PREDICTED BY IDOCK:   -3.15 KCAL/MOL
REMARK 922        TOTAL FREE ENERGY PREDICTED BY IDOCK:   -3.73 KCAL/MOL
REMARK 923 INTER-LIGAND FREE ENERGY PREDICTED BY IDOCK:   -3.34 KCAL/MOL
REMARK 924 INTRA-LIGAND FREE ENERGY PREDICTED BY IDOCK:   -0.39 KCAL/MOL
REMARK 927      BINDING AFFINITY PREDICTED BY RF-SCORE:    0.00 PKD
ROOT
HETATM    1  N   UNL     1     -10.337  13.618  64.156  1.00  0.00    -0.699 NA 
HETATM    2  C   UNL     1     -10.132  12.568  64.965  1.00  0.00    -0.236 A  
HETATM    3  H1  UNL     1     -10.495  13.526  63.153  1.00  0.00     0.000 HD 
HETATM    4  H2  UNL     1     -10.336  14.554  64.563  1.00  0.00     0.000 HD 
HETATM    5  N   UNL     1      -9.929  12.687  66.252  1.00  0.00    -0.254 NA 
HETATM    6  C   UNL     1      -9.796  11.435  66.828  1.00  0.00    -0.206 A  
HETATM    7  C   UNL     1      -9.867  10.360  65.944  1.00  0.00    -0.235 A  
HETATM    8  C   UNL     1      -9.749   9.031  66.381  1.00  0.00    -0.337 A  
HETATM    9  S   UNL     1     -10.115  10.967  64.353  1.00  0.00    -0.360 SA 
HETATM   10  C   UNL     1      -9.547   8.783  67.745  1.00  0.00    -0.148 A  
HETATM   11  C   UNL     1      -9.516   9.838  68.650  1.00  0.00    -0.151 A  
HETATM   12  C   UNL     1      -9.619  11.165  68.200  1.00  0.00    -0.181 A  
ENDROOT
BRANCH  10  13
HETATM   13  O   UNL     1      -9.477   7.460  68.065  1.00  0.00    -0.140 OA 
HETATM   14  C   UNL     1      -8.215   6.807  68.103  1.00  0.00    -0.114 C  
HETATM   15  F   UNL     1      -7.181   7.571  67.697  1.00  0.00    -0.079 F  
HETATM   16  F   UNL     1      -7.974   6.380  69.360  1.00  0.00    -0.101 F  
HETATM   17  F   UNL     1      -8.273   5.724  67.294  1.00  0.00    -0.101 F  
ENDBRANCH  10  13
TORSDOF 1
ENDMDL
MODEL      143
REMARK 921   NORMALIZED FREE ENERGY PREDICTED BY IDOCK:   -3.13 KCAL/MOL
REMARK 922        TOTAL FREE ENERGY PREDICTED BY IDOCK:   -3.71 KCAL/MOL
REMARK 923 INTER-LIGAND FREE ENERGY PREDICTED BY IDOCK:   -3.69 KCAL/MOL
REMARK 924 INTRA-LIGAND FREE ENERGY PREDICTED BY IDOCK:   -0.02 KCAL/MOL
REMARK 927      BINDING AFFINITY PREDICTED BY RF-SCORE:    0.00 PKD
ROOT
HETATM    1  N   UNL     1      -9.884   4.068  66.616  1.00  0.00    -0.333 NA 
HETATM    2  C   UNL     1      -9.859   5.410  66.589  1.00  0.00    -0.174 A  
HETATM    3  H1  UNL     1     -10.527   3.534  67.199  1.00  0.00     0.000 HD 
HETATM    4  H2  UNL     1      -9.227   3.558  66.025  1.00  0.00     0.000 HD 
HETATM    5  N   UNL     1      -9.033   6.094  65.841  1.00  0.00    -0.148 NA 
HETATM    6  C   UNL     1      -9.273   7.450  65.988  1.00  0.00    -0.041 A  
HETATM    7  C   UNL     1     -10.278   7.783  66.893  1.00  0.00    -0.303 A  
HETATM    8  C   UNL     1     -10.634   9.117  67.148  1.00  0.00    -0.286 A  
HETATM    9  S   UNL     1     -10.929   6.335  67.557  1.00  0.00    -0.287 SA 
HETATM   10  C   UNL     1      -9.951  10.140  66.476  1.00  0.00    -0.224 A  
HETATM   11  C   UNL     1      -8.974   9.827  65.537  1.00  0.00    -0.214 A  
HETATM   12  C   UNL     1      -8.614   8.491  65.302  1.00  0.00    -0.192 A  
ENDROOT
BRANCH  10  13
HETATM   13  O   UNL     1     -10.395  11.394  66.773  1.00  0.00    -0.218 OA 
HETATM   14  C   UNL     1     -10.773  12.278  65.727  1.00  0.00    -0.263 C  
HETATM   15  F   UNL     1     -10.545  11.802  64.486  1.00  0.00    -0.291 F  
HETATM   16  F   UNL     1     -12.085  12.571  65.847  1.00  0.00    -0.447 F  
HETATM   17  F   UNL     1     -10.072  13.426  65.866  1.00  0.00    -0.271 F  
ENDBRANCH  10  13
TORSDOF 1
ENDMDL
MODEL      144
REMARK 921   NORMALIZED FREE ENERGY PREDICTED BY IDOCK:   -3.11 KCAL/MOL
REMARK 922        TOTAL FREE ENERGY PREDICTED BY IDOCK:   -3.68 KCAL/MOL
REMARK 923 INTER-LIGAND FREE ENERGY PREDICTED BY IDOCK:   -3.53 KCAL/MOL
REMARK 924 INTRA-LIGAND FREE ENERGY PREDICTED BY IDOCK:   -0.15 KCAL/MOL
REMARK 927      BINDING AFFINITY PREDICTED BY RF-SCORE:    0.00 PKD
ROOT
HETATM    1  N   UNL     1     -12.778  12.901  63.364  1.00  0.00    -0.671 NA 
HETATM    2  C   UNL     1     -11.824  12.766  64.299  1.00  0.00    -0.396 A  
HETATM    3  H1  UNL     1     -12.858  12.283  62.557  1.00  0.00     0.000 HD 
HETATM    4  H2  UNL     1     -13.454  13.658  63.466  1.00  0.00     0.000 HD 
HETATM    5  N   UNL     1     -11.721  13.559  65.334  1.00  0.00    -0.321 NA 
HETATM    6  C   UNL     1     -10.676  13.146  66.144  1.00  0.00    -0.278 A  
HETATM    7  C   UNL     1      -9.963  12.042  65.682  1.00  0.00    -0.245 A  
HETATM    8  C   UNL     1      -8.878  11.509  66.396  1.00  0.00    -0.193 A  
HETATM    9  S   UNL     1     -10.650  11.521  64.193  1.00  0.00    -0.393 SA 
HETATM   10  C   UNL     1      -8.499  12.113  67.602  1.00  0.00    -0.163 A  
HETATM   11  C   UNL     1      -9.223  13.190  68.101  1.00  0.00    -0.215 A  
HETATM   12  C   UNL     1     -10.297  13.725  67.372  1.00  0.00    -0.252 A  
ENDROOT
BRANCH  10  13
HETATM   13  O   UNL     1      -7.455  11.500  68.228  1.00  0.00    -0.090 OA 
HETATM   14  C   UNL     1      -6.336  12.266  68.653  1.00  0.00    -0.071 C  
HETATM   15  F   UNL     1      -6.376  13.563  68.284  1.00  0.00    -0.073 F  
HETATM   16  F   UNL     1      -6.237  12.198  69.997  1.00  0.00    -0.127 F  
HETATM   17  F   UNL     1      -5.219  11.718  68.122  1.00  0.00    -0.043 F  
ENDBRANCH  10  13
TORSDOF 1
ENDMDL
MODEL      145
REMARK 921   NORMALIZED FREE ENERGY PREDICTED BY IDOCK:   -3.10 KCAL/MOL
REMARK 922        TOTAL FREE ENERGY PREDICTED BY IDOCK:   -3.68 KCAL/MOL
REMARK 923 INTER-LIGAND FREE ENERGY PREDICTED BY IDOCK:   -3.71 KCAL/MOL
REMARK 924 INTRA-LIGAND FREE ENERGY PREDICTED BY IDOCK:    0.04 KCAL/MOL
REMARK 927      BINDING AFFINITY PREDICTED BY RF-SCORE:    0.00 PKD
ROOT
HETATM    1  N   UNL     1     -11.001   7.720  72.231  1.00  0.00    -0.267 NA 
HETATM    2  C   UNL     1     -11.054   8.469  71.119  1.00  0.00    -0.260 A  
HETATM    3  H1  UNL     1     -10.667   6.756  72.237  1.00  0.00     0.000 HD 
HETATM    4  H2  UNL     1     -11.309   8.132  73.111  1.00  0.00     0.000 HD 
HETATM    5  N   UNL     1     -11.483   9.705  71.111  1.00  0.00    -0.353 NA 
HETATM    6  C   UNL     1     -11.378  10.235  69.837  1.00  0.00    -0.290 A  
HETATM    7  C   UNL     1     -10.892   9.362  68.866  1.00  0.00    -0.123 A  
HETATM    8  C   UNL     1     -10.730   9.756  67.528  1.00  0.00    -0.327 A  
HETATM    9  S   UNL     1     -10.558   7.843  69.603  1.00  0.00    -0.214 SA 
HETATM   10  C   UNL     1     -11.075  11.064  67.161  1.00  0.00    -0.267 A  
HETATM   11  C   UNL     1     -11.522  11.964  68.123  1.00  0.00    -0.384 A  
HETATM   12  C   UNL     1     -11.696  11.554  69.454  1.00  0.00    -0.413 A  
ENDROOT
BRANCH  10  13
HETATM   13  O   UNL     1     -10.851  11.351  65.848  1.00  0.00    -0.272 OA 
HETATM   14  C   UNL     1      -9.568  11.121  65.282  1.00  0.00    -0.230 C  
HETATM   15  F   UNL     1      -8.632  10.724  66.168  1.00  0.00    -0.145 F  
HETATM   16  F   UNL     1      -9.672  10.189  64.311  1.00  0.00    -0.324 F  
HETATM   17  F   UNL     1      -9.141  12.273  64.715  1.00  0.00     0.155 F  
ENDBRANCH  10  13
TORSDOF 1
ENDMDL
MODEL      146
REMARK 921   NORMALIZED FREE ENERGY PREDICTED BY IDOCK:   -3.09 KCAL/MOL
REMARK 922        TOTAL FREE ENERGY PREDICTED BY IDOCK:   -3.67 KCAL/MOL
REMARK 923 INTER-LIGAND FREE ENERGY PREDICTED BY IDOCK:   -3.31 KCAL/MOL
REMARK 924 INTRA-LIGAND FREE ENERGY PREDICTED BY IDOCK:   -0.36 KCAL/MOL
REMARK 927      BINDING AFFINITY PREDICTED BY RF-SCORE:    0.00 PKD
ROOT
HETATM    1  N   UNL     1     -11.050   3.191  73.184  1.00  0.00    -0.110 NA 
HETATM    2  C   UNL     1     -10.830   4.428  72.712  1.00  0.00    -0.134 A  
HETATM    3  H1  UNL     1     -10.476   2.388  72.928  1.00  0.00     0.000 HD 
HETATM    4  H2  UNL     1     -11.827   3.047  73.828  1.00  0.00     0.000 HD 
HETATM    5  N   UNL     1     -11.567   5.459  73.040  1.00  0.00    -0.267 NA 
HETATM    6  C   UNL     1     -11.074   6.604  72.439  1.00  0.00    -0.259 A  
HETATM    7  C   UNL     1      -9.965   6.416  71.616  1.00  0.00    -0.175 A  
HETATM    8  C   UNL     1      -9.355   7.483  70.938  1.00  0.00    -0.154 A  
HETATM    9  S   UNL     1      -9.546   4.747  71.623  1.00  0.00    -0.166 SA 
HETATM   10  C   UNL     1      -9.884   8.772  71.091  1.00  0.00    -0.244 A  
HETATM   11  C   UNL     1     -10.963   8.988  71.941  1.00  0.00    -0.423 A  
HETATM   12  C   UNL     1     -11.576   7.911  72.601  1.00  0.00    -0.435 A  
ENDROOT
BRANCH  10  13
HETATM   13  O   UNL     1      -9.200   9.738  70.415  1.00  0.00    -0.237 OA 
HETATM   14  C   UNL     1      -9.527  10.022  69.062  1.00  0.00    -0.187 C  
HETATM   15  F   UNL     1     -10.451   9.197  68.528  1.00  0.00    -0.213 F  
HETATM   16  F   UNL     1      -9.972  11.292  68.970  1.00  0.00    -0.206 F  
HETATM   17  F   UNL     1      -8.400   9.916  68.321  1.00  0.00    -0.106 F  
ENDBRANCH  10  13
TORSDOF 1
ENDMDL
MODEL      147
REMARK 921   NORMALIZED FREE ENERGY PREDICTED BY IDOCK:   -3.09 KCAL/MOL
REMARK 922        TOTAL FREE ENERGY PREDICTED BY IDOCK:   -3.66 KCAL/MOL
REMARK 923 INTER-LIGAND FREE ENERGY PREDICTED BY IDOCK:   -3.28 KCAL/MOL
REMARK 924 INTRA-LIGAND FREE ENERGY PREDICTED BY IDOCK:   -0.39 KCAL/MOL
REMARK 927      BINDING AFFINITY PREDICTED BY RF-SCORE:    0.00 PKD
ROOT
HETATM    1  N   UNL     1     -12.683   8.517  72.458  1.00  0.00    -0.566 NA 
HETATM    2  C   UNL     1     -11.847   7.976  71.558  1.00  0.00    -0.292 A  
HETATM    3  H1  UNL     1     -12.908   9.511  72.483  1.00  0.00     0.000 HD 
HETATM    4  H2  UNL     1     -13.115   7.904  73.150  1.00  0.00     0.000 HD 
HETATM    5  N   UNL     1     -11.559   6.700  71.527  1.00  0.00    -0.294 NA 
HETATM    6  C   UNL     1     -10.711   6.432  70.466  1.00  0.00    -0.257 A  
HETATM    7  C   UNL     1     -10.332   7.540  69.710  1.00  0.00    -0.221 A  
HETATM    8  C   UNL     1      -9.476   7.424  68.603  1.00  0.00    -0.139 A  
HETATM    9  S   UNL     1     -11.081   8.942  70.368  1.00  0.00    -0.220 SA 
HETATM   10  C   UNL     1      -8.986   6.158  68.256  1.00  0.00    -0.114 A  
HETATM   11  C   UNL     1      -9.385   5.034  68.971  1.00  0.00    -0.176 A  
HETATM   12  C   UNL     1     -10.229   5.163  70.086  1.00  0.00    -0.348 A  
ENDROOT
BRANCH  10  13
HETATM   13  O   UNL     1      -8.189   6.154  67.150  1.00  0.00    -0.106 OA 
HETATM   14  C   UNL     1      -8.763   5.966  65.864  1.00  0.00    -0.150 C  
HETATM   15  F   UNL     1     -10.084   5.692  65.880  1.00  0.00    -0.156 F  
HETATM   16  F   UNL     1      -8.556   7.071  65.120  1.00  0.00    -0.135 F  
HETATM   17  F   UNL     1      -8.132   4.930  65.265  1.00  0.00    -0.102 F  
ENDBRANCH  10  13
TORSDOF 1
ENDMDL
MODEL      148
REMARK 921   NORMALIZED FREE ENERGY PREDICTED BY IDOCK:   -3.06 KCAL/MOL
REMARK 922        TOTAL FREE ENERGY PREDICTED BY IDOCK:   -3.64 KCAL/MOL
REMARK 923 INTER-LIGAND FREE ENERGY PREDICTED BY IDOCK:   -3.25 KCAL/MOL
REMARK 924 INTRA-LIGAND FREE ENERGY PREDICTED BY IDOCK:   -0.38 KCAL/MOL
REMARK 927      BINDING AFFINITY PREDICTED BY RF-SCORE:    0.00 PKD
ROOT
HETATM    1  N   UNL     1      -5.643   6.012  69.194  1.00  0.00    -0.008 NA 
HETATM    2  C   UNL     1      -6.711   6.777  69.469  1.00  0.00    -0.050 A  
HETATM    3  H1  UNL     1      -5.060   5.590  69.916  1.00  0.00     0.000 HD 
HETATM    4  H2  UNL     1      -5.403   5.845  68.217  1.00  0.00     0.000 HD 
HETATM    5  N   UNL     1      -7.459   7.318  68.542  1.00  0.00    -0.103 NA 
HETATM    6  C   UNL     1      -8.508   8.009  69.124  1.00  0.00    -0.136 A  
HETATM    7  C   UNL     1      -8.522   8.010  70.518  1.00  0.00    -0.125 A  
HETATM    8  C   UNL     1      -9.524   8.669  71.249  1.00  0.00    -0.289 A  
HETATM    9  S   UNL     1      -7.174   7.105  71.086  1.00  0.00    -0.075 SA 
HETATM   10  C   UNL     1     -10.533   9.349  70.553  1.00  0.00    -0.274 A  
HETATM   11  C   UNL     1     -10.561   9.324  69.163  1.00  0.00    -0.228 A  
HETATM   12  C   UNL     1      -9.545   8.677  68.442  1.00  0.00    -0.157 A  
ENDROOT
BRANCH  10  13
HETATM   13  O   UNL     1     -11.470   9.926  71.357  1.00  0.00    -0.371 OA 
HETATM   14  C   UNL     1     -12.644   9.206  71.707  1.00  0.00    -0.370 C  
HETATM   15  F   UNL     1     -12.767   8.011  71.094  1.00  0.00    -0.309 F  
HETATM   16  F   UNL     1     -12.666   9.016  73.042  1.00  0.00    -0.373 F  
HETATM   17  F   UNL     1     -13.718   9.956  71.371  1.00  0.00    -0.384 F  
ENDBRANCH  10  13
TORSDOF 1
ENDMDL
MODEL      149
REMARK 921   NORMALIZED FREE ENERGY PREDICTED BY IDOCK:   -3.06 KCAL/MOL
REMARK 922        TOTAL FREE ENERGY PREDICTED BY IDOCK:   -3.64 KCAL/MOL
REMARK 923 INTER-LIGAND FREE ENERGY PREDICTED BY IDOCK:   -3.24 KCAL/MOL
REMARK 924 INTRA-LIGAND FREE ENERGY PREDICTED BY IDOCK:   -0.40 KCAL/MOL
REMARK 927      BINDING AFFINITY PREDICTED BY RF-SCORE:    0.00 PKD
ROOT
HETATM    1  N   UNL     1      -9.495   3.869  72.040  1.00  0.00    -0.128 NA 
HETATM    2  C   UNL     1      -9.681   4.739  71.035  1.00  0.00    -0.187 A  
HETATM    3  H1  UNL     1      -9.216   4.154  72.978  1.00  0.00     0.000 HD 
HETATM    4  H2  UNL     1      -9.640   2.876  71.857  1.00  0.00     0.000 HD 
HETATM    5  N   UNL     1     -10.040   4.373  69.831  1.00  0.00    -0.164 NA 
HETATM    6  C   UNL     1     -10.199   5.488  69.025  1.00  0.00    -0.228 A  
HETATM    7  C   UNL     1      -9.918   6.709  69.634  1.00  0.00    -0.175 A  
HETATM    8  C   UNL     1     -10.034   7.926  68.943  1.00  0.00    -0.194 A  
HETATM    9  S   UNL     1      -9.453   6.422  71.265  1.00  0.00    -0.166 SA 
HETATM   10  C   UNL     1     -10.437   7.906  67.601  1.00  0.00    -0.234 A  
HETATM   11  C   UNL     1     -10.762   6.702  66.987  1.00  0.00    -0.437 A  
HETATM   12  C   UNL     1     -10.627   5.489  67.682  1.00  0.00    -0.239 A  
ENDROOT
BRANCH  10  13
HETATM   13  O   UNL     1     -10.546   9.141  67.035  1.00  0.00    -0.253 OA 
HETATM   14  C   UNL     1      -9.487   9.650  66.236  1.00  0.00    -0.199 C  
HETATM   15  F   UNL     1      -8.388   8.868  66.205  1.00  0.00    -0.110 F  
HETATM   16  F   UNL     1      -9.930   9.830  64.974  1.00  0.00    -0.377 F  
HETATM   17  F   UNL     1      -9.123  10.856  66.729  1.00  0.00    -0.147 F  
ENDBRANCH  10  13
TORSDOF 1
ENDMDL
MODEL      150
REMARK 921   NORMALIZED FREE ENERGY PREDICTED BY IDOCK:   -3.06 KCAL/MOL
REMARK 922        TOTAL FREE ENERGY PREDICTED BY IDOCK:   -3.63 KCAL/MOL
REMARK 923 INTER-LIGAND FREE ENERGY PREDICTED BY IDOCK:   -3.32 KCAL/MOL
REMARK 924 INTRA-LIGAND FREE ENERGY PREDICTED BY IDOCK:   -0.31 KCAL/MOL
REMARK 927      BINDING AFFINITY PREDICTED BY RF-SCORE:    0.00 PKD
ROOT
HETATM    1  N   UNL     1     -10.255   6.977  74.132  1.00  0.00    -0.435 NA 
HETATM    2  C   UNL     1     -10.170   7.603  72.948  1.00  0.00    -0.298 A  
HETATM    3  H1  UNL     1      -9.693   6.160  74.372  1.00  0.00     0.000 HD 
HETATM    4  H2  UNL     1     -10.912   7.334  74.825  1.00  0.00     0.000 HD 
HETATM    5  N   UNL     1     -10.891   8.650  72.641  1.00  0.00    -0.147 NA 
HETATM    6  C   UNL     1     -10.553   9.104  71.378  1.00  0.00    -0.341 A  
HETATM    7  C   UNL     1      -9.582   8.356  70.715  1.00  0.00    -0.173 A  
HETATM    8  C   UNL     1      -9.137   8.694  69.427  1.00  0.00    -0.149 A  
HETATM    9  S   UNL     1      -9.091   7.059  71.732  1.00  0.00    -0.136 SA 
HETATM   10  C   UNL     1      -9.693   9.812  68.790  1.00  0.00    -0.161 A  
HETATM   11  C   UNL     1     -10.633  10.596  69.451  1.00  0.00    -0.270 A  
HETATM   12  C   UNL     1     -11.083  10.240  70.732  1.00  0.00    -0.303 A  
ENDROOT
BRANCH  10  13
HETATM   13  O   UNL     1      -9.170  10.068  67.558  1.00  0.00    -0.137 OA 
HETATM   14  C   UNL     1      -9.991   9.960  66.403  1.00  0.00    -0.244 C  
HETATM   15  F   UNL     1     -11.233   9.492  66.646  1.00  0.00    -0.026 F  
HETATM   16  F   UNL     1     -10.090  11.170  65.814  1.00  0.00    -0.248 F  
HETATM   17  F   UNL     1      -9.392   9.116  65.533  1.00  0.00    -0.248 F  
ENDBRANCH  10  13
TORSDOF 1
ENDMDL
MODEL      151
REMARK 921   NORMALIZED FREE ENERGY PREDICTED BY IDOCK:   -3.05 KCAL/MOL
REMARK 922        TOTAL FREE ENERGY PREDICTED BY IDOCK:   -3.63 KCAL/MOL
REMARK 923 INTER-LIGAND FREE ENERGY PREDICTED BY IDOCK:   -3.26 KCAL/MOL
REMARK 924 INTRA-LIGAND FREE ENERGY PREDICTED BY IDOCK:   -0.37 KCAL/MOL
REMARK 927      BINDING AFFINITY PREDICTED BY RF-SCORE:    0.00 PKD
ROOT
HETATM    1  N   UNL     1     -10.506   6.473  74.521  1.00  0.00    -0.388 NA 
HETATM    2  C   UNL     1     -10.536   6.518  73.180  1.00  0.00    -0.265 A  
HETATM    3  H1  UNL     1     -10.458   5.602  75.049  1.00  0.00     0.000 HD 
HETATM    4  H2  UNL     1     -10.531   7.353  75.038  1.00  0.00     0.000 HD 
HETATM    5  N   UNL     1     -10.598   7.637  72.504  1.00  0.00    -0.255 NA 
HETATM    6  C   UNL     1     -10.568   7.371  71.146  1.00  0.00    -0.222 A  
HETATM    7  C   UNL     1     -10.518   6.022  70.803  1.00  0.00    -0.239 A  
HETATM    8  C   UNL     1     -10.483   5.598  69.465  1.00  0.00    -0.372 A  
HETATM    9  S   UNL     1     -10.500   5.083  72.245  1.00  0.00    -0.202 SA 
HETATM   10  C   UNL     1     -10.506   6.563  68.448  1.00  0.00    -0.218 A  
HETATM   11  C   UNL     1     -10.514   7.916  68.770  1.00  0.00    -0.198 A  
HETATM   12  C   UNL     1     -10.565   8.328  70.111  1.00  0.00    -0.233 A  
ENDROOT
BRANCH  10  13
HETATM   13  O   UNL     1     -10.438   6.046  67.189  1.00  0.00    -0.198 OA 
HETATM   14  C   UNL     1      -9.178   5.697  66.634  1.00  0.00    -0.134 C  
HETATM   15  F   UNL     1      -8.120   6.027  67.403  1.00  0.00    -0.103 F  
HETATM   16  F   UNL     1      -9.149   4.369  66.399  1.00  0.00    -0.114 F  
HETATM   17  F   UNL     1      -9.044   6.337  65.449  1.00  0.00    -0.119 F  
ENDBRANCH  10  13
TORSDOF 1
ENDMDL
MODEL      152
REMARK 921   NORMALIZED FREE ENERGY PREDICTED BY IDOCK:   -3.05 KCAL/MOL
REMARK 922        TOTAL FREE ENERGY PREDICTED BY IDOCK:   -3.62 KCAL/MOL
REMARK 923 INTER-LIGAND FREE ENERGY PREDICTED BY IDOCK:   -3.24 KCAL/MOL
REMARK 924 INTRA-LIGAND FREE ENERGY PREDICTED BY IDOCK:   -0.39 KCAL/MOL
REMARK 927      BINDING AFFINITY PREDICTED BY RF-SCORE:    0.00 PKD
ROOT
HETATM    1  N   UNL     1     -13.295  11.247  71.608  1.00  0.00    -0.295 NA 
HETATM    2  C   UNL     1     -12.348  10.518  70.998  1.00  0.00    -0.399 A  
HETATM    3  H1  UNL     1     -13.666  12.115  71.221  1.00  0.00     0.000 HD 
HETATM    4  H2  UNL     1     -13.663  10.918  72.501  1.00  0.00     0.000 HD 
HETATM    5  N   UNL     1     -11.872   9.405  71.494  1.00  0.00    -0.359 NA 
HETATM    6  C   UNL     1     -10.946   8.856  70.624  1.00  0.00    -0.241 A  
HETATM    7  C   UNL     1     -10.701   9.595  69.469  1.00  0.00    -0.232 A  
HETATM    8  C   UNL     1      -9.788   9.165  68.493  1.00  0.00    -0.178 A  
HETATM    9  S   UNL     1     -11.680  11.010  69.498  1.00  0.00    -0.358 SA 
HETATM   10  C   UNL     1      -9.100   7.961  68.695  1.00  0.00    -0.136 A  
HETATM   11  C   UNL     1      -9.361   7.187  69.820  1.00  0.00    -0.146 A  
HETATM   12  C   UNL     1     -10.264   7.635  70.798  1.00  0.00    -0.201 A  
ENDROOT
BRANCH  10  13
HETATM   13  O   UNL     1      -8.261   7.622  67.675  1.00  0.00    -0.119 OA 
HETATM   14  C   UNL     1      -8.755   6.879  66.569  1.00  0.00    -0.133 C  
HETATM   15  F   UNL     1     -10.036   6.476  66.697  1.00  0.00    -0.207 F  
HETATM   16  F   UNL     1      -8.643   7.623  65.449  1.00  0.00    -0.137 F  
HETATM   17  F   UNL     1      -7.987   5.776  66.420  1.00  0.00    -0.097 F  
ENDBRANCH  10  13
TORSDOF 1
ENDMDL
MODEL      153
REMARK 921   NORMALIZED FREE ENERGY PREDICTED BY IDOCK:   -3.04 KCAL/MOL
REMARK 922        TOTAL FREE ENERGY PREDICTED BY IDOCK:   -3.62 KCAL/MOL
REMARK 923 INTER-LIGAND FREE ENERGY PREDICTED BY IDOCK:   -3.22 KCAL/MOL
REMARK 924 INTRA-LIGAND FREE ENERGY PREDICTED BY IDOCK:   -0.40 KCAL/MOL
REMARK 927      BINDING AFFINITY PREDICTED BY RF-SCORE:    0.00 PKD
ROOT
HETATM    1  N   UNL     1      -9.670   7.984  73.161  1.00  0.00    -0.284 NA 
HETATM    2  C   UNL     1      -9.659   8.323  71.863  1.00  0.00    -0.221 A  
HETATM    3  H1  UNL     1     -10.429   8.231  73.795  1.00  0.00     0.000 HD 
HETATM    4  H2  UNL     1      -8.881   7.454  73.532  1.00  0.00     0.000 HD 
HETATM    5  N   UNL     1      -8.685   8.005  71.049  1.00  0.00    -0.130 NA 
HETATM    6  C   UNL     1      -8.974   8.446  69.769  1.00  0.00    -0.146 A  
HETATM    7  C   UNL     1     -10.175   9.139  69.634  1.00  0.00    -0.203 A  
HETATM    8  C   UNL     1     -10.602   9.647  68.397  1.00  0.00    -0.264 A  
HETATM    9  S   UNL     1     -10.947   9.216  71.170  1.00  0.00    -0.352 SA 
HETATM   10  C   UNL     1      -9.791   9.456  67.270  1.00  0.00    -0.179 A  
HETATM   11  C   UNL     1      -8.609   8.731  67.375  1.00  0.00    -0.126 A  
HETATM   12  C   UNL     1      -8.183   8.242  68.621  1.00  0.00    -0.120 A  
ENDROOT
BRANCH  10  13
HETATM   13  O   UNL     1     -10.312   9.962  66.117  1.00  0.00    -0.230 OA 
HETATM   14  C   UNL     1      -9.952  11.269  65.690  1.00  0.00    -0.247 C  
HETATM   15  F   UNL     1      -9.178  11.946  66.564  1.00  0.00    -0.190 F  
HETATM   16  F   UNL     1      -9.306  11.187  64.508  1.00  0.00    -0.216 F  
HETATM   17  F   UNL     1     -11.085  11.982  65.501  1.00  0.00    -0.313 F  
ENDBRANCH  10  13
TORSDOF 1
ENDMDL
MODEL      154
REMARK 921   NORMALIZED FREE ENERGY PREDICTED BY IDOCK:   -3.03 KCAL/MOL
REMARK 922        TOTAL FREE ENERGY PREDICTED BY IDOCK:   -3.60 KCAL/MOL
REMARK 923 INTER-LIGAND FREE ENERGY PREDICTED BY IDOCK:   -3.23 KCAL/MOL
REMARK 924 INTRA-LIGAND FREE ENERGY PREDICTED BY IDOCK:   -0.37 KCAL/MOL
REMARK 927      BINDING AFFINITY PREDICTED BY RF-SCORE:    0.00 PKD
ROOT
HETATM    1  N   UNL     1      -7.987   1.714  68.640  1.00  0.00    -0.049 NA 
HETATM    2  C   UNL     1      -8.566   2.886  68.944  1.00  0.00    -0.074 A  
HETATM    3  H1  UNL     1      -7.449   1.167  69.312  1.00  0.00     0.000 HD 
HETATM    4  H2  UNL     1      -8.090   1.352  67.692  1.00  0.00     0.000 HD 
HETATM    5  N   UNL     1      -9.256   3.587  68.082  1.00  0.00    -0.159 NA 
HETATM    6  C   UNL     1      -9.768   4.718  68.692  1.00  0.00    -0.157 A  
HETATM    7  C   UNL     1      -9.422   4.882  70.032  1.00  0.00    -0.166 A  
HETATM    8  C   UNL     1      -9.866   5.982  70.784  1.00  0.00    -0.221 A  
HETATM    9  S   UNL     1      -8.433   3.559  70.515  1.00  0.00    -0.062 SA 
HETATM   10  C   UNL     1     -10.674   6.944  70.163  1.00  0.00    -0.237 A  
HETATM   11  C   UNL     1     -11.066   6.778  68.839  1.00  0.00    -0.243 A  
HETATM   12  C   UNL     1     -10.603   5.683  68.092  1.00  0.00    -0.256 A  
ENDROOT
BRANCH  10  13
HETATM   13  O   UNL     1     -11.073   7.951  70.989  1.00  0.00    -0.242 OA 
HETATM   14  C   UNL     1     -12.194   7.765  71.844  1.00  0.00    -0.306 C  
HETATM   15  F   UNL     1     -12.841   6.596  71.665  1.00  0.00    -0.385 F  
HETATM   16  F   UNL     1     -11.791   7.848  73.128  1.00  0.00    -0.362 F  
HETATM   17  F   UNL     1     -13.074   8.766  71.614  1.00  0.00    -0.312 F  
ENDBRANCH  10  13
TORSDOF 1
ENDMDL
MODEL      155
REMARK 921   NORMALIZED FREE ENERGY PREDICTED BY IDOCK:   -2.94 KCAL/MOL
REMARK 922        TOTAL FREE ENERGY PREDICTED BY IDOCK:   -3.51 KCAL/MOL
REMARK 923 INTER-LIGAND FREE ENERGY PREDICTED BY IDOCK:   -3.16 KCAL/MOL
REMARK 924 INTRA-LIGAND FREE ENERGY PREDICTED BY IDOCK:   -0.35 KCAL/MOL
REMARK 927      BINDING AFFINITY PREDICTED BY RF-SCORE:    0.00 PKD
ROOT
HETATM    1  N   UNL     1     -10.896   7.428  73.856  1.00  0.00    -0.547 NA 
HETATM    2  C   UNL     1     -10.397   7.611  72.623  1.00  0.00    -0.275 A  
HETATM    3  H1  UNL     1     -11.050   6.506  74.263  1.00  0.00     0.000 HD 
HETATM    4  H2  UNL     1     -11.133   8.249  74.412  1.00  0.00     0.000 HD 
HETATM    5  N   UNL     1     -10.200   8.795  72.102  1.00  0.00    -0.326 NA 
HETATM    6  C   UNL     1      -9.635   8.670  70.844  1.00  0.00    -0.203 A  
HETATM    7  C   UNL     1      -9.439   7.362  70.405  1.00  0.00    -0.165 A  
HETATM    8  C   UNL     1      -8.876   7.077  69.151  1.00  0.00    -0.135 A  
HETATM    9  S   UNL     1      -9.980   6.280  71.628  1.00  0.00    -0.180 SA 
HETATM   10  C   UNL     1      -8.508   8.142  68.317  1.00  0.00    -0.130 A  
HETATM   11  C   UNL     1      -8.656   9.454  68.753  1.00  0.00    -0.127 A  
HETATM   12  C   UNL     1      -9.236   9.727  70.002  1.00  0.00    -0.266 A  
ENDROOT
BRANCH  10  13
HETATM   13  O   UNL     1      -7.945   7.755  67.137  1.00  0.00    -0.113 OA 
HETATM   14  C   UNL     1      -8.772   7.464  66.019  1.00  0.00    -0.153 C  
HETATM   15  F   UNL     1     -10.095   7.500  66.281  1.00  0.00    -0.251 F  
HETATM   16  F   UNL     1      -8.502   8.338  65.028  1.00  0.00    -0.153 F  
HETATM   17  F   UNL     1      -8.471   6.222  65.579  1.00  0.00    -0.134 F  
ENDBRANCH  10  13
TORSDOF 1
ENDMDL
MODEL      156
REMARK 921   NORMALIZED FREE ENERGY PREDICTED BY IDOCK:   -2.90 KCAL/MOL
REMARK 922        TOTAL FREE ENERGY PREDICTED BY IDOCK:   -3.47 KCAL/MOL
REMARK 923 INTER-LIGAND FREE ENERGY PREDICTED BY IDOCK:   -3.12 KCAL/MOL
REMARK 924 INTRA-LIGAND FREE ENERGY PREDICTED BY IDOCK:   -0.35 KCAL/MOL
REMARK 927      BINDING AFFINITY PREDICTED BY RF-SCORE:    0.00 PKD
ROOT
HETATM    1  N   UNL     1      -6.496  12.143  66.594  1.00  0.00    -0.457 NA 
HETATM    2  C   UNL     1      -7.124  11.427  67.539  1.00  0.00    -0.106 A  
HETATM    3  H1  UNL     1      -6.986  12.613  65.833  1.00  0.00     0.000 HD 
HETATM    4  H2  UNL     1      -5.480  12.223  66.639  1.00  0.00     0.000 HD 
HETATM    5  N   UNL     1      -6.495  10.824  68.515  1.00  0.00    -0.054 NA 
HETATM    6  C   UNL     1      -7.405  10.207  69.356  1.00  0.00    -0.106 A  
HETATM    7  C   UNL     1      -8.741  10.323  68.977  1.00  0.00    -0.163 A  
HETATM    8  C   UNL     1      -9.778   9.750  69.731  1.00  0.00    -0.256 A  
HETATM    9  S   UNL     1      -8.829  11.245  67.527  1.00  0.00    -0.143 SA 
HETATM   10  C   UNL     1      -9.455   9.035  70.892  1.00  0.00    -0.267 A  
HETATM   11  C   UNL     1      -8.132   8.942  71.310  1.00  0.00    -0.185 A  
HETATM   12  C   UNL     1      -7.102   9.506  70.540  1.00  0.00    -0.130 A  
ENDROOT
BRANCH  10  13
HETATM   13  O   UNL     1     -10.536   8.546  71.563  1.00  0.00    -0.226 OA 
HETATM   14  C   UNL     1     -11.076   7.279  71.210  1.00  0.00    -0.247 C  
HETATM   15  F   UNL     1     -10.503   6.713  70.128  1.00  0.00    -0.204 F  
HETATM   16  F   UNL     1     -10.956   6.438  72.258  1.00  0.00    -0.240 F  
HETATM   17  F   UNL     1     -12.393   7.437  70.946  1.00  0.00    -0.332 F  
ENDBRANCH  10  13
TORSDOF 1
ENDMDL
MODEL      157
REMARK 921   NORMALIZED FREE ENERGY PREDICTED BY IDOCK:   -2.90 KCAL/MOL
REMARK 922        TOTAL FREE ENERGY PREDICTED BY IDOCK:   -3.46 KCAL/MOL
REMARK 923 INTER-LIGAND FREE ENERGY PREDICTED BY IDOCK:   -3.15 KCAL/MOL
REMARK 924 INTRA-LIGAND FREE ENERGY PREDICTED BY IDOCK:   -0.31 KCAL/MOL
REMARK 927      BINDING AFFINITY PREDICTED BY RF-SCORE:    0.00 PKD
ROOT
HETATM    1  N   UNL     1     -11.046  10.077  71.230  1.00  0.00    -0.237 NA 
HETATM    2  C   UNL     1     -10.903   9.109  70.311  1.00  0.00    -0.246 A  
HETATM    3  H1  UNL     1     -11.332   9.895  72.191  1.00  0.00     0.000 HD 
HETATM    4  H2  UNL     1     -10.859  11.041  70.954  1.00  0.00     0.000 HD 
HETATM    5  N   UNL     1     -10.536   9.344  69.077  1.00  0.00    -0.220 NA 
HETATM    6  C   UNL     1     -10.431   8.153  68.380  1.00  0.00    -0.161 A  
HETATM    7  C   UNL     1     -10.760   7.007  69.102  1.00  0.00    -0.218 A  
HETATM    8  C   UNL     1     -10.701   5.727  68.529  1.00  0.00    -0.288 A  
HETATM    9  S   UNL     1     -11.203   7.467  70.700  1.00  0.00    -0.265 SA 
HETATM   10  C   UNL     1     -10.306   5.602  67.190  1.00  0.00    -0.248 A  
HETATM   11  C   UNL     1      -9.932   6.728  66.465  1.00  0.00    -0.146 A  
HETATM   12  C   UNL     1     -10.011   8.006  67.042  1.00  0.00    -0.324 A  
ENDROOT
BRANCH  10  13
HETATM   13  O   UNL     1     -10.254   4.316  66.743  1.00  0.00    -0.167 OA 
HETATM   14  C   UNL     1      -9.182   3.471  67.138  1.00  0.00    -0.192 C  
HETATM   15  F   UNL     1      -8.225   4.089  67.862  1.00  0.00    -0.090 F  
HETATM   16  F   UNL     1      -9.671   2.438  67.854  1.00  0.00    -0.255 F  
HETATM   17  F   UNL     1      -8.600   2.973  66.024  1.00  0.00    -0.099 F  
ENDBRANCH  10  13
TORSDOF 1
ENDMDL
MODEL      158
REMARK 921   NORMALIZED FREE ENERGY PREDICTED BY IDOCK:   -2.87 KCAL/MOL
REMARK 922        TOTAL FREE ENERGY PREDICTED BY IDOCK:   -3.43 KCAL/MOL
REMARK 923 INTER-LIGAND FREE ENERGY PREDICTED BY IDOCK:   -3.04 KCAL/MOL
REMARK 924 INTRA-LIGAND FREE ENERGY PREDICTED BY IDOCK:   -0.39 KCAL/MOL
REMARK 927      BINDING AFFINITY PREDICTED BY RF-SCORE:    0.00 PKD
ROOT
HETATM    1  N   UNL     1      -6.188   8.398  69.945  1.00  0.00    -0.032 NA 
HETATM    2  C   UNL     1      -6.911   9.330  69.304  1.00  0.00    -0.049 A  
HETATM    3  H1  UNL     1      -6.362   7.397  69.854  1.00  0.00     0.000 HD 
HETATM    4  H2  UNL     1      -5.428   8.705  70.552  1.00  0.00     0.000 HD 
HETATM    5  N   UNL     1      -6.686  10.613  69.421  1.00  0.00    -0.071 NA 
HETATM    6  C   UNL     1      -7.555  11.322  68.610  1.00  0.00    -0.129 A  
HETATM    7  C   UNL     1      -8.471  10.549  67.898  1.00  0.00    -0.119 A  
HETATM    8  C   UNL     1      -9.416  11.127  67.035  1.00  0.00    -0.193 A  
HETATM    9  S   UNL     1      -8.206   8.891  68.271  1.00  0.00    -0.121 SA 
HETATM   10  C   UNL     1      -9.439  12.521  66.892  1.00  0.00    -0.219 A  
HETATM   11  C   UNL     1      -8.507  13.307  67.561  1.00  0.00    -0.202 A  
HETATM   12  C   UNL     1      -7.578  12.720  68.435  1.00  0.00    -0.133 A  
ENDROOT
BRANCH  10  13
HETATM   13  O   UNL     1     -10.373  12.974  66.009  1.00  0.00    -0.274 OA 
HETATM   14  C   UNL     1     -11.572  13.567  66.488  1.00  0.00    -0.359 C  
HETATM   15  F   UNL     1     -11.718  13.522  67.828  1.00  0.00    -0.308 F  
HETATM   16  F   UNL     1     -11.622  14.854  66.087  1.00  0.00    -0.350 F  
HETATM   17  F   UNL     1     -12.620  12.913  65.935  1.00  0.00    -0.483 F  
ENDBRANCH  10  13
TORSDOF 1
ENDMDL
MODEL      159
REMARK 921   NORMALIZED FREE ENERGY PREDICTED BY IDOCK:   -2.86 KCAL/MOL
REMARK 922        TOTAL FREE ENERGY PREDICTED BY IDOCK:   -3.42 KCAL/MOL
REMARK 923 INTER-LIGAND FREE ENERGY PREDICTED BY IDOCK:   -3.03 KCAL/MOL
REMARK 924 INTRA-LIGAND FREE ENERGY PREDICTED BY IDOCK:   -0.39 KCAL/MOL
REMARK 927      BINDING AFFINITY PREDICTED BY RF-SCORE:    0.00 PKD
ROOT
HETATM    1  N   UNL     1     -11.089   4.821  65.332  1.00  0.00    -0.926 NA 
HETATM    2  C   UNL     1     -10.658   4.989  66.591  1.00  0.00    -0.195 A  
HETATM    3  H1  UNL     1     -11.640   5.520  64.833  1.00  0.00     0.000 HD 
HETATM    4  H2  UNL     1     -10.855   3.953  64.849  1.00  0.00     0.000 HD 
HETATM    5  N   UNL     1      -9.951   4.093  67.230  1.00  0.00    -0.119 NA 
HETATM    6  C   UNL     1      -9.614   4.563  68.488  1.00  0.00    -0.149 A  
HETATM    7  C   UNL     1     -10.110   5.826  68.805  1.00  0.00    -0.177 A  
HETATM    8  C   UNL     1      -9.852   6.435  70.044  1.00  0.00    -0.193 A  
HETATM    9  S   UNL     1     -11.015   6.419  67.467  1.00  0.00    -0.318 SA 
HETATM   10  C   UNL     1      -9.078   5.746  70.988  1.00  0.00    -0.146 A  
HETATM   11  C   UNL     1      -8.538   4.503  70.675  1.00  0.00    -0.118 A  
HETATM   12  C   UNL     1      -8.816   3.897  69.440  1.00  0.00    -0.148 A  
ENDROOT
BRANCH  10  13
HETATM   13  O   UNL     1      -8.863   6.438  72.142  1.00  0.00    -0.136 OA 
HETATM   14  C   UNL     1      -7.737   7.298  72.252  1.00  0.00    -0.092 C  
HETATM   15  F   UNL     1      -6.901   7.259  71.195  1.00  0.00    -0.052 F  
HETATM   16  F   UNL     1      -8.164   8.567  72.424  1.00  0.00    -0.191 F  
HETATM   17  F   UNL     1      -7.034   6.939  73.350  1.00  0.00    -0.074 F  
ENDBRANCH  10  13
TORSDOF 1
ENDMDL
MODEL      160
REMARK 921   NORMALIZED FREE ENERGY PREDICTED BY IDOCK:   -2.82 KCAL/MOL
REMARK 922        TOTAL FREE ENERGY PREDICTED BY IDOCK:   -3.38 KCAL/MOL
REMARK 923 INTER-LIGAND FREE ENERGY PREDICTED BY IDOCK:   -3.71 KCAL/MOL
REMARK 924 INTRA-LIGAND FREE ENERGY PREDICTED BY IDOCK:    0.32 KCAL/MOL
REMARK 927      BINDING AFFINITY PREDICTED BY RF-SCORE:    0.00 PKD
ROOT
HETATM    1  N   UNL     1     -12.736  13.451  64.287  1.00  0.00    -0.656 NA 
HETATM    2  C   UNL     1     -11.751  14.054  64.970  1.00  0.00    -0.364 A  
HETATM    3  H1  UNL     1     -13.342  13.944  63.631  1.00  0.00     0.000 HD 
HETATM    4  H2  UNL     1     -12.887  12.452  64.430  1.00  0.00     0.000 HD 
HETATM    5  N   UNL     1     -10.974  13.421  65.812  1.00  0.00    -0.277 NA 
HETATM    6  C   UNL     1     -10.026  14.288  66.326  1.00  0.00    -0.306 A  
HETATM    7  C   UNL     1     -10.121  15.606  65.883  1.00  0.00    -0.353 A  
HETATM    8  C   UNL     1      -9.230  16.600  66.318  1.00  0.00    -0.328 A  
HETATM    9  S   UNL     1     -11.440  15.729  64.786  1.00  0.00    -0.164 SA 
HETATM   10  C   UNL     1      -8.221  16.254  67.228  1.00  0.00    -0.172 A  
HETATM   11  C   UNL     1      -8.083  14.936  67.649  1.00  0.00    -0.180 A  
HETATM   12  C   UNL     1      -8.990  13.953  67.221  1.00  0.00    -0.225 A  
ENDROOT
BRANCH  10  13
HETATM   13  O   UNL     1      -7.394  17.285  67.560  1.00  0.00    -0.161 OA 
HETATM   14  C   UNL     1      -6.056  17.020  67.958  1.00  0.00    -0.133 C  
HETATM   15  F   UNL     1      -5.760  15.709  68.074  1.00  0.00    -0.094 F  
HETATM   16  F   UNL     1      -5.209  17.581  67.070  1.00  0.00    -0.119 F  
HETATM   17  F   UNL     1      -5.848  17.600  69.162  1.00  0.00    -0.175 F  
ENDBRANCH  10  13
TORSDOF 1
ENDMDL
MODEL      161
REMARK 921   NORMALIZED FREE ENERGY PREDICTED BY IDOCK:   -2.78 KCAL/MOL
REMARK 922        TOTAL FREE ENERGY PREDICTED BY IDOCK:   -3.34 KCAL/MOL
REMARK 923 INTER-LIGAND FREE ENERGY PREDICTED BY IDOCK:   -2.94 KCAL/MOL
REMARK 924 INTRA-LIGAND FREE ENERGY PREDICTED BY IDOCK:   -0.39 KCAL/MOL
REMARK 927      BINDING AFFINITY PREDICTED BY RF-SCORE:    0.00 PKD
ROOT
HETATM    1  N   UNL     1      -9.800   7.567  73.895  1.00  0.00    -0.389 NA 
HETATM    2  C   UNL     1      -9.685   7.004  72.682  1.00  0.00    -0.150 A  
HETATM    3  H1  UNL     1     -10.694   7.684  74.372  1.00  0.00     0.000 HD 
HETATM    4  H2  UNL     1      -8.954   7.892  74.363  1.00  0.00     0.000 HD 
HETATM    5  N   UNL     1      -8.538   6.854  72.070  1.00  0.00    -0.121 NA 
HETATM    6  C   UNL     1      -8.727   6.204  70.863  1.00  0.00    -0.136 A  
HETATM    7  C   UNL     1     -10.049   5.894  70.552  1.00  0.00    -0.197 A  
HETATM    8  C   UNL     1     -10.397   5.236  69.362  1.00  0.00    -0.313 A  
HETATM    9  S   UNL     1     -11.062   6.438  71.833  1.00  0.00    -0.282 SA 
HETATM   10  C   UNL     1      -9.382   4.888  68.460  1.00  0.00    -0.131 A  
HETATM   11  C   UNL     1      -8.052   5.150  68.770  1.00  0.00    -0.085 A  
HETATM   12  C   UNL     1      -7.717   5.824  69.955  1.00  0.00    -0.087 A  
ENDROOT
BRANCH  10  13
HETATM   13  O   UNL     1      -9.824   4.227  67.353  1.00  0.00    -0.185 OA 
HETATM   14  C   UNL     1      -9.948   4.918  66.118  1.00  0.00    -0.231 C  
HETATM   15  F   UNL     1      -9.705   6.243  66.195  1.00  0.00    -0.187 F  
HETATM   16  F   UNL     1      -9.104   4.372  65.217  1.00  0.00    -0.124 F  
HETATM   17  F   UNL     1     -11.211   4.754  65.663  1.00  0.00    -0.322 F  
ENDBRANCH  10  13
TORSDOF 1
ENDMDL
MODEL      162
REMARK 921   NORMALIZED FREE ENERGY PREDICTED BY IDOCK:   -2.76 KCAL/MOL
REMARK 922        TOTAL FREE ENERGY PREDICTED BY IDOCK:   -3.31 KCAL/MOL
REMARK 923 INTER-LIGAND FREE ENERGY PREDICTED BY IDOCK:   -2.91 KCAL/MOL
REMARK 924 INTRA-LIGAND FREE ENERGY PREDICTED BY IDOCK:   -0.40 KCAL/MOL
REMARK 927      BINDING AFFINITY PREDICTED BY RF-SCORE:    0.00 PKD
ROOT
HETATM    1  N   UNL     1      -7.693   6.233  63.389  1.00  0.00    -0.094 NA 
HETATM    2  C   UNL     1      -8.137   6.126  64.651  1.00  0.00    -0.126 A  
HETATM    3  H1  UNL     1      -7.388   7.116  62.979  1.00  0.00     0.000 HD 
HETATM    4  H2  UNL     1      -7.658   5.393  62.813  1.00  0.00     0.000 HD 
HETATM    5  N   UNL     1      -8.528   4.994  65.177  1.00  0.00    -0.137 NA 
HETATM    6  C   UNL     1      -8.886   5.184  66.500  1.00  0.00    -0.117 A  
HETATM    7  C   UNL     1      -8.792   6.496  66.961  1.00  0.00    -0.116 A  
HETATM    8  C   UNL     1      -9.121   6.844  68.281  1.00  0.00    -0.125 A  
HETATM    9  S   UNL     1      -8.229   7.495  65.678  1.00  0.00    -0.137 SA 
HETATM   10  C   UNL     1      -9.563   5.841  69.155  1.00  0.00    -0.135 A  
HETATM   11  C   UNL     1      -9.623   4.519  68.727  1.00  0.00    -0.227 A  
HETATM   12  C   UNL     1      -9.307   4.185  67.401  1.00  0.00    -0.204 A  
ENDROOT
BRANCH  10  13
HETATM   13  O   UNL     1      -9.826   6.281  70.418  1.00  0.00    -0.173 OA 
HETATM   14  C   UNL     1     -11.167   6.533  70.815  1.00  0.00    -0.321 C  
HETATM   15  F   UNL     1     -12.074   6.407  69.823  1.00  0.00    -0.445 F  
HETATM   16  F   UNL     1     -11.498   5.693  71.817  1.00  0.00    -0.313 F  
HETATM   17  F   UNL     1     -11.241   7.799  71.285  1.00  0.00    -0.243 F  
ENDBRANCH  10  13
TORSDOF 1
ENDMDL
MODEL      163
REMARK 921   NORMALIZED FREE ENERGY PREDICTED BY IDOCK:   -2.76 KCAL/MOL
REMARK 922        TOTAL FREE ENERGY PREDICTED BY IDOCK:   -3.31 KCAL/MOL
REMARK 923 INTER-LIGAND FREE ENERGY PREDICTED BY IDOCK:   -2.91 KCAL/MOL
REMARK 924 INTRA-LIGAND FREE ENERGY PREDICTED BY IDOCK:   -0.40 KCAL/MOL
REMARK 927      BINDING AFFINITY PREDICTED BY RF-SCORE:    0.00 PKD
ROOT
HETATM    1  N   UNL     1     -12.174   8.778  72.424  1.00  0.00    -0.358 NA 
HETATM    2  C   UNL     1     -11.565   7.662  71.994  1.00  0.00    -0.291 A  
HETATM    3  H1  UNL     1     -12.426   9.549  71.805  1.00  0.00     0.000 HD 
HETATM    4  H2  UNL     1     -12.395   8.861  73.416  1.00  0.00     0.000 HD 
HETATM    5  N   UNL     1     -11.242   6.674  72.789  1.00  0.00    -0.252 NA 
HETATM    6  C   UNL     1     -10.673   5.645  72.058  1.00  0.00    -0.235 A  
HETATM    7  C   UNL     1     -10.537   5.887  70.692  1.00  0.00    -0.268 A  
HETATM    8  C   UNL     1      -9.978   4.938  69.822  1.00  0.00    -0.314 A  
HETATM    9  S   UNL     1     -11.157   7.454  70.343  1.00  0.00    -0.257 SA 
HETATM   10  C   UNL     1      -9.538   3.715  70.348  1.00  0.00    -0.184 A  
HETATM   11  C   UNL     1      -9.702   3.437  71.701  1.00  0.00    -0.234 A  
HETATM   12  C   UNL     1     -10.248   4.400  72.564  1.00  0.00    -0.242 A  
ENDROOT
BRANCH  10  13
HETATM   13  O   UNL     1      -9.040   2.856  69.415  1.00  0.00    -0.105 OA 
HETATM   14  C   UNL     1      -7.638   2.788  69.191  1.00  0.00    -0.047 C  
HETATM   15  F   UNL     1      -6.920   3.698  69.880  1.00  0.00    -0.038 F  
HETATM   16  F   UNL     1      -7.197   1.553  69.509  1.00  0.00    -0.035 F  
HETATM   17  F   UNL     1      -7.408   2.990  67.873  1.00  0.00    -0.052 F  
ENDBRANCH  10  13
TORSDOF 1
ENDMDL
MODEL      164
REMARK 921   NORMALIZED FREE ENERGY PREDICTED BY IDOCK:   -2.75 KCAL/MOL
REMARK 922        TOTAL FREE ENERGY PREDICTED BY IDOCK:   -3.31 KCAL/MOL
REMARK 923 INTER-LIGAND FREE ENERGY PREDICTED BY IDOCK:   -2.93 KCAL/MOL
REMARK 924 INTRA-LIGAND FREE ENERGY PREDICTED BY IDOCK:   -0.38 KCAL/MOL
REMARK 927      BINDING AFFINITY PREDICTED BY RF-SCORE:    0.00 PKD
ROOT
HETATM    1  N   UNL     1     -13.260   8.937  71.002  1.00  0.00    -0.528 NA 
HETATM    2  C   UNL     1     -12.328   7.993  71.206  1.00  0.00    -0.271 A  
HETATM    3  H1  UNL     1     -13.460   9.677  71.674  1.00  0.00     0.000 HD 
HETATM    4  H2  UNL     1     -13.792   8.915  70.132  1.00  0.00     0.000 HD 
HETATM    5  N   UNL     1     -12.072   7.044  70.343  1.00  0.00    -0.221 NA 
HETATM    6  C   UNL     1     -11.036   6.251  70.805  1.00  0.00    -0.297 A  
HETATM    7  C   UNL     1     -10.533   6.596  72.058  1.00  0.00    -0.204 A  
HETATM    8  C   UNL     1      -9.482   5.884  72.657  1.00  0.00    -0.152 A  
HETATM    9  S   UNL     1     -11.397   7.963  72.645  1.00  0.00    -0.390 SA 
HETATM   10  C   UNL     1      -8.930   4.790  71.975  1.00  0.00    -0.127 A  
HETATM   11  C   UNL     1      -9.389   4.455  70.706  1.00  0.00    -0.224 A  
HETATM   12  C   UNL     1     -10.452   5.164  70.123  1.00  0.00    -0.305 A  
ENDROOT
BRANCH  10  13
HETATM   13  O   UNL     1      -7.898   4.189  72.631  1.00  0.00    -0.077 OA 
HETATM   14  C   UNL     1      -6.579   4.701  72.497  1.00  0.00    -0.046 C  
HETATM   15  F   UNL     1      -6.462   5.711  71.610  1.00  0.00    -0.041 F  
HETATM   16  F   UNL     1      -6.144   5.126  73.701  1.00  0.00    -0.038 F  
HETATM   17  F   UNL     1      -5.772   3.696  72.088  1.00  0.00    -0.006 F  
ENDBRANCH  10  13
TORSDOF 1
ENDMDL
MODEL      165
REMARK 921   NORMALIZED FREE ENERGY PREDICTED BY IDOCK:   -2.75 KCAL/MOL
REMARK 922        TOTAL FREE ENERGY PREDICTED BY IDOCK:   -3.31 KCAL/MOL
REMARK 923 INTER-LIGAND FREE ENERGY PREDICTED BY IDOCK:   -3.01 KCAL/MOL
REMARK 924 INTRA-LIGAND FREE ENERGY PREDICTED BY IDOCK:   -0.29 KCAL/MOL
REMARK 927      BINDING AFFINITY PREDICTED BY RF-SCORE:    0.00 PKD
ROOT
HETATM    1  N   UNL     1      -5.361   9.146  71.595  1.00  0.00    -0.048 NA 
HETATM    2  C   UNL     1      -6.466   8.541  72.059  1.00  0.00    -0.073 A  
HETATM    3  H1  UNL     1      -4.423   8.767  71.722  1.00  0.00     0.000 HD 
HETATM    4  H2  UNL     1      -5.464  10.028  71.093  1.00  0.00     0.000 HD 
HETATM    5  N   UNL     1      -7.669   9.029  71.897  1.00  0.00    -0.343 NA 
HETATM    6  C   UNL     1      -8.606   8.166  72.438  1.00  0.00    -0.185 A  
HETATM    7  C   UNL     1      -8.086   7.026  73.048  1.00  0.00    -0.105 A  
HETATM    8  C   UNL     1      -8.914   6.059  73.642  1.00  0.00    -0.127 A  
HETATM    9  S   UNL     1      -6.371   7.060  72.917  1.00  0.00    -0.057 SA 
HETATM   10  C   UNL     1     -10.302   6.254  73.623  1.00  0.00    -0.273 A  
HETATM   11  C   UNL     1     -10.843   7.363  72.983  1.00  0.00    -0.423 A  
HETATM   12  C   UNL     1     -10.006   8.332  72.407  1.00  0.00    -0.379 A  
ENDROOT
BRANCH  10  13
HETATM   13  O   UNL     1     -11.012   5.243  74.199  1.00  0.00    -0.251 OA 
HETATM   14  C   UNL     1     -11.158   4.003  73.519  1.00  0.00    -0.259 C  
HETATM   15  F   UNL     1     -10.644   3.989  72.272  1.00  0.00    -0.240 F  
HETATM   16  F   UNL     1     -10.570   3.029  74.244  1.00  0.00    -0.193 F  
HETATM   17  F   UNL     1     -12.477   3.721  73.427  1.00  0.00    -0.056 F  
ENDBRANCH  10  13
TORSDOF 1
ENDMDL
MODEL      166
REMARK 921   NORMALIZED FREE ENERGY PREDICTED BY IDOCK:   -2.75 KCAL/MOL
REMARK 922        TOTAL FREE ENERGY PREDICTED BY IDOCK:   -3.30 KCAL/MOL
REMARK 923 INTER-LIGAND FREE ENERGY PREDICTED BY IDOCK:   -3.01 KCAL/MOL
REMARK 924 INTRA-LIGAND FREE ENERGY PREDICTED BY IDOCK:   -0.29 KCAL/MOL
REMARK 927      BINDING AFFINITY PREDICTED BY RF-SCORE:    0.00 PKD
ROOT
HETATM    1  N   UNL     1      -6.093  10.761  64.721  1.00  0.00    -0.376 NA 
HETATM    2  C   UNL     1      -7.008   9.928  65.241  1.00  0.00    -0.122 A  
HETATM    3  H1  UNL     1      -6.041  11.751  64.959  1.00  0.00     0.000 HD 
HETATM    4  H2  UNL     1      -5.416  10.386  64.056  1.00  0.00     0.000 HD 
HETATM    5  N   UNL     1      -7.074   8.658  64.935  1.00  0.00    -0.079 NA 
HETATM    6  C   UNL     1      -8.084   8.048  65.660  1.00  0.00    -0.121 A  
HETATM    7  C   UNL     1      -8.809   8.892  66.499  1.00  0.00    -0.136 A  
HETATM    8  C   UNL     1      -9.864   8.417  67.296  1.00  0.00    -0.264 A  
HETATM    9  S   UNL     1      -8.179  10.487  66.361  1.00  0.00    -0.146 SA 
HETATM   10  C   UNL     1     -10.197   7.057  67.237  1.00  0.00    -0.234 A  
HETATM   11  C   UNL     1      -9.458   6.191  66.438  1.00  0.00    -0.172 A  
HETATM   12  C   UNL     1      -8.417   6.679  65.633  1.00  0.00    -0.147 A  
ENDROOT
BRANCH  10  13
HETATM   13  O   UNL     1     -11.213   6.697  68.071  1.00  0.00    -0.239 OA 
HETATM   14  C   UNL     1     -10.982   6.604  69.470  1.00  0.00    -0.313 C  
HETATM   15  F   UNL     1      -9.696   6.786  69.835  1.00  0.00    -0.157 F  
HETATM   16  F   UNL     1     -11.748   7.512  70.108  1.00  0.00    -0.235 F  
HETATM   17  F   UNL     1     -11.359   5.372  69.882  1.00  0.00    -0.271 F  
ENDBRANCH  10  13
TORSDOF 1
ENDMDL
MODEL      167
REMARK 921   NORMALIZED FREE ENERGY PREDICTED BY IDOCK:   -2.73 KCAL/MOL
REMARK 922        TOTAL FREE ENERGY PREDICTED BY IDOCK:   -3.29 KCAL/MOL
REMARK 923 INTER-LIGAND FREE ENERGY PREDICTED BY IDOCK:   -2.90 KCAL/MOL
REMARK 924 INTRA-LIGAND FREE ENERGY PREDICTED BY IDOCK:   -0.39 KCAL/MOL
REMARK 927      BINDING AFFINITY PREDICTED BY RF-SCORE:    0.00 PKD
ROOT
HETATM    1  N   UNL     1     -12.580  10.138  69.864  1.00  0.00    -0.519 NA 
HETATM    2  C   UNL     1     -12.020   9.243  70.692  1.00  0.00    -0.152 A  
HETATM    3  H1  UNL     1     -12.088  10.963  69.520  1.00  0.00     0.000 HD 
HETATM    4  H2  UNL     1     -13.544   9.988  69.564  1.00  0.00     0.000 HD 
HETATM    5  N   UNL     1     -12.652   8.186  71.134  1.00  0.00    -0.214 NA 
HETATM    6  C   UNL     1     -11.809   7.428  71.928  1.00  0.00    -0.297 A  
HETATM    7  C   UNL     1     -10.530   7.951  72.110  1.00  0.00    -0.249 A  
HETATM    8  C   UNL     1      -9.564   7.295  72.889  1.00  0.00    -0.206 A  
HETATM    9  S   UNL     1     -10.408   9.432  71.242  1.00  0.00    -0.222 SA 
HETATM   10  C   UNL     1      -9.902   6.082  73.506  1.00  0.00    -0.171 A  
HETATM   11  C   UNL     1     -11.159   5.522  73.304  1.00  0.00    -0.322 A  
HETATM   12  C   UNL     1     -12.123   6.195  72.535  1.00  0.00    -0.108 A  
ENDROOT
BRANCH  10  13
HETATM   13  O   UNL     1      -8.885   5.516  74.214  1.00  0.00    -0.118 OA 
HETATM   14  C   UNL     1      -8.003   4.601  73.577  1.00  0.00    -0.099 C  
HETATM   15  F   UNL     1      -8.343   4.292  72.308  1.00  0.00    -0.095 F  
HETATM   16  F   UNL     1      -6.755   5.112  73.581  1.00  0.00    -0.067 F  
HETATM   17  F   UNL     1      -7.991   3.454  74.293  1.00  0.00    -0.065 F  
ENDBRANCH  10  13
TORSDOF 1
ENDMDL
MODEL      168
REMARK 921   NORMALIZED FREE ENERGY PREDICTED BY IDOCK:   -2.67 KCAL/MOL
REMARK 922        TOTAL FREE ENERGY PREDICTED BY IDOCK:   -3.22 KCAL/MOL
REMARK 923 INTER-LIGAND FREE ENERGY PREDICTED BY IDOCK:   -2.82 KCAL/MOL
REMARK 924 INTRA-LIGAND FREE ENERGY PREDICTED BY IDOCK:   -0.40 KCAL/MOL
REMARK 927      BINDING AFFINITY PREDICTED BY RF-SCORE:    0.00 PKD
ROOT
HETATM    1  N   UNL     1     -11.331   6.778  71.159  1.00  0.00    -0.280 NA 
HETATM    2  C   UNL     1     -10.829   7.373  70.066  1.00  0.00    -0.252 A  
HETATM    3  H1  UNL     1     -11.715   5.833  71.152  1.00  0.00     0.000 HD 
HETATM    4  H2  UNL     1     -11.330   7.295  72.038  1.00  0.00     0.000 HD 
HETATM    5  N   UNL     1     -10.337   8.585  70.074  1.00  0.00    -0.205 NA 
HETATM    6  C   UNL     1      -9.853   8.909  68.819  1.00  0.00    -0.173 A  
HETATM    7  C   UNL     1     -10.020   7.928  67.843  1.00  0.00    -0.178 A  
HETATM    8  C   UNL     1      -9.581   8.112  66.523  1.00  0.00    -0.303 A  
HETATM    9  S   UNL     1     -10.802   6.569  68.553  1.00  0.00    -0.283 SA 
HETATM   10  C   UNL     1      -8.962   9.322  66.178  1.00  0.00    -0.165 A  
HETATM   11  C   UNL     1      -8.748  10.297  67.146  1.00  0.00    -0.131 A  
HETATM   12  C   UNL     1      -9.207  10.109  68.460  1.00  0.00    -0.144 A  
ENDROOT
BRANCH  10  13
HETATM   13  O   UNL     1      -8.548   9.385  64.881  1.00  0.00    -0.155 OA 
HETATM   14  C   UNL     1      -9.389   9.970  63.897  1.00  0.00    -0.263 C  
HETATM   15  F   UNL     1     -10.610  10.323  64.347  1.00  0.00    -0.346 F  
HETATM   16  F   UNL     1      -8.781  11.060  63.385  1.00  0.00    -0.175 F  
HETATM   17  F   UNL     1      -9.558   9.075  62.897  1.00  0.00     0.229 F  
ENDBRANCH  10  13
TORSDOF 1
ENDMDL
MODEL      169
REMARK 921   NORMALIZED FREE ENERGY PREDICTED BY IDOCK:   -2.64 KCAL/MOL
REMARK 922        TOTAL FREE ENERGY PREDICTED BY IDOCK:   -3.19 KCAL/MOL
REMARK 923 INTER-LIGAND FREE ENERGY PREDICTED BY IDOCK:   -2.81 KCAL/MOL
REMARK 924 INTRA-LIGAND FREE ENERGY PREDICTED BY IDOCK:   -0.38 KCAL/MOL
REMARK 927      BINDING AFFINITY PREDICTED BY RF-SCORE:    0.00 PKD
ROOT
HETATM    1  N   UNL     1     -12.497   7.910  70.765  1.00  0.00    -0.511 NA 
HETATM    2  C   UNL     1     -11.683   6.859  70.583  1.00  0.00    -0.367 A  
HETATM    3  H1  UNL     1     -12.772   8.249  71.686  1.00  0.00     0.000 HD 
HETATM    4  H2  UNL     1     -12.859   8.392  69.942  1.00  0.00     0.000 HD 
HETATM    5  N   UNL     1     -11.331   6.423  69.401  1.00  0.00    -0.402 NA 
HETATM    6  C   UNL     1     -10.452   5.362  69.529  1.00  0.00    -0.273 A  
HETATM    7  C   UNL     1     -10.170   4.976  70.838  1.00  0.00    -0.217 A  
HETATM    8  C   UNL     1      -9.296   3.915  71.126  1.00  0.00    -0.216 A  
HETATM    9  S   UNL     1     -11.039   5.996  71.917  1.00  0.00    -0.279 SA 
HETATM   10  C   UNL     1      -8.699   3.223  70.063  1.00  0.00    -0.073 A  
HETATM   11  C   UNL     1      -8.934   3.619  68.751  1.00  0.00    -0.181 A  
HETATM   12  C   UNL     1      -9.822   4.670  68.474  1.00  0.00    -0.181 A  
ENDROOT
BRANCH  10  13
HETATM   13  O   UNL     1      -7.847   2.233  70.454  1.00  0.00    -0.042 OA 
HETATM   14  C   UNL     1      -6.487   2.537  70.731  1.00  0.00    -0.024 C  
HETATM   15  F   UNL     1      -6.137   3.813  70.464  1.00  0.00    -0.016 F  
HETATM   16  F   UNL     1      -6.229   2.277  72.029  1.00  0.00    -0.012 F  
HETATM   17  F   UNL     1      -5.708   1.728  69.976  1.00  0.00    -0.014 F  
ENDBRANCH  10  13
TORSDOF 1
ENDMDL
MODEL      170
REMARK 921   NORMALIZED FREE ENERGY PREDICTED BY IDOCK:   -2.63 KCAL/MOL
REMARK 922        TOTAL FREE ENERGY PREDICTED BY IDOCK:   -3.18 KCAL/MOL
REMARK 923 INTER-LIGAND FREE ENERGY PREDICTED BY IDOCK:   -2.81 KCAL/MOL
REMARK 924 INTRA-LIGAND FREE ENERGY PREDICTED BY IDOCK:   -0.37 KCAL/MOL
REMARK 927      BINDING AFFINITY PREDICTED BY RF-SCORE:    0.00 PKD
ROOT
HETATM    1  N   UNL     1      -6.333  12.948  69.698  1.00  0.00    -0.225 NA 
HETATM    2  C   UNL     1      -6.781  11.686  69.781  1.00  0.00    -0.012 A  
HETATM    3  H1  UNL     1      -6.629  13.598  68.970  1.00  0.00     0.000 HD 
HETATM    4  H2  UNL     1      -5.664  13.274  70.396  1.00  0.00     0.000 HD 
HETATM    5  N   UNL     1      -6.401  10.853  70.716  1.00  0.00    -0.338 NA 
HETATM    6  C   UNL     1      -7.064   9.646  70.573  1.00  0.00    -0.132 A  
HETATM    7  C   UNL     1      -7.933   9.568  69.486  1.00  0.00    -0.110 A  
HETATM    8  C   UNL     1      -8.675   8.408  69.212  1.00  0.00    -0.138 A  
HETATM    9  S   UNL     1      -7.902  11.067  68.642  1.00  0.00    -0.143 SA 
HETATM   10  C   UNL     1      -8.529   7.297  70.054  1.00  0.00    -0.139 A  
HETATM   11  C   UNL     1      -7.700   7.369  71.168  1.00  0.00    -0.090 A  
HETATM   12  C   UNL     1      -6.950   8.528  71.424  1.00  0.00    -0.079 A  
ENDROOT
BRANCH  10  13
HETATM   13  O   UNL     1      -9.316   6.236  69.717  1.00  0.00    -0.144 OA 
HETATM   14  C   UNL     1     -10.666   6.187  70.157  1.00  0.00    -0.302 C  
HETATM   15  F   UNL     1     -11.016   7.189  70.991  1.00  0.00    -0.248 F  
HETATM   16  F   UNL     1     -11.484   6.207  69.084  1.00  0.00    -0.455 F  
HETATM   17  F   UNL     1     -10.858   5.019  70.811  1.00  0.00    -0.253 F  
ENDBRANCH  10  13
TORSDOF 1
ENDMDL
MODEL      171
REMARK 921   NORMALIZED FREE ENERGY PREDICTED BY IDOCK:   -2.60 KCAL/MOL
REMARK 922        TOTAL FREE ENERGY PREDICTED BY IDOCK:   -3.14 KCAL/MOL
REMARK 923 INTER-LIGAND FREE ENERGY PREDICTED BY IDOCK:   -2.74 KCAL/MOL
REMARK 924 INTRA-LIGAND FREE ENERGY PREDICTED BY IDOCK:   -0.40 KCAL/MOL
REMARK 927      BINDING AFFINITY PREDICTED BY RF-SCORE:    0.00 PKD
ROOT
HETATM    1  N   UNL     1      -7.351  10.447  66.844  1.00  0.00    -0.103 NA 
HETATM    2  C   UNL     1      -7.821   9.620  67.791  1.00  0.00    -0.094 A  
HETATM    3  H1  UNL     1      -6.864  11.317  67.056  1.00  0.00     0.000 HD 
HETATM    4  H2  UNL     1      -7.487  10.193  65.865  1.00  0.00     0.000 HD 
HETATM    5  N   UNL     1      -8.446   8.503  67.518  1.00  0.00    -0.127 NA 
HETATM    6  C   UNL     1      -8.769   7.843  68.691  1.00  0.00    -0.128 A  
HETATM    7  C   UNL     1      -8.407   8.500  69.865  1.00  0.00    -0.123 A  
HETATM    8  C   UNL     1      -8.669   7.954  71.132  1.00  0.00    -0.146 A  
HETATM    9  S   UNL     1      -7.634   9.982  69.456  1.00  0.00    -0.149 SA 
HETATM   10  C   UNL     1      -9.320   6.716  71.213  1.00  0.00    -0.158 A  
HETATM   11  C   UNL     1      -9.652   6.024  70.054  1.00  0.00    -0.194 A  
HETATM   12  C   UNL     1      -9.400   6.587  68.792  1.00  0.00    -0.130 A  
ENDROOT
BRANCH  10  13
HETATM   13  O   UNL     1      -9.499   6.264  72.487  1.00  0.00    -0.145 OA 
HETATM   14  C   UNL     1     -10.741   6.473  73.145  1.00  0.00    -0.269 C  
HETATM   15  F   UNL     1     -11.619   7.225  72.450  1.00  0.00    -0.275 F  
HETATM   16  F   UNL     1     -11.307   5.279  73.415  1.00  0.00    -0.327 F  
HETATM   17  F   UNL     1     -10.499   7.099  74.320  1.00  0.00    -0.374 F  
ENDBRANCH  10  13
TORSDOF 1
ENDMDL
MODEL      172
REMARK 921   NORMALIZED FREE ENERGY PREDICTED BY IDOCK:   -2.50 KCAL/MOL
REMARK 922        TOTAL FREE ENERGY PREDICTED BY IDOCK:   -3.04 KCAL/MOL
REMARK 923 INTER-LIGAND FREE ENERGY PREDICTED BY IDOCK:   -3.15 KCAL/MOL
REMARK 924 INTRA-LIGAND FREE ENERGY PREDICTED BY IDOCK:    0.11 KCAL/MOL
REMARK 927      BINDING AFFINITY PREDICTED BY RF-SCORE:    0.00 PKD
ROOT
HETATM    1  N   UNL     1      -8.427  10.146  65.804  1.00  0.00    -0.141 NA 
HETATM    2  C   UNL     1      -9.039   9.681  66.904  1.00  0.00    -0.138 A  
HETATM    3  H1  UNL     1      -7.808   9.577  65.228  1.00  0.00     0.000 HD 
HETATM    4  H2  UNL     1      -8.590  11.115  65.530  1.00  0.00     0.000 HD 
HETATM    5  N   UNL     1      -9.834  10.412  67.642  1.00  0.00    -0.167 NA 
HETATM    6  C   UNL     1     -10.351   9.651  68.677  1.00  0.00    -0.203 A  
HETATM    7  C   UNL     1      -9.904   8.333  68.730  1.00  0.00    -0.173 A  
HETATM    8  C   UNL     1     -10.340   7.441  69.723  1.00  0.00    -0.226 A  
HETATM    9  S   UNL     1      -8.811   8.065  67.428  1.00  0.00    -0.131 SA 
HETATM   10  C   UNL     1     -11.247   7.896  70.690  1.00  0.00    -0.263 A  
HETATM   11  C   UNL     1     -11.738   9.196  70.630  1.00  0.00    -0.256 A  
HETATM   12  C   UNL     1     -11.282  10.084  69.643  1.00  0.00    -0.285 A  
ENDROOT
BRANCH  10  13
HETATM   13  O   UNL     1     -11.627   6.943  71.587  1.00  0.00    -0.259 OA 
HETATM   14  C   UNL     1     -10.645   6.247  72.341  1.00  0.00    -0.211 C  
HETATM   15  F   UNL     1      -9.372   6.539  72.001  1.00  0.00    -0.148 F  
HETATM   16  F   UNL     1     -10.817   6.517  73.652  1.00  0.00    -0.275 F  
HETATM   17  F   UNL     1     -10.829   4.920  72.158  1.00  0.00    -0.268 F  
ENDBRANCH  10  13
TORSDOF 1
ENDMDL
MODEL      173
REMARK 921   NORMALIZED FREE ENERGY PREDICTED BY IDOCK:   -2.48 KCAL/MOL
REMARK 922        TOTAL FREE ENERGY PREDICTED BY IDOCK:   -3.02 KCAL/MOL
REMARK 923 INTER-LIGAND FREE ENERGY PREDICTED BY IDOCK:   -3.14 KCAL/MOL
REMARK 924 INTRA-LIGAND FREE ENERGY PREDICTED BY IDOCK:    0.12 KCAL/MOL
REMARK 927      BINDING AFFINITY PREDICTED BY RF-SCORE:    0.00 PKD
ROOT
HETATM    1  N   UNL     1      -9.578  18.477  68.144  1.00  0.00    -0.312 NA 
HETATM    2  C   UNL     1      -9.886  17.172  68.191  1.00  0.00    -0.281 A  
HETATM    3  H1  UNL     1      -8.666  18.824  67.849  1.00  0.00     0.000 HD 
HETATM    4  H2  UNL     1     -10.290  19.155  68.415  1.00  0.00     0.000 HD 
HETATM    5  N   UNL     1     -11.056  16.727  68.569  1.00  0.00    -0.317 NA 
HETATM    6  C   UNL     1     -11.093  15.347  68.470  1.00  0.00    -0.295 A  
HETATM    7  C   UNL     1      -9.910  14.747  68.041  1.00  0.00    -0.218 A  
HETATM    8  C   UNL     1      -9.796  13.356  67.893  1.00  0.00    -0.237 A  
HETATM    9  S   UNL     1      -8.740  15.975  67.753  1.00  0.00    -0.168 SA 
HETATM   10  C   UNL     1     -10.902  12.550  68.192  1.00  0.00    -0.222 A  
HETATM   11  C   UNL     1     -12.104  13.131  68.581  1.00  0.00    -0.222 A  
HETATM   12  C   UNL     1     -12.203  14.522  68.742  1.00  0.00    -0.173 A  
ENDROOT
BRANCH  10  13
HETATM   13  O   UNL     1     -10.693  11.219  67.985  1.00  0.00    -0.183 OA 
HETATM   14  C   UNL     1      -9.601  10.567  68.619  1.00  0.00    -0.171 C  
HETATM   15  F   UNL     1      -8.784  11.391  69.306  1.00  0.00    -0.051 F  
HETATM   16  F   UNL     1     -10.074   9.623  69.458  1.00  0.00    -0.171 F  
HETATM   17  F   UNL     1      -8.863   9.952  67.666  1.00  0.00    -0.124 F  
ENDBRANCH  10  13
TORSDOF 1
ENDMDL
MODEL      174
REMARK 921   NORMALIZED FREE ENERGY PREDICTED BY IDOCK:   -2.38 KCAL/MOL
REMARK 922        TOTAL FREE ENERGY PREDICTED BY IDOCK:   -2.92 KCAL/MOL
REMARK 923 INTER-LIGAND FREE ENERGY PREDICTED BY IDOCK:   -2.64 KCAL/MOL
REMARK 924 INTRA-LIGAND FREE ENERGY PREDICTED BY IDOCK:   -0.28 KCAL/MOL
REMARK 927      BINDING AFFINITY PREDICTED BY RF-SCORE:    0.00 PKD
ROOT
HETATM    1  N   UNL     1      -5.871  13.927  67.459  1.00  0.00    -0.353 NA 
HETATM    2  C   UNL     1      -6.682  12.863  67.349  1.00  0.00    -0.124 A  
HETATM    3  H1  UNL     1      -6.103  14.750  68.015  1.00  0.00     0.000 HD 
HETATM    4  H2  UNL     1      -4.980  13.913  66.962  1.00  0.00     0.000 HD 
HETATM    5  N   UNL     1      -6.383  11.808  66.635  1.00  0.00    -0.078 NA 
HETATM    6  C   UNL     1      -7.384  10.859  66.751  1.00  0.00    -0.134 A  
HETATM    7  C   UNL     1      -8.470  11.231  67.542  1.00  0.00    -0.131 A  
HETATM    8  C   UNL     1      -9.562  10.374  67.752  1.00  0.00    -0.169 A  
HETATM    9  S   UNL     1      -8.196  12.816  68.151  1.00  0.00    -0.170 SA 
HETATM   10  C   UNL     1      -9.559   9.112  67.141  1.00  0.00    -0.164 A  
HETATM   11  C   UNL     1      -8.467   8.706  66.383  1.00  0.00    -0.117 A  
HETATM   12  C   UNL     1      -7.388   9.577  66.165  1.00  0.00    -0.093 A  
ENDROOT
BRANCH  10  13
HETATM   13  O   UNL     1     -10.650   8.350  67.435  1.00  0.00    -0.281 OA 
HETATM   14  C   UNL     1     -10.524   7.242  68.316  1.00  0.00    -0.199 C  
HETATM   15  F   UNL     1      -9.259   6.983  68.707  1.00  0.00    -0.134 F  
HETATM   16  F   UNL     1     -11.283   7.458  69.411  1.00  0.00    -0.200 F  
HETATM   17  F   UNL     1     -10.997   6.142  67.687  1.00  0.00    -0.295 F  
ENDBRANCH  10  13
TORSDOF 1
ENDMDL
MODEL      175
REMARK 921   NORMALIZED FREE ENERGY PREDICTED BY IDOCK:   -2.37 KCAL/MOL
REMARK 922        TOTAL FREE ENERGY PREDICTED BY IDOCK:   -2.90 KCAL/MOL
REMARK 923 INTER-LIGAND FREE ENERGY PREDICTED BY IDOCK:   -2.74 KCAL/MOL
REMARK 924 INTRA-LIGAND FREE ENERGY PREDICTED BY IDOCK:   -0.17 KCAL/MOL
REMARK 927      BINDING AFFINITY PREDICTED BY RF-SCORE:    0.00 PKD
ROOT
HETATM    1  N   UNL     1      -7.693   2.288  69.377  1.00  0.00    -0.043 NA 
HETATM    2  C   UNL     1      -8.237   3.489  69.127  1.00  0.00    -0.060 A  
HETATM    3  H1  UNL     1      -7.032   2.122  70.135  1.00  0.00     0.000 HD 
HETATM    4  H2  UNL     1      -7.954   1.502  68.780  1.00  0.00     0.000 HD 
HETATM    5  N   UNL     1      -9.085   3.701  68.155  1.00  0.00    -0.135 NA 
HETATM    6  C   UNL     1      -9.507   5.019  68.173  1.00  0.00    -0.132 A  
HETATM    7  C   UNL     1      -8.933   5.816  69.162  1.00  0.00    -0.118 A  
HETATM    8  C   UNL     1      -9.262   7.173  69.305  1.00  0.00    -0.140 A  
HETATM    9  S   UNL     1      -7.843   4.856  70.084  1.00  0.00    -0.066 SA 
HETATM   10  C   UNL     1     -10.191   7.741  68.422  1.00  0.00    -0.200 A  
HETATM   11  C   UNL     1     -10.807   6.954  67.455  1.00  0.00    -0.363 A  
HETATM   12  C   UNL     1     -10.458   5.601  67.310  1.00  0.00    -0.322 A  
ENDROOT
BRANCH  10  13
HETATM   13  O   UNL     1     -10.461   9.054  68.667  1.00  0.00    -0.213 OA 
HETATM   14  C   UNL     1     -10.364  10.006  67.616  1.00  0.00    -0.224 C  
HETATM   15  F   UNL     1      -9.890   9.506  66.456  1.00  0.00    -0.226 F  
HETATM   16  F   UNL     1     -11.580  10.547  67.394  1.00  0.00    -0.343 F  
HETATM   17  F   UNL     1      -9.530  10.994  68.013  1.00  0.00    -0.152 F  
ENDBRANCH  10  13
TORSDOF 1
ENDMDL
MODEL      176
REMARK 921   NORMALIZED FREE ENERGY PREDICTED BY IDOCK:   -2.27 KCAL/MOL
REMARK 922        TOTAL FREE ENERGY PREDICTED BY IDOCK:   -2.80 KCAL/MOL
REMARK 923 INTER-LIGAND FREE ENERGY PREDICTED BY IDOCK:   -2.43 KCAL/MOL
REMARK 924 INTRA-LIGAND FREE ENERGY PREDICTED BY IDOCK:   -0.37 KCAL/MOL
REMARK 927      BINDING AFFINITY PREDICTED BY RF-SCORE:    0.00 PKD
ROOT
HETATM    1  N   UNL     1     -11.412   6.693  71.112  1.00  0.00    -0.303 NA 
HETATM    2  C   UNL     1     -10.861   7.282  70.039  1.00  0.00    -0.253 A  
HETATM    3  H1  UNL     1     -11.630   5.698  71.151  1.00  0.00     0.000 HD 
HETATM    4  H2  UNL     1     -11.624   7.268  71.927  1.00  0.00     0.000 HD 
HETATM    5  N   UNL     1     -10.583   8.559  69.989  1.00  0.00    -0.225 NA 
HETATM    6  C   UNL     1      -9.982   8.866  68.781  1.00  0.00    -0.184 A  
HETATM    7  C   UNL     1      -9.841   7.799  67.896  1.00  0.00    -0.160 A  
HETATM    8  C   UNL     1      -9.250   7.956  66.632  1.00  0.00    -0.221 A  
HETATM    9  S   UNL     1     -10.482   6.381  68.631  1.00  0.00    -0.250 SA 
HETATM   10  C   UNL     1      -8.797   9.226  66.250  1.00  0.00    -0.146 A  
HETATM   11  C   UNL     1      -8.890  10.296  67.134  1.00  0.00    -0.141 A  
HETATM   12  C   UNL     1      -9.497  10.131  68.390  1.00  0.00    -0.147 A  
ENDROOT
BRANCH  10  13
HETATM   13  O   UNL     1      -8.214   9.262  65.019  1.00  0.00    -0.130 OA 
HETATM   14  C   UNL     1      -6.844   8.914  64.873  1.00  0.00    -0.073 C  
HETATM   15  F   UNL     1      -6.204   8.675  66.037  1.00  0.00    -0.049 F  
HETATM   16  F   UNL     1      -6.745   7.820  64.089  1.00  0.00    -0.054 F  
HETATM   17  F   UNL     1      -6.210   9.935  64.253  1.00  0.00    -0.094 F  
ENDBRANCH  10  13
TORSDOF 1
ENDMDL
MODEL      177
REMARK 921   NORMALIZED FREE ENERGY PREDICTED BY IDOCK:   -2.19 KCAL/MOL
REMARK 922        TOTAL FREE ENERGY PREDICTED BY IDOCK:   -2.71 KCAL/MOL
REMARK 923 INTER-LIGAND FREE ENERGY PREDICTED BY IDOCK:   -2.32 KCAL/MOL
REMARK 924 INTRA-LIGAND FREE ENERGY PREDICTED BY IDOCK:   -0.39 KCAL/MOL
REMARK 927      BINDING AFFINITY PREDICTED BY RF-SCORE:    0.00 PKD
ROOT
HETATM    1  N   UNL     1      -7.789  11.064  65.535  1.00  0.00    -0.365 NA 
HETATM    2  C   UNL     1      -8.117  10.405  66.657  1.00  0.00    -0.122 A  
HETATM    3  H1  UNL     1      -7.654  12.075  65.502  1.00  0.00     0.000 HD 
HETATM    4  H2  UNL     1      -7.667  10.530  64.675  1.00  0.00     0.000 HD 
HETATM    5  N   UNL     1      -8.290   9.109  66.699  1.00  0.00    -0.121 NA 
HETATM    6  C   UNL     1      -8.574   8.711  67.994  1.00  0.00    -0.137 A  
HETATM    7  C   UNL     1      -8.649   9.740  68.932  1.00  0.00    -0.134 A  
HETATM    8  C   UNL     1      -8.930   9.491  70.285  1.00  0.00    -0.288 A  
HETATM    9  S   UNL     1      -8.342  11.236  68.139  1.00  0.00    -0.150 SA 
HETATM   10  C   UNL     1      -9.147   8.169  70.699  1.00  0.00    -0.150 A  
HETATM   11  C   UNL     1      -9.035   7.125  69.788  1.00  0.00    -0.142 A  
HETATM   12  C   UNL     1      -8.770   7.386  68.434  1.00  0.00    -0.123 A  
ENDROOT
BRANCH  10  13
HETATM   13  O   UNL     1      -9.381   8.037  72.035  1.00  0.00    -0.149 OA 
HETATM   14  C   UNL     1      -8.291   7.874  72.932  1.00  0.00    -0.152 C  
HETATM   15  F   UNL     1      -7.089   7.755  72.332  1.00  0.00    -0.065 F  
HETATM   16  F   UNL     1      -8.253   8.923  73.780  1.00  0.00    -0.106 F  
HETATM   17  F   UNL     1      -8.503   6.753  73.659  1.00  0.00    -0.119 F  
ENDBRANCH  10  13
TORSDOF 1
ENDMDL
MODEL      178
REMARK 921   NORMALIZED FREE ENERGY PREDICTED BY IDOCK:   -2.15 KCAL/MOL
REMARK 922        TOTAL FREE ENERGY PREDICTED BY IDOCK:   -2.67 KCAL/MOL
REMARK 923 INTER-LIGAND FREE ENERGY PREDICTED BY IDOCK:   -2.26 KCAL/MOL
REMARK 924 INTRA-LIGAND FREE ENERGY PREDICTED BY IDOCK:   -0.40 KCAL/MOL
REMARK 927      BINDING AFFINITY PREDICTED BY RF-SCORE:    0.00 PKD
ROOT
HETATM    1  N   UNL     1     -10.632   8.713  70.416  1.00  0.00    -0.214 NA 
HETATM    2  C   UNL     1     -10.238   7.872  69.446  1.00  0.00    -0.206 A  
HETATM    3  H1  UNL     1     -10.925   8.399  71.340  1.00  0.00     0.000 HD 
HETATM    4  H2  UNL     1     -10.638   9.714  70.219  1.00  0.00     0.000 HD 
HETATM    5  N   UNL     1      -9.862   8.276  68.260  1.00  0.00    -0.166 NA 
HETATM    6  C   UNL     1      -9.469   7.192  67.494  1.00  0.00    -0.124 A  
HETATM    7  C   UNL     1      -9.588   5.949  68.112  1.00  0.00    -0.120 A  
HETATM    8  C   UNL     1      -9.228   4.759  67.460  1.00  0.00    -0.142 A  
HETATM    9  S   UNL     1     -10.205   6.178  69.702  1.00  0.00    -0.221 SA 
HETATM   10  C   UNL     1      -8.743   4.827  66.147  1.00  0.00    -0.116 A  
HETATM   11  C   UNL     1      -8.577   6.060  65.527  1.00  0.00    -0.145 A  
HETATM   12  C   UNL     1      -8.955   7.243  66.182  1.00  0.00    -0.179 A  
ENDROOT
BRANCH  10  13
HETATM   13  O   UNL     1      -8.395   3.619  65.620  1.00  0.00    -0.103 OA 
HETATM   14  C   UNL     1      -9.308   2.923  64.782  1.00  0.00    -0.147 C  
HETATM   15  F   UNL     1     -10.521   3.506  64.676  1.00  0.00    -0.172 F  
HETATM   16  F   UNL     1      -8.774   2.801  63.549  1.00  0.00    -0.085 F  
HETATM   17  F   UNL     1      -9.488   1.682  65.288  1.00  0.00    -0.125 F  
ENDBRANCH  10  13
TORSDOF 1
ENDMDL
MODEL      179
REMARK 921   NORMALIZED FREE ENERGY PREDICTED BY IDOCK:   -2.11 KCAL/MOL
REMARK 922        TOTAL FREE ENERGY PREDICTED BY IDOCK:   -2.62 KCAL/MOL
REMARK 923 INTER-LIGAND FREE ENERGY PREDICTED BY IDOCK:   -3.57 KCAL/MOL
REMARK 924 INTRA-LIGAND FREE ENERGY PREDICTED BY IDOCK:    0.95 KCAL/MOL
REMARK 927      BINDING AFFINITY PREDICTED BY RF-SCORE:    0.00 PKD
ROOT
HETATM    1  N   UNL     1      -9.281  20.521  66.981  1.00  0.00    -0.569 NA 
HETATM    2  C   UNL     1      -9.369  19.213  67.269  1.00  0.00    -0.301 A  
HETATM    3  H1  UNL     1      -8.554  20.912  66.383  1.00  0.00     0.000 HD 
HETATM    4  H2  UNL     1      -9.975  21.154  67.380  1.00  0.00     0.000 HD 
HETATM    5  N   UNL     1     -10.302  18.712  68.037  1.00  0.00    -0.379 NA 
HETATM    6  C   UNL     1     -10.166  17.336  68.112  1.00  0.00    -0.343 A  
HETATM    7  C   UNL     1      -9.084  16.805  67.412  1.00  0.00    -0.216 A  
HETATM    8  C   UNL     1      -8.816  15.427  67.395  1.00  0.00    -0.196 A  
HETATM    9  S   UNL     1      -8.238  18.089  66.641  1.00  0.00    -0.269 SA 
HETATM   10  C   UNL     1      -9.660  14.565  68.110  1.00  0.00    -0.212 A  
HETATM   11  C   UNL     1     -10.768  15.070  68.780  1.00  0.00    -0.241 A  
HETATM   12  C   UNL     1     -11.017  16.452  68.804  1.00  0.00    -0.344 A  
ENDROOT
BRANCH  10  13
HETATM   13  O   UNL     1      -9.329  13.247  68.002  1.00  0.00    -0.204 OA 
HETATM   14  C   UNL     1      -8.183  12.864  67.254  1.00  0.00    -0.176 C  
HETATM   15  F   UNL     1      -7.573  13.880  66.611  1.00  0.00     0.142 F  
HETATM   16  F   UNL     1      -7.292  12.273  68.078  1.00  0.00    -0.078 F  
HETATM   17  F   UNL     1      -8.564  11.956  66.327  1.00  0.00    -0.182 F  
ENDBRANCH  10  13
TORSDOF 1
ENDMDL
MODEL      180
REMARK 921   NORMALIZED FREE ENERGY PREDICTED BY IDOCK:   -2.09 KCAL/MOL
REMARK 922        TOTAL FREE ENERGY PREDICTED BY IDOCK:   -2.61 KCAL/MOL
REMARK 923 INTER-LIGAND FREE ENERGY PREDICTED BY IDOCK:   -2.23 KCAL/MOL
REMARK 924 INTRA-LIGAND FREE ENERGY PREDICTED BY IDOCK:   -0.38 KCAL/MOL
REMARK 927      BINDING AFFINITY PREDICTED BY RF-SCORE:    0.00 PKD
ROOT
HETATM    1  N   UNL     1      -5.466   2.557  67.269  1.00  0.00    -0.017 NA 
HETATM    2  C   UNL     1      -6.392   3.373  67.796  1.00  0.00    -0.036 A  
HETATM    3  H1  UNL     1      -4.542   2.424  67.680  1.00  0.00     0.000 HD 
HETATM    4  H2  UNL     1      -5.696   2.046  66.416  1.00  0.00     0.000 HD 
HETATM    5  N   UNL     1      -7.577   3.543  67.268  1.00  0.00    -0.077 NA 
HETATM    6  C   UNL     1      -8.326   4.401  68.054  1.00  0.00    -0.094 A  
HETATM    7  C   UNL     1      -7.672   4.908  69.176  1.00  0.00    -0.072 A  
HETATM    8  C   UNL     1      -8.304   5.790  70.067  1.00  0.00    -0.123 A  
HETATM    9  S   UNL     1      -6.076   4.267  69.224  1.00  0.00    -0.028 SA 
HETATM   10  C   UNL     1      -9.628   6.174  69.815  1.00  0.00    -0.150 A  
HETATM   11  C   UNL     1     -10.312   5.647  68.725  1.00  0.00    -0.288 A  
HETATM   12  C   UNL     1      -9.666   4.779  67.831  1.00  0.00    -0.200 A  
ENDROOT
BRANCH  10  13
HETATM   13  O   UNL     1     -10.154   7.007  70.756  1.00  0.00    -0.194 OA 
HETATM   14  C   UNL     1     -10.322   8.388  70.466  1.00  0.00    -0.199 C  
HETATM   15  F   UNL     1      -9.823   8.770  69.273  1.00  0.00    -0.168 F  
HETATM   16  F   UNL     1     -11.636   8.693  70.507  1.00  0.00    -0.273 F  
HETATM   17  F   UNL     1      -9.694   9.104  71.426  1.00  0.00    -0.315 F  
ENDBRANCH  10  13
TORSDOF 1
ENDMDL
MODEL      181
REMARK 921   NORMALIZED FREE ENERGY PREDICTED BY IDOCK:   -1.99 KCAL/MOL
REMARK 922        TOTAL FREE ENERGY PREDICTED BY IDOCK:   -2.50 KCAL/MOL
REMARK 923 INTER-LIGAND FREE ENERGY PREDICTED BY IDOCK:   -2.14 KCAL/MOL
REMARK 924 INTRA-LIGAND FREE ENERGY PREDICTED BY IDOCK:   -0.36 KCAL/MOL
REMARK 927      BINDING AFFINITY PREDICTED BY RF-SCORE:    0.00 PKD
ROOT
HETATM    1  N   UNL     1      -8.031   4.328  74.013  1.00  0.00    -0.091 NA 
HETATM    2  C   UNL     1      -8.195   4.182  72.689  1.00  0.00    -0.096 A  
HETATM    3  H1  UNL     1      -7.625   5.162  74.435  1.00  0.00     0.000 HD 
HETATM    4  H2  UNL     1      -8.327   3.569  74.626  1.00  0.00     0.000 HD 
HETATM    5  N   UNL     1      -8.716   3.111  72.147  1.00  0.00    -0.081 NA 
HETATM    6  C   UNL     1      -8.800   3.267  70.775  1.00  0.00    -0.082 A  
HETATM    7  C   UNL     1      -8.298   4.468  70.279  1.00  0.00    -0.074 A  
HETATM    8  C   UNL     1      -8.314   4.769  68.907  1.00  0.00    -0.084 A  
HETATM    9  S   UNL     1      -7.718   5.412  71.595  1.00  0.00    -0.108 SA 
HETATM   10  C   UNL     1      -8.846   3.829  68.014  1.00  0.00    -0.113 A  
HETATM   11  C   UNL     1      -9.390   2.642  68.493  1.00  0.00    -0.251 A  
HETATM   12  C   UNL     1      -9.354   2.344  69.864  1.00  0.00    -0.174 A  
ENDROOT
BRANCH  10  13
HETATM   13  O   UNL     1      -8.840   4.233  66.713  1.00  0.00    -0.111 OA 
HETATM   14  C   UNL     1      -9.870   5.085  66.232  1.00  0.00    -0.200 C  
HETATM   15  F   UNL     1     -10.850   5.333  67.125  1.00  0.00    -0.277 F  
HETATM   16  F   UNL     1      -9.329   6.258  65.842  1.00  0.00    -0.174 F  
HETATM   17  F   UNL     1     -10.434   4.502  65.150  1.00  0.00    -0.226 F  
ENDBRANCH  10  13
TORSDOF 1
ENDMDL
MODEL      182
REMARK 921   NORMALIZED FREE ENERGY PREDICTED BY IDOCK:   -1.92 KCAL/MOL
REMARK 922        TOTAL FREE ENERGY PREDICTED BY IDOCK:   -2.43 KCAL/MOL
REMARK 923 INTER-LIGAND FREE ENERGY PREDICTED BY IDOCK:   -2.03 KCAL/MOL
REMARK 924 INTRA-LIGAND FREE ENERGY PREDICTED BY IDOCK:   -0.40 KCAL/MOL
REMARK 927      BINDING AFFINITY PREDICTED BY RF-SCORE:    0.00 PKD
ROOT
HETATM    1  N   UNL     1      -9.939   6.254  66.008  1.00  0.00    -0.390 NA 
HETATM    2  C   UNL     1      -9.437   7.412  66.462  1.00  0.00    -0.172 A  
HETATM    3  H1  UNL     1     -10.285   5.517  66.623  1.00  0.00     0.000 HD 
HETATM    4  H2  UNL     1      -9.977   6.102  65.000  1.00  0.00     0.000 HD 
HETATM    5  N   UNL     1      -8.993   8.357  65.673  1.00  0.00    -0.166 NA 
HETATM    6  C   UNL     1      -8.583   9.446  66.422  1.00  0.00    -0.134 A  
HETATM    7  C   UNL     1      -8.691   9.295  67.803  1.00  0.00    -0.120 A  
HETATM    8  C   UNL     1      -8.314  10.314  68.693  1.00  0.00    -0.122 A  
HETATM    9  S   UNL     1      -9.337   7.737  68.142  1.00  0.00    -0.146 SA 
HETATM   10  C   UNL     1      -7.808  11.513  68.172  1.00  0.00    -0.128 A  
HETATM   11  C   UNL     1      -7.731  11.700  66.796  1.00  0.00    -0.116 A  
HETATM   12  C   UNL     1      -8.096  10.668  65.916  1.00  0.00    -0.159 A  
ENDROOT
BRANCH  10  13
HETATM   13  O   UNL     1      -7.501  12.444  69.119  1.00  0.00     0.010 OA 
HETATM   14  C   UNL     1      -6.150  12.625  69.523  1.00  0.00    -0.119 C  
HETATM   15  F   UNL     1      -5.285  11.743  68.982  1.00  0.00    -0.050 F  
HETATM   16  F   UNL     1      -5.755  13.875  69.204  1.00  0.00    -0.078 F  
HETATM   17  F   UNL     1      -6.088  12.494  70.868  1.00  0.00    -0.140 F  
ENDBRANCH  10  13
TORSDOF 1
ENDMDL
MODEL      183
REMARK 921   NORMALIZED FREE ENERGY PREDICTED BY IDOCK:   -1.88 KCAL/MOL
REMARK 922        TOTAL FREE ENERGY PREDICTED BY IDOCK:   -2.38 KCAL/MOL
REMARK 923 INTER-LIGAND FREE ENERGY PREDICTED BY IDOCK:   -2.01 KCAL/MOL
REMARK 924 INTRA-LIGAND FREE ENERGY PREDICTED BY IDOCK:   -0.37 KCAL/MOL
REMARK 927      BINDING AFFINITY PREDICTED BY RF-SCORE:    0.00 PKD
ROOT
HETATM    1  N   UNL     1      -6.281  11.541  65.846  1.00  0.00    -0.433 NA 
HETATM    2  C   UNL     1      -6.731  10.408  66.406  1.00  0.00    -0.107 A  
HETATM    3  H1  UNL     1      -5.385  11.607  65.364  1.00  0.00     0.000 HD 
HETATM    4  H2  UNL     1      -6.863  12.377  65.905  1.00  0.00     0.000 HD 
HETATM    5  N   UNL     1      -7.881  10.324  67.025  1.00  0.00    -0.106 NA 
HETATM    6  C   UNL     1      -8.094   9.026  67.455  1.00  0.00    -0.108 A  
HETATM    7  C   UNL     1      -7.062   8.130  67.181  1.00  0.00    -0.079 A  
HETATM    8  C   UNL     1      -7.135   6.779  67.556  1.00  0.00    -0.085 A  
HETATM    9  S   UNL     1      -5.807   8.965  66.352  1.00  0.00    -0.055 SA 
HETATM   10  C   UNL     1      -8.275   6.324  68.232  1.00  0.00    -0.115 A  
HETATM   11  C   UNL     1      -9.333   7.192  68.478  1.00  0.00    -0.136 A  
HETATM   12  C   UNL     1      -9.244   8.545  68.113  1.00  0.00    -0.142 A  
ENDROOT
BRANCH  10  13
HETATM   13  O   UNL     1      -8.256   4.993  68.523  1.00  0.00    -0.085 OA 
HETATM   14  C   UNL     1      -8.880   4.067  67.644  1.00  0.00    -0.115 C  
HETATM   15  F   UNL     1      -9.550   4.636  66.621  1.00  0.00    -0.134 F  
HETATM   16  F   UNL     1      -7.946   3.232  67.143  1.00  0.00    -0.077 F  
HETATM   17  F   UNL     1      -9.762   3.331  68.358  1.00  0.00    -0.234 F  
ENDBRANCH  10  13
TORSDOF 1
ENDMDL
MODEL      184
REMARK 921   NORMALIZED FREE ENERGY PREDICTED BY IDOCK:   -1.84 KCAL/MOL
REMARK 922        TOTAL FREE ENERGY PREDICTED BY IDOCK:   -2.34 KCAL/MOL
REMARK 923 INTER-LIGAND FREE ENERGY PREDICTED BY IDOCK:   -2.60 KCAL/MOL
REMARK 924 INTRA-LIGAND FREE ENERGY PREDICTED BY IDOCK:    0.26 KCAL/MOL
REMARK 927      BINDING AFFINITY PREDICTED BY RF-SCORE:    0.00 PKD
ROOT
HETATM    1  N   UNL     1     -11.693  11.294  70.631  1.00  0.00    -0.441 NA 
HETATM    2  C   UNL     1     -11.179  10.076  70.397  1.00  0.00    -0.323 A  
HETATM    3  H1  UNL     1     -12.340  11.488  71.394  1.00  0.00     0.000 HD 
HETATM    4  H2  UNL     1     -11.424  12.061  70.015  1.00  0.00     0.000 HD 
HETATM    5  N   UNL     1     -10.349   9.827  69.417  1.00  0.00    -0.203 NA 
HETATM    6  C   UNL     1      -9.955   8.501  69.456  1.00  0.00    -0.193 A  
HETATM    7  C   UNL     1     -10.531   7.736  70.468  1.00  0.00    -0.217 A  
HETATM    8  C   UNL     1     -10.229   6.375  70.633  1.00  0.00    -0.229 A  
HETATM    9  S   UNL     1     -11.587   8.737  71.386  1.00  0.00    -0.322 SA 
HETATM   10  C   UNL     1      -9.325   5.770  69.749  1.00  0.00    -0.147 A  
HETATM   11  C   UNL     1      -8.707   6.525  68.758  1.00  0.00    -0.123 A  
HETATM   12  C   UNL     1      -9.029   7.882  68.591  1.00  0.00    -0.134 A  
ENDROOT
BRANCH  10  13
HETATM   13  O   UNL     1      -9.080   4.457  70.016  1.00  0.00    -0.089 OA 
HETATM   14  C   UNL     1      -7.797   3.907  69.746  1.00  0.00    -0.051 C  
HETATM   15  F   UNL     1      -6.949   4.753  69.126  1.00  0.00    -0.046 F  
HETATM   16  F   UNL     1      -7.237   3.498  70.904  1.00  0.00    -0.032 F  
HETATM   17  F   UNL     1      -7.958   2.825  68.951  1.00  0.00    -0.052 F  
ENDBRANCH  10  13
TORSDOF 1
ENDMDL
MODEL      185
REMARK 921   NORMALIZED FREE ENERGY PREDICTED BY IDOCK:   -1.83 KCAL/MOL
REMARK 922        TOTAL FREE ENERGY PREDICTED BY IDOCK:   -2.33 KCAL/MOL
REMARK 923 INTER-LIGAND FREE ENERGY PREDICTED BY IDOCK:   -2.75 KCAL/MOL
REMARK 924 INTRA-LIGAND FREE ENERGY PREDICTED BY IDOCK:    0.42 KCAL/MOL
REMARK 927      BINDING AFFINITY PREDICTED BY RF-SCORE:    0.00 PKD
ROOT
HETATM    1  N   UNL     1      -9.167   9.951  67.087  1.00  0.00    -0.138 NA 
HETATM    2  C   UNL     1      -9.373   9.035  68.046  1.00  0.00    -0.141 A  
HETATM    3  H1  UNL     1      -8.935  10.923  67.287  1.00  0.00     0.000 HD 
HETATM    4  H2  UNL     1      -9.245   9.661  66.112  1.00  0.00     0.000 HD 
HETATM    5  N   UNL     1      -9.671   7.787  67.789  1.00  0.00    -0.148 NA 
HETATM    6  C   UNL     1      -9.779   7.073  68.970  1.00  0.00    -0.145 A  
HETATM    7  C   UNL     1      -9.591   7.815  70.135  1.00  0.00    -0.168 A  
HETATM    8  C   UNL     1      -9.670   7.228  71.409  1.00  0.00    -0.170 A  
HETATM    9  S   UNL     1      -9.264   9.448  69.706  1.00  0.00    -0.212 SA 
HETATM   10  C   UNL     1      -9.953   5.859  71.507  1.00  0.00    -0.180 A  
HETATM   11  C   UNL     1     -10.102   5.092  70.356  1.00  0.00    -0.333 A  
HETATM   12  C   UNL     1     -10.037   5.692  69.088  1.00  0.00    -0.274 A  
ENDROOT
BRANCH  10  13
HETATM   13  O   UNL     1      -9.977   5.386  72.784  1.00  0.00    -0.166 OA 
HETATM   14  C   UNL     1     -10.287   4.021  73.029  1.00  0.00    -0.168 C  
HETATM   15  F   UNL     1     -10.645   3.326  71.930  1.00  0.00    -0.127 F  
HETATM   16  F   UNL     1      -9.221   3.419  73.596  1.00  0.00    -0.091 F  
HETATM   17  F   UNL     1     -11.316   3.969  73.906  1.00  0.00    -0.287 F  
ENDBRANCH  10  13
TORSDOF 1
ENDMDL
MODEL      186
REMARK 921   NORMALIZED FREE ENERGY PREDICTED BY IDOCK:   -1.77 KCAL/MOL
REMARK 922        TOTAL FREE ENERGY PREDICTED BY IDOCK:   -2.27 KCAL/MOL
REMARK 923 INTER-LIGAND FREE ENERGY PREDICTED BY IDOCK:   -1.87 KCAL/MOL
REMARK 924 INTRA-LIGAND FREE ENERGY PREDICTED BY IDOCK:   -0.40 KCAL/MOL
REMARK 927      BINDING AFFINITY PREDICTED BY RF-SCORE:    0.00 PKD
ROOT
HETATM    1  N   UNL     1      -9.565   6.712  72.754  1.00  0.00    -0.146 NA 
HETATM    2  C   UNL     1      -9.365   6.772  71.428  1.00  0.00    -0.157 A  
HETATM    3  H1  UNL     1     -10.109   7.406  73.267  1.00  0.00     0.000 HD 
HETATM    4  H2  UNL     1      -9.155   5.936  73.273  1.00  0.00     0.000 HD 
HETATM    5  N   UNL     1      -8.667   5.882  70.770  1.00  0.00    -0.133 NA 
HETATM    6  C   UNL     1      -8.674   6.179  69.419  1.00  0.00    -0.123 A  
HETATM    7  C   UNL     1      -9.363   7.338  69.066  1.00  0.00    -0.148 A  
HETATM    8  C   UNL     1      -9.457   7.768  67.733  1.00  0.00    -0.163 A  
HETATM    9  S   UNL     1     -10.018   8.048  70.490  1.00  0.00    -0.191 SA 
HETATM   10  C   UNL     1      -8.832   7.012  66.732  1.00  0.00    -0.126 A  
HETATM   11  C   UNL     1      -8.174   5.831  67.057  1.00  0.00    -0.101 A  
HETATM   12  C   UNL     1      -8.073   5.418  68.396  1.00  0.00    -0.091 A  
ENDROOT
BRANCH  10  13
HETATM   13  O   UNL     1      -9.009   7.501  65.472  1.00  0.00    -0.054 OA 
HETATM   14  C   UNL     1      -8.009   8.321  64.883  1.00  0.00    -0.144 C  
HETATM   15  F   UNL     1      -6.988   8.632  65.708  1.00  0.00    -0.070 F  
HETATM   16  F   UNL     1      -7.514   7.701  63.791  1.00  0.00    -0.077 F  
HETATM   17  F   UNL     1      -8.587   9.477  64.485  1.00  0.00    -0.143 F  
ENDBRANCH  10  13
TORSDOF 1
ENDMDL
MODEL      187
REMARK 921   NORMALIZED FREE ENERGY PREDICTED BY IDOCK:   -1.76 KCAL/MOL
REMARK 922        TOTAL FREE ENERGY PREDICTED BY IDOCK:   -2.26 KCAL/MOL
REMARK 923 INTER-LIGAND FREE ENERGY PREDICTED BY IDOCK:   -1.86 KCAL/MOL
REMARK 924 INTRA-LIGAND FREE ENERGY PREDICTED BY IDOCK:   -0.40 KCAL/MOL
REMARK 927      BINDING AFFINITY PREDICTED BY RF-SCORE:    0.00 PKD
ROOT
HETATM    1  N   UNL     1     -11.289   7.779  71.303  1.00  0.00    -0.259 NA 
HETATM    2  C   UNL     1     -10.578   7.309  70.266  1.00  0.00    -0.229 A  
HETATM    3  H1  UNL     1     -11.267   8.756  71.596  1.00  0.00     0.000 HD 
HETATM    4  H2  UNL     1     -11.881   7.130  71.822  1.00  0.00     0.000 HD 
HETATM    5  N   UNL     1     -10.607   6.056  69.890  1.00  0.00    -0.249 NA 
HETATM    6  C   UNL     1      -9.813   5.880  68.770  1.00  0.00    -0.140 A  
HETATM    7  C   UNL     1      -9.150   7.021  68.322  1.00  0.00    -0.126 A  
HETATM    8  C   UNL     1      -8.310   6.997  67.198  1.00  0.00    -0.121 A  
HETATM    9  S   UNL     1      -9.560   8.339  69.350  1.00  0.00    -0.172 SA 
HETATM   10  C   UNL     1      -8.129   5.788  66.513  1.00  0.00    -0.102 A  
HETATM   11  C   UNL     1      -8.814   4.647  66.918  1.00  0.00    -0.111 A  
HETATM   12  C   UNL     1      -9.640   4.678  68.053  1.00  0.00    -0.207 A  
ENDROOT
BRANCH  10  13
HETATM   13  O   UNL     1      -7.319   5.882  65.421  1.00  0.00    -0.072 OA 
HETATM   14  C   UNL     1      -5.940   5.561  65.533  1.00  0.00    -0.025 C  
HETATM   15  F   UNL     1      -5.533   5.285  66.789  1.00  0.00    -0.010 F  
HETATM   16  F   UNL     1      -5.665   4.502  64.744  1.00  0.00    -0.013 F  
HETATM   17  F   UNL     1      -5.220   6.615  65.087  1.00  0.00    -0.021 F  
ENDBRANCH  10  13
TORSDOF 1
ENDMDL
MODEL      188
REMARK 921   NORMALIZED FREE ENERGY PREDICTED BY IDOCK:   -1.74 KCAL/MOL
REMARK 922        TOTAL FREE ENERGY PREDICTED BY IDOCK:   -2.24 KCAL/MOL
REMARK 923 INTER-LIGAND FREE ENERGY PREDICTED BY IDOCK:   -1.88 KCAL/MOL
REMARK 924 INTRA-LIGAND FREE ENERGY PREDICTED BY IDOCK:   -0.36 KCAL/MOL
REMARK 927      BINDING AFFINITY PREDICTED BY RF-SCORE:    0.00 PKD
ROOT
HETATM    1  N   UNL     1     -10.871   6.908  73.852  1.00  0.00    -0.466 NA 
HETATM    2  C   UNL     1     -10.283   6.469  72.728  1.00  0.00    -0.186 A  
HETATM    3  H1  UNL     1     -11.823   6.657  74.117  1.00  0.00     0.000 HD 
HETATM    4  H2  UNL     1     -10.341   7.521  74.471  1.00  0.00     0.000 HD 
HETATM    5  N   UNL     1      -9.061   6.792  72.389  1.00  0.00    -0.135 NA 
HETATM    6  C   UNL     1      -8.713   6.154  71.210  1.00  0.00    -0.132 A  
HETATM    7  C   UNL     1      -9.711   5.367  70.641  1.00  0.00    -0.181 A  
HETATM    8  C   UNL     1      -9.506   4.660  69.445  1.00  0.00    -0.239 A  
HETATM    9  S   UNL     1     -11.112   5.440  71.638  1.00  0.00     0.036 SA 
HETATM   10  C   UNL     1      -8.263   4.757  68.806  1.00  0.00    -0.083 A  
HETATM   11  C   UNL     1      -7.240   5.504  69.379  1.00  0.00    -0.065 A  
HETATM   12  C   UNL     1      -7.461   6.221  70.566  1.00  0.00    -0.091 A  
ENDROOT
BRANCH  10  13
HETATM   13  O   UNL     1      -8.160   4.009  67.671  1.00  0.00    -0.090 OA 
HETATM   14  C   UNL     1      -7.856   2.624  67.761  1.00  0.00    -0.060 C  
HETATM   15  F   UNL     1      -7.583   2.195  69.011  1.00  0.00    -0.043 F  
HETATM   16  F   UNL     1      -8.890   1.909  67.272  1.00  0.00    -0.105 F  
HETATM   17  F   UNL     1      -6.772   2.376  66.992  1.00  0.00    -0.036 F  
ENDBRANCH  10  13
TORSDOF 1
ENDMDL
MODEL      189
REMARK 921   NORMALIZED FREE ENERGY PREDICTED BY IDOCK:   -1.70 KCAL/MOL
REMARK 922        TOTAL FREE ENERGY PREDICTED BY IDOCK:   -2.19 KCAL/MOL
REMARK 923 INTER-LIGAND FREE ENERGY PREDICTED BY IDOCK:   -1.83 KCAL/MOL
REMARK 924 INTRA-LIGAND FREE ENERGY PREDICTED BY IDOCK:   -0.37 KCAL/MOL
REMARK 927      BINDING AFFINITY PREDICTED BY RF-SCORE:    0.00 PKD
ROOT
HETATM    1  N   UNL     1      -6.381   5.488  70.958  1.00  0.00    -0.033 NA 
HETATM    2  C   UNL     1      -6.915   4.905  69.874  1.00  0.00    -0.053 A  
HETATM    3  H1  UNL     1      -5.824   6.341  70.915  1.00  0.00     0.000 HD 
HETATM    4  H2  UNL     1      -6.539   5.057  71.869  1.00  0.00     0.000 HD 
HETATM    5  N   UNL     1      -7.629   3.810  69.929  1.00  0.00    -0.048 NA 
HETATM    6  C   UNL     1      -8.082   3.475  68.665  1.00  0.00    -0.065 A  
HETATM    7  C   UNL     1      -7.667   4.322  67.639  1.00  0.00    -0.084 A  
HETATM    8  C   UNL     1      -8.047   4.110  66.304  1.00  0.00    -0.098 A  
HETATM    9  S   UNL     1      -6.689   5.568  68.309  1.00  0.00    -0.056 SA 
HETATM   10  C   UNL     1      -8.860   3.010  65.998  1.00  0.00    -0.142 A  
HETATM   11  C   UNL     1      -9.320   2.178  67.013  1.00  0.00    -0.006 A  
HETATM   12  C   UNL     1      -8.921   2.389  68.342  1.00  0.00    -0.179 A  
ENDROOT
BRANCH  10  13
HETATM   13  O   UNL     1      -9.194   2.915  64.680  1.00  0.00    -0.134 OA 
HETATM   14  C   UNL     1     -10.276   3.678  64.166  1.00  0.00    -0.231 C  
HETATM   15  F   UNL     1     -10.962   4.370  65.099  1.00  0.00    -0.329 F  
HETATM   16  F   UNL     1      -9.810   4.540  63.239  1.00  0.00    -0.125 F  
HETATM   17  F   UNL     1     -11.141   2.834  63.558  1.00  0.00    -0.244 F  
ENDBRANCH  10  13
TORSDOF 1
ENDMDL
MODEL      190
REMARK 921   NORMALIZED FREE ENERGY PREDICTED BY IDOCK:   -1.55 KCAL/MOL
REMARK 922        TOTAL FREE ENERGY PREDICTED BY IDOCK:   -2.03 KCAL/MOL
REMARK 923 INTER-LIGAND FREE ENERGY PREDICTED BY IDOCK:   -1.84 KCAL/MOL
REMARK 924 INTRA-LIGAND FREE ENERGY PREDICTED BY IDOCK:   -0.20 KCAL/MOL
REMARK 927      BINDING AFFINITY PREDICTED BY RF-SCORE:    0.00 PKD
ROOT
HETATM    1  N   UNL     1      -9.833   1.850  73.555  1.00  0.00    -0.082 NA 
HETATM    2  C   UNL     1      -9.576   3.102  73.147  1.00  0.00    -0.099 A  
HETATM    3  H1  UNL     1      -9.318   1.037  73.216  1.00  0.00     0.000 HD 
HETATM    4  H2  UNL     1     -10.578   1.703  74.236  1.00  0.00     0.000 HD 
HETATM    5  N   UNL     1     -10.237   4.145  73.581  1.00  0.00    -0.144 NA 
HETATM    6  C   UNL     1      -9.720   5.300  73.021  1.00  0.00    -0.146 A  
HETATM    7  C   UNL     1      -8.672   5.111  72.121  1.00  0.00    -0.129 A  
HETATM    8  C   UNL     1      -8.047   6.188  71.473  1.00  0.00    -0.114 A  
HETATM    9  S   UNL     1      -8.343   3.426  72.001  1.00  0.00    -0.075 SA 
HETATM   10  C   UNL     1      -8.497   7.489  71.736  1.00  0.00    -0.107 A  
HETATM   11  C   UNL     1      -9.513   7.703  72.662  1.00  0.00    -0.230 A  
HETATM   12  C   UNL     1     -10.142   6.618  73.292  1.00  0.00    -0.232 A  
ENDROOT
BRANCH  10  13
HETATM   13  O   UNL     1      -7.803   8.461  71.079  1.00  0.00    -0.082 OA 
HETATM   14  C   UNL     1      -7.990   8.643  69.682  1.00  0.00    -0.096 C  
HETATM   15  F   UNL     1      -8.791   7.724  69.104  1.00  0.00    -0.135 F  
HETATM   16  F   UNL     1      -8.502   9.871  69.459  1.00  0.00    -0.119 F  
HETATM   17  F   UNL     1      -6.781   8.576  69.080  1.00  0.00    -0.048 F  
ENDBRANCH  10  13
TORSDOF 1
ENDMDL
MODEL      191
REMARK 921   NORMALIZED FREE ENERGY PREDICTED BY IDOCK:   -1.51 KCAL/MOL
REMARK 922        TOTAL FREE ENERGY PREDICTED BY IDOCK:   -1.99 KCAL/MOL
REMARK 923 INTER-LIGAND FREE ENERGY PREDICTED BY IDOCK:   -2.17 KCAL/MOL
REMARK 924 INTRA-LIGAND FREE ENERGY PREDICTED BY IDOCK:    0.18 KCAL/MOL
REMARK 927      BINDING AFFINITY PREDICTED BY RF-SCORE:    0.00 PKD
ROOT
HETATM    1  N   UNL     1      -5.505  10.436  63.739  1.00  0.00    -0.146 NA 
HETATM    2  C   UNL     1      -6.229   9.934  64.751  1.00  0.00    -0.107 A  
HETATM    3  H1  UNL     1      -4.952  11.289  63.819  1.00  0.00     0.000 HD 
HETATM    4  H2  UNL     1      -5.507   9.941  62.847  1.00  0.00     0.000 HD 
HETATM    5  N   UNL     1      -6.939   8.840  64.648  1.00  0.00    -0.080 NA 
HETATM    6  C   UNL     1      -7.536   8.546  65.862  1.00  0.00    -0.077 A  
HETATM    7  C   UNL     1      -7.293   9.462  66.883  1.00  0.00    -0.090 A  
HETATM    8  C   UNL     1      -7.832   9.299  68.170  1.00  0.00    -0.095 A  
HETATM    9  S   UNL     1      -6.278  10.712  66.278  1.00  0.00    -0.130 SA 
HETATM   10  C   UNL     1      -8.642   8.184  68.427  1.00  0.00    -0.130 A  
HETATM   11  C   UNL     1      -8.862   7.236  67.434  1.00  0.00    -0.119 A  
HETATM   12  C   UNL     1      -8.332   7.418  66.147  1.00  0.00    -0.139 A  
ENDROOT
BRANCH  10  13
HETATM   13  O   UNL     1      -9.087   8.106  69.713  1.00  0.00    -0.147 OA 
HETATM   14  C   UNL     1      -9.747   9.217  70.303  1.00  0.00    -0.232 C  
HETATM   15  F   UNL     1      -9.772  10.323  69.531  1.00  0.00    -0.209 F  
HETATM   16  F   UNL     1     -11.014   8.871  70.608  1.00  0.00    -0.230 F  
HETATM   17  F   UNL     1      -9.108   9.529  71.453  1.00  0.00    -0.234 F  
ENDBRANCH  10  13
TORSDOF 1
ENDMDL
MODEL      192
REMARK 921   NORMALIZED FREE ENERGY PREDICTED BY IDOCK:   -1.49 KCAL/MOL
REMARK 922        TOTAL FREE ENERGY PREDICTED BY IDOCK:   -1.97 KCAL/MOL
REMARK 923 INTER-LIGAND FREE ENERGY PREDICTED BY IDOCK:   -1.72 KCAL/MOL
REMARK 924 INTRA-LIGAND FREE ENERGY PREDICTED BY IDOCK:   -0.25 KCAL/MOL
REMARK 927      BINDING AFFINITY PREDICTED BY RF-SCORE:    0.00 PKD
ROOT
HETATM    1  N   UNL     1      -9.587   1.674  68.809  1.00  0.00    -0.139 NA 
HETATM    2  C   UNL     1      -9.264   2.874  69.315  1.00  0.00    -0.144 A  
HETATM    3  H1  UNL     1      -9.923   0.900  69.381  1.00  0.00     0.000 HD 
HETATM    4  H2  UNL     1      -9.491   1.528  67.804  1.00  0.00     0.000 HD 
HETATM    5  N   UNL     1      -8.832   3.867  68.580  1.00  0.00    -0.101 NA 
HETATM    6  C   UNL     1      -8.628   4.986  69.368  1.00  0.00    -0.088 A  
HETATM    7  C   UNL     1      -8.880   4.812  70.728  1.00  0.00    -0.121 A  
HETATM    8  C   UNL     1      -8.717   5.857  71.651  1.00  0.00    -0.136 A  
HETATM    9  S   UNL     1      -9.395   3.192  70.994  1.00  0.00    -0.154 SA 
HETATM   10  C   UNL     1      -8.281   7.107  71.190  1.00  0.00    -0.112 A  
HETATM   11  C   UNL     1      -8.064   7.312  69.832  1.00  0.00    -0.127 A  
HETATM   12  C   UNL     1      -8.214   6.256  68.919  1.00  0.00    -0.113 A  
ENDROOT
BRANCH  10  13
HETATM   13  O   UNL     1      -8.185   8.056  72.162  1.00  0.00    -0.115 OA 
HETATM   14  C   UNL     1      -7.078   8.048  73.054  1.00  0.00    -0.099 C  
HETATM   15  F   UNL     1      -6.253   6.991  72.906  1.00  0.00    -0.054 F  
HETATM   16  F   UNL     1      -6.366   9.182  72.888  1.00  0.00    -0.053 F  
HETATM   17  F   UNL     1      -7.552   8.030  74.320  1.00  0.00    -0.162 F  
ENDBRANCH  10  13
TORSDOF 1
ENDMDL
MODEL      193
REMARK 921   NORMALIZED FREE ENERGY PREDICTED BY IDOCK:   -1.39 KCAL/MOL
REMARK 922        TOTAL FREE ENERGY PREDICTED BY IDOCK:   -1.87 KCAL/MOL
REMARK 923 INTER-LIGAND FREE ENERGY PREDICTED BY IDOCK:   -1.83 KCAL/MOL
REMARK 924 INTRA-LIGAND FREE ENERGY PREDICTED BY IDOCK:   -0.04 KCAL/MOL
REMARK 927      BINDING AFFINITY PREDICTED BY RF-SCORE:    0.00 PKD
ROOT
HETATM    1  N   UNL     1      -8.875  10.529  69.054  1.00  0.00    -0.167 NA 
HETATM    2  C   UNL     1      -8.451  11.770  68.771  1.00  0.00     0.007 A  
HETATM    3  H1  UNL     1      -9.816  10.199  68.839  1.00  0.00     0.000 HD 
HETATM    4  H2  UNL     1      -8.226   9.884  69.504  1.00  0.00     0.000 HD 
HETATM    5  N   UNL     1      -7.244  12.193  69.046  1.00  0.00    -0.078 NA 
HETATM    6  C   UNL     1      -7.084  13.493  68.598  1.00  0.00    -0.106 A  
HETATM    7  C   UNL     1      -8.209  14.063  68.006  1.00  0.00    -0.155 A  
HETATM    8  C   UNL     1      -8.199  15.374  67.504  1.00  0.00    -0.187 A  
HETATM    9  S   UNL     1      -9.487  12.910  68.019  1.00  0.00    -0.216 SA 
HETATM   10  C   UNL     1      -7.024  16.130  67.609  1.00  0.00    -0.151 A  
HETATM   11  C   UNL     1      -5.877  15.565  68.158  1.00  0.00    -0.136 A  
HETATM   12  C   UNL     1      -5.903  14.259  68.672  1.00  0.00    -0.086 A  
ENDROOT
BRANCH  10  13
HETATM   13  O   UNL     1      -7.113  17.376  67.064  1.00  0.00    -0.161 OA 
HETATM   14  C   UNL     1      -6.171  17.790  66.084  1.00  0.00    -0.241 C  
HETATM   15  F   UNL     1      -5.177  16.906  65.860  1.00  0.00    -0.035 F  
HETATM   16  F   UNL     1      -6.815  18.025  64.922  1.00  0.00     0.039 F  
HETATM   17  F   UNL     1      -5.609  18.949  66.497  1.00  0.00    -0.156 F  
ENDBRANCH  10  13
TORSDOF 1
ENDMDL
MODEL      194
REMARK 921   NORMALIZED FREE ENERGY PREDICTED BY IDOCK:    1.86 KCAL/MOL
REMARK 922        TOTAL FREE ENERGY PREDICTED BY IDOCK:    1.58 KCAL/MOL
REMARK 923 INTER-LIGAND FREE ENERGY PREDICTED BY IDOCK:    1.67 KCAL/MOL
REMARK 924 INTRA-LIGAND FREE ENERGY PREDICTED BY IDOCK:   -0.10 KCAL/MOL
REMARK 927      BINDING AFFINITY PREDICTED BY RF-SCORE:    0.00 PKD
ROOT
HETATM    1  N   UNL     1      -9.285  11.692  65.374  1.00  0.00    -0.397 NA 
HETATM    2  C   UNL     1      -8.605  12.583  66.113  1.00  0.00     0.360 A  
HETATM    3  H1  UNL     1      -9.120  10.687  65.422  1.00  0.00     0.000 HD 
HETATM    4  H2  UNL     1     -10.000  12.036  64.733  1.00  0.00     0.000 HD 
HETATM    5  N   UNL     1      -8.816  13.872  66.050  1.00  0.00     0.373 NA 
HETATM    6  C   UNL     1      -8.003  14.530  66.957  1.00  0.00    -0.041 A  
HETATM    7  C   UNL     1      -7.141  13.713  67.687  1.00  0.00    -0.170 A  
HETATM    8  C   UNL     1      -6.256  14.237  68.644  1.00  0.00    -0.088 A  
HETATM    9  S   UNL     1      -7.386  12.079  67.207  1.00  0.00    -0.142 SA 
HETATM   10  C   UNL     1      -6.238  15.621  68.863  1.00  0.00    -0.109 A  
HETATM   11  C   UNL     1      -7.119  16.449  68.175  1.00  0.00    -0.145 A  
HETATM   12  C   UNL     1      -7.988  15.917  67.209  1.00  0.00    -0.212 A  
ENDROOT
BRANCH  10  13
HETATM   13  O   UNL     1      -5.366  16.019  69.831  1.00  0.00    -0.120 OA 
HETATM   14  C   UNL     1      -5.845  16.726  70.968  1.00  0.00     0.596 C  
HETATM   15  F   UNL     1      -7.157  17.037  70.918  1.00  0.00     1.786 F  
HETATM   16  F   UNL     1      -5.613  15.993  72.076  1.00  0.00     0.215 F  
HETATM   17  F   UNL     1      -5.149  17.881  71.074  1.00  0.00    -0.232 F  
ENDBRANCH  10  13
TORSDOF 1
ENDMDL
MODEL      195
REMARK 921   NORMALIZED FREE ENERGY PREDICTED BY IDOCK:   10.69 KCAL/MOL
REMARK 922        TOTAL FREE ENERGY PREDICTED BY IDOCK:   10.92 KCAL/MOL
REMARK 923 INTER-LIGAND FREE ENERGY PREDICTED BY IDOCK:   11.17 KCAL/MOL
REMARK 924 INTRA-LIGAND FREE ENERGY PREDICTED BY IDOCK:   -0.25 KCAL/MOL
REMARK 927      BINDING AFFINITY PREDICTED BY RF-SCORE:    0.00 PKD
ROOT
HETATM    1  N   UNL     1      -5.129  12.913  63.317  1.00  0.00     5.233 NA 
HETATM    2  C   UNL     1      -5.688  12.004  64.131  1.00  0.00     4.701 A  
HETATM    3  H1  UNL     1      -4.413  13.571  63.625  1.00  0.00     0.000 HD 
HETATM    4  H2  UNL     1      -5.435  12.949  62.345  1.00  0.00     0.000 HD 
HETATM    5  N   UNL     1      -6.607  11.161  63.736  1.00  0.00     0.859 NA 
HETATM    6  C   UNL     1      -6.957  10.319  64.777  1.00  0.00    -0.093 A  
HETATM    7  C   UNL     1      -6.308  10.563  65.986  1.00  0.00    -0.124 A  
HETATM    8  C   UNL     1      -6.559   9.792  67.132  1.00  0.00    -0.070 A  
HETATM    9  S   UNL     1      -5.228  11.887  65.778  1.00  0.00     1.548 SA 
HETATM   10  C   UNL     1      -7.495   8.751  67.055  1.00  0.00    -0.091 A  
HETATM   11  C   UNL     1      -8.122   8.464  65.848  1.00  0.00    -0.110 A  
HETATM   12  C   UNL     1      -7.876   9.252  64.713  1.00  0.00    -0.118 A  
ENDROOT
BRANCH  10  13
HETATM   13  O   UNL     1      -7.640   8.048  68.213  1.00  0.00    -0.104 OA 
HETATM   14  C   UNL     1      -8.393   8.597  69.286  1.00  0.00    -0.118 C  
HETATM   15  F   UNL     1      -8.816   9.861  69.079  1.00  0.00    -0.125 F  
HETATM   16  F   UNL     1      -9.463   7.812  69.525  1.00  0.00    -0.158 F  
HETATM   17  F   UNL     1      -7.616   8.598  70.394  1.00  0.00    -0.059 F  
ENDBRANCH  10  13
TORSDOF 1
ENDMDL
MODEL      196
REMARK 921   NORMALIZED FREE ENERGY PREDICTED BY IDOCK:   19.93 KCAL/MOL
REMARK 922        TOTAL FREE ENERGY PREDICTED BY IDOCK:   20.70 KCAL/MOL
REMARK 923 INTER-LIGAND FREE ENERGY PREDICTED BY IDOCK:   20.42 KCAL/MOL
REMARK 924 INTRA-LIGAND FREE ENERGY PREDICTED BY IDOCK:    0.28 KCAL/MOL
REMARK 927      BINDING AFFINITY PREDICTED BY RF-SCORE:    0.00 PKD
ROOT
HETATM    1  N   UNL     1      -9.300  11.614  65.374  1.00  0.00    -0.372 NA 
HETATM    2  C   UNL     1      -8.727  11.736  66.581  1.00  0.00    -0.186 A  
HETATM    3  H1  UNL     1      -9.253  10.760  64.819  1.00  0.00     0.000 HD 
HETATM    4  H2  UNL     1      -9.807  12.413  64.993  1.00  0.00     0.000 HD 
HETATM    5  N   UNL     1      -8.787  12.832  67.293  1.00  0.00    -0.190 NA 
HETATM    6  C   UNL     1      -8.147  12.645  68.506  1.00  0.00    -0.082 A  
HETATM    7  C   UNL     1      -7.567  11.391  68.687  1.00  0.00    -0.130 A  
HETATM    8  C   UNL     1      -6.883  11.054  69.866  1.00  0.00    -0.097 A  
HETATM    9  S   UNL     1      -7.855  10.439  67.284  1.00  0.00    -0.107 SA 
HETATM   10  C   UNL     1      -6.778  12.011  70.885  1.00  0.00     2.165 A  
HETATM   11  C   UNL     1      -7.386  13.254  70.741  1.00  0.00     3.218 A  
HETATM   12  C   UNL     1      -8.053  13.586  69.551  1.00  0.00     0.906 A  
ENDROOT
BRANCH  10  13
HETATM   13  O   UNL     1      -6.122  11.572  71.996  1.00  0.00     0.841 OA 
HETATM   14  C   UNL     1      -6.476  12.080  73.275  1.00  0.00     5.515 C  
HETATM   15  F   UNL     1      -7.393  13.069  73.246  1.00  0.00     5.458 F  
HETATM   16  F   UNL     1      -6.945  11.072  74.039  1.00  0.00     3.374 F  
HETATM   17  F   UNL     1      -5.359  12.568  73.861  1.00  0.00     0.103 F  
ENDBRANCH  10  13
TORSDOF 1
ENDMDL
