MODEL        1
REMARK 921   NORMALIZED FREE ENERGY PREDICTED BY IDOCK:   -5.43 KCAL/MOL
REMARK 922        TOTAL FREE ENERGY PREDICTED BY IDOCK:   -5.87 KCAL/MOL
REMARK 923 INTER-LIGAND FREE ENERGY PREDICTED BY IDOCK:   -5.74 KCAL/MOL
REMARK 924 INTRA-LIGAND FREE ENERGY PREDICTED BY IDOCK:   -0.13 KCAL/MOL
REMARK 927      BINDING AFFINITY PREDICTED BY RF-SCORE:    0.00 PKD
ROOT
HETATM    1  C   UNL     1     -11.361  15.056  66.235  1.00  0.00    -0.273 C  
HETATM    2  C   UNL     1     -10.469  16.043  65.471  1.00  0.00    -0.405 C  
HETATM    3  N   UNL     1     -11.210  16.493  64.285  1.00  0.00    -1.353 NA 
HETATM    4  H2  UNL     1     -12.124  16.882  64.513  1.00  0.00     0.000 HD 
HETATM    5  H1  UNL     1     -10.617  17.150  63.777  1.00  0.00     0.000 HD 
ENDROOT
BRANCH   2   6
HETATM    6  C   UNL     1      -9.943  17.244  66.327  1.00  0.00    -0.311 C  
HETATM    7  C   UNL     1      -8.392  17.341  66.236  1.00  0.00    -0.289 C  
HETATM    8  C   UNL     1      -7.857  18.540  67.039  1.00  0.00    -0.236 C  
HETATM    9  C   UNL     1      -8.460  19.837  66.483  1.00  0.00    -0.380 C  
HETATM   10  C   UNL     1      -9.991  19.788  66.590  1.00  0.00    -0.556 C  
HETATM   11  C   UNL     1     -10.394  19.625  68.063  1.00  0.00    -0.579 C  
HETATM   12  C   UNL     1     -10.519  18.588  65.784  1.00  0.00    -0.277 C  
HETATM   13  C   UNL     1      -9.796  18.328  68.631  1.00  0.00    -0.400 C  
HETATM   14  C   UNL     1     -10.328  17.128  67.829  1.00  0.00    -0.347 C  
HETATM   15  C   UNL     1      -8.264  18.379  68.512  1.00  0.00    -0.338 C  
ENDBRANCH   2   6
TORSDOF 1
ENDMDL
MODEL        2
REMARK 921   NORMALIZED FREE ENERGY PREDICTED BY IDOCK:   -5.42 KCAL/MOL
REMARK 922        TOTAL FREE ENERGY PREDICTED BY IDOCK:   -5.86 KCAL/MOL
REMARK 923 INTER-LIGAND FREE ENERGY PREDICTED BY IDOCK:   -5.73 KCAL/MOL
REMARK 924 INTRA-LIGAND FREE ENERGY PREDICTED BY IDOCK:   -0.13 KCAL/MOL
REMARK 927      BINDING AFFINITY PREDICTED BY RF-SCORE:    0.00 PKD
ROOT
HETATM    1  C   UNL     1     -11.206  15.097  66.146  1.00  0.00    -0.271 C  
HETATM    2  C   UNL     1     -10.446  16.191  65.385  1.00  0.00    -0.373 C  
HETATM    3  N   UNL     1     -11.285  16.620  64.258  1.00  0.00    -1.380 NA 
HETATM    4  H2  UNL     1     -12.217  16.915  64.548  1.00  0.00     0.000 HD 
HETATM    5  H1  UNL     1     -10.780  17.348  63.752  1.00  0.00     0.000 HD 
ENDROOT
BRANCH   2   6
HETATM    6  C   UNL     1      -9.984  17.399  66.269  1.00  0.00    -0.306 C  
HETATM    7  C   UNL     1     -10.352  17.154  67.761  1.00  0.00    -0.347 C  
HETATM    8  C   UNL     1      -9.870  18.312  68.654  1.00  0.00    -0.400 C  
HETATM    9  C   UNL     1      -8.346  18.443  68.543  1.00  0.00    -0.344 C  
HETATM   10  C   UNL     1      -7.951  18.718  67.084  1.00  0.00    -0.254 C  
HETATM   11  C   UNL     1      -8.614  20.023  66.615  1.00  0.00    -0.382 C  
HETATM   12  C   UNL     1      -8.434  17.557  66.199  1.00  0.00    -0.177 C  
HETATM   13  C   UNL     1     -10.142  19.903  66.722  1.00  0.00    -0.586 C  
HETATM   14  C   UNL     1     -10.626  18.746  65.832  1.00  0.00    -0.405 C  
HETATM   15  C   UNL     1     -10.530  19.617  68.182  1.00  0.00    -0.503 C  
ENDBRANCH   2   6
TORSDOF 1
ENDMDL
MODEL        3
REMARK 921   NORMALIZED FREE ENERGY PREDICTED BY IDOCK:   -5.35 KCAL/MOL
REMARK 922        TOTAL FREE ENERGY PREDICTED BY IDOCK:   -5.79 KCAL/MOL
REMARK 923 INTER-LIGAND FREE ENERGY PREDICTED BY IDOCK:   -5.66 KCAL/MOL
REMARK 924 INTRA-LIGAND FREE ENERGY PREDICTED BY IDOCK:   -0.14 KCAL/MOL
REMARK 927      BINDING AFFINITY PREDICTED BY RF-SCORE:    0.00 PKD
ROOT
HETATM    1  C   UNL     1     -11.308  15.089  66.085  1.00  0.00    -0.270 C  
HETATM    2  C   UNL     1     -10.500  16.159  65.340  1.00  0.00    -0.373 C  
HETATM    3  N   UNL     1     -11.358  16.718  64.288  1.00  0.00    -1.338 NA 
HETATM    4  H2  UNL     1     -12.245  17.071  64.646  1.00  0.00     0.000 HD 
HETATM    5  H1  UNL     1     -10.821  17.430  63.792  1.00  0.00     0.000 HD 
ENDROOT
BRANCH   2   6
HETATM    6  C   UNL     1      -9.891  17.272  66.258  1.00  0.00    -0.299 C  
HETATM    7  C   UNL     1     -10.417  18.675  65.836  1.00  0.00    -0.395 C  
HETATM    8  C   UNL     1      -9.861  19.781  66.751  1.00  0.00    -0.528 C  
HETATM    9  C   UNL     1     -10.296  19.513  68.198  1.00  0.00    -0.550 C  
HETATM   10  C   UNL     1      -9.764  18.148  68.658  1.00  0.00    -0.367 C  
HETATM   11  C   UNL     1      -8.229  18.145  68.574  1.00  0.00    -0.320 C  
HETATM   12  C   UNL     1     -10.323  17.048  67.740  1.00  0.00    -0.335 C  
HETATM   13  C   UNL     1      -7.782  18.413  67.128  1.00  0.00    -0.233 C  
HETATM   14  C   UNL     1      -8.337  17.310  66.211  1.00  0.00    -0.289 C  
HETATM   15  C   UNL     1      -8.327  19.775  66.670  1.00  0.00    -0.360 C  
ENDBRANCH   2   6
TORSDOF 1
ENDMDL
MODEL        4
REMARK 921   NORMALIZED FREE ENERGY PREDICTED BY IDOCK:   -5.17 KCAL/MOL
REMARK 922        TOTAL FREE ENERGY PREDICTED BY IDOCK:   -5.59 KCAL/MOL
REMARK 923 INTER-LIGAND FREE ENERGY PREDICTED BY IDOCK:   -5.47 KCAL/MOL
REMARK 924 INTRA-LIGAND FREE ENERGY PREDICTED BY IDOCK:   -0.13 KCAL/MOL
REMARK 927      BINDING AFFINITY PREDICTED BY RF-SCORE:    0.00 PKD
ROOT
HETATM    1  C   UNL     1     -12.758  11.871  63.509  1.00  0.00    -0.530 C  
HETATM    2  C   UNL     1     -11.823  13.068  63.722  1.00  0.00    -0.502 C  
HETATM    3  N   UNL     1     -12.508  14.267  63.219  1.00  0.00    -1.068 NA 
HETATM    4  H2  UNL     1     -13.427  14.404  63.639  1.00  0.00     0.000 HD 
HETATM    5  H1  UNL     1     -11.886  15.064  63.361  1.00  0.00     0.000 HD 
ENDROOT
BRANCH   2   6
HETATM    6  C   UNL     1     -11.322  13.250  65.194  1.00  0.00    -0.318 C  
HETATM    7  C   UNL     1     -12.426  13.912  66.069  1.00  0.00    -0.501 C  
HETATM    8  C   UNL     1     -11.967  14.064  67.530  1.00  0.00    -0.430 C  
HETATM    9  C   UNL     1     -11.650  12.680  68.112  1.00  0.00    -0.386 C  
HETATM   10  C   UNL     1     -10.538  12.012  67.290  1.00  0.00    -0.252 C  
HETATM   11  C   UNL     1      -9.277  12.888  67.333  1.00  0.00    -0.197 C  
HETATM   12  C   UNL     1     -11.003  11.863  65.832  1.00  0.00    -0.354 C  
HETATM   13  C   UNL     1      -9.583  14.278  66.752  1.00  0.00    -0.290 C  
HETATM   14  C   UNL     1     -10.043  14.129  65.292  1.00  0.00    -0.364 C  
HETATM   15  C   UNL     1     -10.704  14.937  67.572  1.00  0.00    -0.276 C  
ENDBRANCH   2   6
TORSDOF 1
ENDMDL
MODEL        5
REMARK 921   NORMALIZED FREE ENERGY PREDICTED BY IDOCK:   -5.16 KCAL/MOL
REMARK 922        TOTAL FREE ENERGY PREDICTED BY IDOCK:   -5.59 KCAL/MOL
REMARK 923 INTER-LIGAND FREE ENERGY PREDICTED BY IDOCK:   -5.47 KCAL/MOL
REMARK 924 INTRA-LIGAND FREE ENERGY PREDICTED BY IDOCK:   -0.12 KCAL/MOL
REMARK 927      BINDING AFFINITY PREDICTED BY RF-SCORE:    0.00 PKD
ROOT
HETATM    1  C   UNL     1     -12.624  11.767  63.478  1.00  0.00    -0.485 C  
HETATM    2  C   UNL     1     -11.779  13.019  63.747  1.00  0.00    -0.485 C  
HETATM    3  N   UNL     1     -12.532  14.182  63.261  1.00  0.00    -1.098 NA 
HETATM    4  H2  UNL     1     -13.468  14.244  63.661  1.00  0.00     0.000 HD 
HETATM    5  H1  UNL     1     -11.971  15.015  63.440  1.00  0.00     0.000 HD 
ENDROOT
BRANCH   2   6
HETATM    6  C   UNL     1     -11.325  13.191  65.236  1.00  0.00    -0.321 C  
HETATM    7  C   UNL     1     -10.079  14.121  65.322  1.00  0.00    -0.364 C  
HETATM    8  C   UNL     1      -9.641  14.335  66.782  1.00  0.00    -0.290 C  
HETATM    9  C   UNL     1     -10.787  14.983  67.570  1.00  0.00    -0.297 C  
HETATM   10  C   UNL     1     -12.024  14.073  67.533  1.00  0.00    -0.430 C  
HETATM   11  C   UNL     1     -11.675  12.713  68.157  1.00  0.00    -0.396 C  
HETATM   12  C   UNL     1     -12.457  13.863  66.072  1.00  0.00    -0.501 C  
HETATM   13  C   UNL     1     -10.527  12.055  67.375  1.00  0.00    -0.239 C  
HETATM   14  C   UNL     1     -10.963  11.841  65.916  1.00  0.00    -0.354 C  
HETATM   15  C   UNL     1      -9.296  12.975  67.407  1.00  0.00    -0.209 C  
ENDBRANCH   2   6
TORSDOF 1
ENDMDL
MODEL        6
REMARK 921   NORMALIZED FREE ENERGY PREDICTED BY IDOCK:   -5.11 KCAL/MOL
REMARK 922        TOTAL FREE ENERGY PREDICTED BY IDOCK:   -5.54 KCAL/MOL
REMARK 923 INTER-LIGAND FREE ENERGY PREDICTED BY IDOCK:   -5.41 KCAL/MOL
REMARK 924 INTRA-LIGAND FREE ENERGY PREDICTED BY IDOCK:   -0.12 KCAL/MOL
REMARK 927      BINDING AFFINITY PREDICTED BY RF-SCORE:    0.00 PKD
ROOT
HETATM    1  C   UNL     1     -12.517  11.777  63.408  1.00  0.00    -0.490 C  
HETATM    2  C   UNL     1     -11.740  13.060  63.729  1.00  0.00    -0.485 C  
HETATM    3  N   UNL     1     -12.534  14.198  63.246  1.00  0.00    -1.098 NA 
HETATM    4  H2  UNL     1     -13.482  14.206  63.620  1.00  0.00     0.000 HD 
HETATM    5  H1  UNL     1     -12.017  15.052  63.460  1.00  0.00     0.000 HD 
ENDROOT
BRANCH   2   6
HETATM    6  C   UNL     1     -11.337  13.219  65.234  1.00  0.00    -0.317 C  
HETATM    7  C   UNL     1     -10.987  11.834  65.853  1.00  0.00    -0.354 C  
HETATM    8  C   UNL     1     -10.549  11.973  67.322  1.00  0.00    -0.252 C  
HETATM    9  C   UNL     1      -9.307  12.870  67.403  1.00  0.00    -0.194 C  
HETATM   10  C   UNL     1      -9.628  14.258  66.828  1.00  0.00    -0.290 C  
HETATM   11  C   UNL     1     -10.772  14.890  67.636  1.00  0.00    -0.270 C  
HETATM   12  C   UNL     1     -10.064  14.112  65.361  1.00  0.00    -0.359 C  
HETATM   13  C   UNL     1     -12.022  13.999  67.563  1.00  0.00    -0.430 C  
HETATM   14  C   UNL     1     -12.461  13.859  66.095  1.00  0.00    -0.478 C  
HETATM   15  C   UNL     1     -11.691  12.609  68.129  1.00  0.00    -0.396 C  
ENDBRANCH   2   6
TORSDOF 1
ENDMDL
MODEL        7
REMARK 921   NORMALIZED FREE ENERGY PREDICTED BY IDOCK:   -4.97 KCAL/MOL
REMARK 922        TOTAL FREE ENERGY PREDICTED BY IDOCK:   -5.38 KCAL/MOL
REMARK 923 INTER-LIGAND FREE ENERGY PREDICTED BY IDOCK:   -5.25 KCAL/MOL
REMARK 924 INTRA-LIGAND FREE ENERGY PREDICTED BY IDOCK:   -0.13 KCAL/MOL
REMARK 927      BINDING AFFINITY PREDICTED BY RF-SCORE:    0.00 PKD
ROOT
HETATM    1  C   UNL     1     -12.254  14.088  64.083  1.00  0.00    -0.433 C  
HETATM    2  C   UNL     1     -11.109  15.006  64.530  1.00  0.00    -0.234 C  
HETATM    3  N   UNL     1     -11.411  16.364  64.059  1.00  0.00    -1.573 NA 
HETATM    4  H2  UNL     1     -12.325  16.695  64.366  1.00  0.00     0.000 HD 
HETATM    5  H1  UNL     1     -10.650  16.974  64.356  1.00  0.00     0.000 HD 
ENDROOT
BRANCH   2   6
HETATM    6  C   UNL     1     -10.804  14.969  66.066  1.00  0.00    -0.334 C  
HETATM    7  C   UNL     1     -10.620  16.411  66.620  1.00  0.00    -0.239 C  
HETATM    8  C   UNL     1     -10.359  16.399  68.137  1.00  0.00    -0.283 C  
HETATM    9  C   UNL     1     -11.550  15.750  68.855  1.00  0.00    -0.400 C  
HETATM   10  C   UNL     1     -11.740  14.311  68.354  1.00  0.00    -0.373 C  
HETATM   11  C   UNL     1     -10.465  13.501  68.638  1.00  0.00    -0.242 C  
HETATM   12  C   UNL     1     -12.000  14.331  66.838  1.00  0.00    -0.467 C  
HETATM   13  C   UNL     1      -9.265  14.142  67.923  1.00  0.00    -0.196 C  
HETATM   14  C   UNL     1      -9.524  14.156  66.407  1.00  0.00    -0.289 C  
HETATM   15  C   UNL     1      -9.087  15.585  68.421  1.00  0.00    -0.190 C  
ENDBRANCH   2   6
TORSDOF 1
ENDMDL
MODEL        8
REMARK 921   NORMALIZED FREE ENERGY PREDICTED BY IDOCK:   -4.95 KCAL/MOL
REMARK 922        TOTAL FREE ENERGY PREDICTED BY IDOCK:   -5.37 KCAL/MOL
REMARK 923 INTER-LIGAND FREE ENERGY PREDICTED BY IDOCK:   -5.24 KCAL/MOL
REMARK 924 INTRA-LIGAND FREE ENERGY PREDICTED BY IDOCK:   -0.13 KCAL/MOL
REMARK 927      BINDING AFFINITY PREDICTED BY RF-SCORE:    0.00 PKD
ROOT
HETATM    1  C   UNL     1     -12.135  14.430  65.214  1.00  0.00    -0.380 C  
HETATM    2  C   UNL     1     -10.986  15.394  64.893  1.00  0.00    -0.437 C  
HETATM    3  N   UNL     1     -11.491  16.394  63.943  1.00  0.00    -1.618 NA 
HETATM    4  H2  UNL     1     -12.325  16.874  64.280  1.00  0.00     0.000 HD 
HETATM    5  H1  UNL     1     -10.726  17.036  63.730  1.00  0.00     0.000 HD 
ENDROOT
BRANCH   2   6
HETATM    6  C   UNL     1     -10.319  16.054  66.147  1.00  0.00    -0.340 C  
HETATM    7  C   UNL     1     -11.010  15.565  67.453  1.00  0.00    -0.306 C  
HETATM    8  C   UNL     1     -10.343  16.172  68.700  1.00  0.00    -0.252 C  
HETATM    9  C   UNL     1      -8.867  15.756  68.745  1.00  0.00    -0.207 C  
HETATM   10  C   UNL     1      -8.147  16.252  67.482  1.00  0.00    -0.165 C  
HETATM   11  C   UNL     1      -8.246  17.784  67.409  1.00  0.00    -0.221 C  
HETATM   12  C   UNL     1      -8.818  15.642  66.240  1.00  0.00    -0.364 C  
HETATM   13  C   UNL     1      -9.721  18.213  67.365  1.00  0.00    -0.296 C  
HETATM   14  C   UNL     1     -10.390  17.607  66.119  1.00  0.00    -0.334 C  
HETATM   15  C   UNL     1     -10.439  17.704  68.625  1.00  0.00    -0.317 C  
ENDBRANCH   2   6
TORSDOF 1
ENDMDL
MODEL        9
REMARK 921   NORMALIZED FREE ENERGY PREDICTED BY IDOCK:   -4.90 KCAL/MOL
REMARK 922        TOTAL FREE ENERGY PREDICTED BY IDOCK:   -5.31 KCAL/MOL
REMARK 923 INTER-LIGAND FREE ENERGY PREDICTED BY IDOCK:   -5.19 KCAL/MOL
REMARK 924 INTRA-LIGAND FREE ENERGY PREDICTED BY IDOCK:   -0.13 KCAL/MOL
REMARK 927      BINDING AFFINITY PREDICTED BY RF-SCORE:    0.00 PKD
ROOT
HETATM    1  C   UNL     1     -12.147  14.432  65.211  1.00  0.00    -0.380 C  
HETATM    2  C   UNL     1     -11.030  15.428  64.874  1.00  0.00    -0.437 C  
HETATM    3  N   UNL     1     -11.565  16.390  63.901  1.00  0.00    -1.602 NA 
HETATM    4  H2  UNL     1     -12.418  16.847  64.224  1.00  0.00     0.000 HD 
HETATM    5  H1  UNL     1     -10.823  17.053  63.677  1.00  0.00     0.000 HD 
ENDROOT
BRANCH   2   6
HETATM    6  C   UNL     1     -10.392  16.138  66.115  1.00  0.00    -0.350 C  
HETATM    7  C   UNL     1      -8.849  15.937  66.125  1.00  0.00    -0.363 C  
HETATM    8  C   UNL     1      -8.197  16.661  67.317  1.00  0.00    -0.197 C  
HETATM    9  C   UNL     1      -8.492  18.164  67.225  1.00  0.00    -0.243 C  
HETATM   10  C   UNL     1     -10.009  18.400  67.246  1.00  0.00    -0.347 C  
HETATM   11  C   UNL     1     -10.593  17.841  68.553  1.00  0.00    -0.260 C  
HETATM   12  C   UNL     1     -10.654  17.674  66.052  1.00  0.00    -0.220 C  
HETATM   13  C   UNL     1     -10.303  16.336  68.656  1.00  0.00    -0.263 C  
HETATM   14  C   UNL     1     -10.953  15.610  67.466  1.00  0.00    -0.309 C  
HETATM   15  C   UNL     1      -8.784  16.106  68.623  1.00  0.00    -0.214 C  
ENDBRANCH   2   6
TORSDOF 1
ENDMDL
MODEL       10
REMARK 921   NORMALIZED FREE ENERGY PREDICTED BY IDOCK:   -4.84 KCAL/MOL
REMARK 922        TOTAL FREE ENERGY PREDICTED BY IDOCK:   -5.25 KCAL/MOL
REMARK 923 INTER-LIGAND FREE ENERGY PREDICTED BY IDOCK:   -5.12 KCAL/MOL
REMARK 924 INTRA-LIGAND FREE ENERGY PREDICTED BY IDOCK:   -0.13 KCAL/MOL
REMARK 927      BINDING AFFINITY PREDICTED BY RF-SCORE:    0.00 PKD
ROOT
HETATM    1  C   UNL     1     -11.534  15.931  64.220  1.00  0.00    -0.197 C  
HETATM    2  C   UNL     1     -12.250  14.616  64.558  1.00  0.00    -0.456 C  
HETATM    3  N   UNL     1     -12.381  13.844  63.315  1.00  0.00    -1.148 NA 
HETATM    4  H2  UNL     1     -11.489  13.698  62.844  1.00  0.00     0.000 HD 
HETATM    5  H1  UNL     1     -12.857  12.970  63.540  1.00  0.00     0.000 HD 
ENDROOT
BRANCH   2   6
HETATM    6  C   UNL     1     -11.578  13.784  65.701  1.00  0.00    -0.339 C  
HETATM    7  C   UNL     1     -10.044  14.043  65.736  1.00  0.00    -0.345 C  
HETATM    8  C   UNL     1      -9.369  13.264  66.879  1.00  0.00    -0.244 C  
HETATM    9  C   UNL     1      -9.968  13.706  68.221  1.00  0.00    -0.236 C  
HETATM   10  C   UNL     1     -11.479  13.432  68.233  1.00  0.00    -0.350 C  
HETATM   11  C   UNL     1     -11.726  11.929  68.030  1.00  0.00    -0.382 C  
HETATM   12  C   UNL     1     -12.147  14.214  67.089  1.00  0.00    -0.432 C  
HETATM   13  C   UNL     1     -11.130  11.475  66.688  1.00  0.00    -0.355 C  
HETATM   14  C   UNL     1     -11.802  12.253  65.544  1.00  0.00    -0.420 C  
HETATM   15  C   UNL     1      -9.620  11.762  66.678  1.00  0.00    -0.219 C  
ENDBRANCH   2   6
TORSDOF 1
ENDMDL
MODEL       11
REMARK 921   NORMALIZED FREE ENERGY PREDICTED BY IDOCK:   -4.82 KCAL/MOL
REMARK 922        TOTAL FREE ENERGY PREDICTED BY IDOCK:   -5.23 KCAL/MOL
REMARK 923 INTER-LIGAND FREE ENERGY PREDICTED BY IDOCK:   -5.10 KCAL/MOL
REMARK 924 INTRA-LIGAND FREE ENERGY PREDICTED BY IDOCK:   -0.13 KCAL/MOL
REMARK 927      BINDING AFFINITY PREDICTED BY RF-SCORE:    0.00 PKD
ROOT
HETATM    1  C   UNL     1     -11.497  16.023  64.365  1.00  0.00    -0.246 C  
HETATM    2  C   UNL     1     -12.215  14.697  64.648  1.00  0.00    -0.434 C  
HETATM    3  N   UNL     1     -12.347  13.977  63.374  1.00  0.00    -1.154 NA 
HETATM    4  H2  UNL     1     -11.454  13.849  62.898  1.00  0.00     0.000 HD 
HETATM    5  H1  UNL     1     -12.824  13.094  63.563  1.00  0.00     0.000 HD 
ENDROOT
BRANCH   2   6
HETATM    6  C   UNL     1     -11.546  13.817  65.757  1.00  0.00    -0.342 C  
HETATM    7  C   UNL     1     -11.746  12.305  65.447  1.00  0.00    -0.424 C  
HETATM    8  C   UNL     1     -11.060  11.421  66.505  1.00  0.00    -0.312 C  
HETATM    9  C   UNL     1      -9.555  11.720  66.523  1.00  0.00    -0.225 C  
HETATM   10  C   UNL     1      -9.322  13.200  66.858  1.00  0.00    -0.246 C  
HETATM   11  C   UNL     1      -9.923  13.510  68.238  1.00  0.00    -0.237 C  
HETATM   12  C   UNL     1     -10.008  14.077  65.798  1.00  0.00    -0.319 C  
HETATM   13  C   UNL     1     -11.431  13.215  68.232  1.00  0.00    -0.349 C  
HETATM   14  C   UNL     1     -12.118  14.096  67.175  1.00  0.00    -0.432 C  
HETATM   15  C   UNL     1     -11.659  11.735  67.885  1.00  0.00    -0.377 C  
ENDBRANCH   2   6
TORSDOF 1
ENDMDL
MODEL       12
REMARK 921   NORMALIZED FREE ENERGY PREDICTED BY IDOCK:   -4.79 KCAL/MOL
REMARK 922        TOTAL FREE ENERGY PREDICTED BY IDOCK:   -5.20 KCAL/MOL
REMARK 923 INTER-LIGAND FREE ENERGY PREDICTED BY IDOCK:   -5.07 KCAL/MOL
REMARK 924 INTRA-LIGAND FREE ENERGY PREDICTED BY IDOCK:   -0.12 KCAL/MOL
REMARK 927      BINDING AFFINITY PREDICTED BY RF-SCORE:    0.00 PKD
ROOT
HETATM    1  C   UNL     1     -11.493  16.015  64.333  1.00  0.00    -0.246 C  
HETATM    2  C   UNL     1     -12.159  14.665  64.626  1.00  0.00    -0.454 C  
HETATM    3  N   UNL     1     -12.333  13.963  63.348  1.00  0.00    -1.139 NA 
HETATM    4  H2  UNL     1     -11.461  13.869  62.827  1.00  0.00     0.000 HD 
HETATM    5  H1  UNL     1     -12.776  13.065  63.542  1.00  0.00     0.000 HD 
ENDROOT
BRANCH   2   6
HETATM    6  C   UNL     1     -11.413  13.785  65.685  1.00  0.00    -0.318 C  
HETATM    7  C   UNL     1     -12.124  13.875  67.067  1.00  0.00    -0.451 C  
HETATM    8  C   UNL     1     -11.428  12.986  68.113  1.00  0.00    -0.356 C  
HETATM    9  C   UNL     1     -11.459  11.525  67.644  1.00  0.00    -0.357 C  
HETATM   10  C   UNL     1     -10.736  11.396  66.296  1.00  0.00    -0.322 C  
HETATM   11  C   UNL     1      -9.278  11.853  66.454  1.00  0.00    -0.218 C  
HETATM   12  C   UNL     1     -11.436  12.286  65.255  1.00  0.00    -0.399 C  
HETATM   13  C   UNL     1      -9.234  13.315  66.925  1.00  0.00    -0.242 C  
HETATM   14  C   UNL     1      -9.929  14.206  65.881  1.00  0.00    -0.331 C  
HETATM   15  C   UNL     1      -9.969  13.441  68.269  1.00  0.00    -0.240 C  
ENDBRANCH   2   6
TORSDOF 1
ENDMDL
MODEL       13
REMARK 921   NORMALIZED FREE ENERGY PREDICTED BY IDOCK:   -4.75 KCAL/MOL
REMARK 922        TOTAL FREE ENERGY PREDICTED BY IDOCK:   -5.15 KCAL/MOL
REMARK 923 INTER-LIGAND FREE ENERGY PREDICTED BY IDOCK:   -5.03 KCAL/MOL
REMARK 924 INTRA-LIGAND FREE ENERGY PREDICTED BY IDOCK:   -0.12 KCAL/MOL
REMARK 927      BINDING AFFINITY PREDICTED BY RF-SCORE:    0.00 PKD
ROOT
HETATM    1  C   UNL     1     -12.215  13.833  64.046  1.00  0.00    -0.429 C  
HETATM    2  C   UNL     1     -11.207  14.906  64.478  1.00  0.00    -0.264 C  
HETATM    3  N   UNL     1     -11.668  16.196  63.946  1.00  0.00    -1.452 NA 
HETATM    4  H2  UNL     1     -12.624  16.418  64.221  1.00  0.00     0.000 HD 
HETATM    5  H1  UNL     1     -10.998  16.910  64.234  1.00  0.00     0.000 HD 
ENDROOT
BRANCH   2   6
HETATM    6  C   UNL     1     -10.939  14.966  66.020  1.00  0.00    -0.334 C  
HETATM    7  C   UNL     1      -9.562  14.326  66.360  1.00  0.00    -0.317 C  
HETATM    8  C   UNL     1      -9.262  14.410  67.867  1.00  0.00    -0.195 C  
HETATM    9  C   UNL     1      -9.235  15.882  68.301  1.00  0.00    -0.189 C  
HETATM   10  C   UNL     1     -10.593  16.536  68.009  1.00  0.00    -0.328 C  
HETATM   11  C   UNL     1     -11.693  15.793  68.783  1.00  0.00    -0.387 C  
HETATM   12  C   UNL     1     -10.886  16.449  66.502  1.00  0.00    -0.073 C  
HETATM   13  C   UNL     1     -11.730  14.318  68.356  1.00  0.00    -0.373 C  
HETATM   14  C   UNL     1     -12.029  14.230  66.850  1.00  0.00    -0.467 C  
HETATM   15  C   UNL     1     -10.365  13.671  68.641  1.00  0.00    -0.223 C  
ENDBRANCH   2   6
TORSDOF 1
ENDMDL
MODEL       14
REMARK 921   NORMALIZED FREE ENERGY PREDICTED BY IDOCK:   -4.71 KCAL/MOL
REMARK 922        TOTAL FREE ENERGY PREDICTED BY IDOCK:   -5.11 KCAL/MOL
REMARK 923 INTER-LIGAND FREE ENERGY PREDICTED BY IDOCK:   -4.98 KCAL/MOL
REMARK 924 INTRA-LIGAND FREE ENERGY PREDICTED BY IDOCK:   -0.13 KCAL/MOL
REMARK 927      BINDING AFFINITY PREDICTED BY RF-SCORE:    0.00 PKD
ROOT
HETATM    1  C   UNL     1     -14.349   7.404  71.480  1.00  0.00    -0.594 C  
HETATM    2  C   UNL     1     -13.383   8.553  71.798  1.00  0.00    -0.367 C  
HETATM    3  N   UNL     1     -13.727   9.075  73.127  1.00  0.00    -1.092 NA 
HETATM    4  H2  UNL     1     -13.731   8.352  73.847  1.00  0.00     0.000 HD 
HETATM    5  H1  UNL     1     -13.084   9.838  73.339  1.00  0.00     0.000 HD 
ENDROOT
BRANCH   2   6
HETATM    6  C   UNL     1     -11.867   8.180  71.685  1.00  0.00    -0.334 C  
HETATM    7  C   UNL     1     -11.334   7.645  73.046  1.00  0.00    -0.334 C  
HETATM    8  C   UNL     1      -9.854   7.235  72.946  1.00  0.00    -0.240 C  
HETATM    9  C   UNL     1      -9.701   6.127  71.895  1.00  0.00    -0.169 C  
HETATM   10  C   UNL     1     -10.188   6.634  70.530  1.00  0.00    -0.215 C  
HETATM   11  C   UNL     1      -9.355   7.856  70.113  1.00  0.00    -0.156 C  
HETATM   12  C   UNL     1     -11.667   7.042  70.637  1.00  0.00    -0.384 C  
HETATM   13  C   UNL     1      -9.500   8.972  71.159  1.00  0.00    -0.348 C  
HETATM   14  C   UNL     1     -10.979   9.384  71.262  1.00  0.00    -0.440 C  
HETATM   15  C   UNL     1      -9.021   8.456  72.526  1.00  0.00    -0.308 C  
ENDBRANCH   2   6
TORSDOF 1
ENDMDL
MODEL       15
REMARK 921   NORMALIZED FREE ENERGY PREDICTED BY IDOCK:   -4.68 KCAL/MOL
REMARK 922        TOTAL FREE ENERGY PREDICTED BY IDOCK:   -5.08 KCAL/MOL
REMARK 923 INTER-LIGAND FREE ENERGY PREDICTED BY IDOCK:   -4.96 KCAL/MOL
REMARK 924 INTRA-LIGAND FREE ENERGY PREDICTED BY IDOCK:   -0.12 KCAL/MOL
REMARK 927      BINDING AFFINITY PREDICTED BY RF-SCORE:    0.00 PKD
ROOT
HETATM    1  C   UNL     1     -14.410   7.162  71.680  1.00  0.00    -0.528 C  
HETATM    2  C   UNL     1     -13.482   8.374  71.841  1.00  0.00    -0.363 C  
HETATM    3  N   UNL     1     -13.699   8.930  73.183  1.00  0.00    -1.100 NA 
HETATM    4  H2  UNL     1     -13.578   8.239  73.923  1.00  0.00     0.000 HD 
HETATM    5  H1  UNL     1     -13.082   9.736  73.291  1.00  0.00     0.000 HD 
ENDROOT
BRANCH   2   6
HETATM    6  C   UNL     1     -11.970   8.079  71.563  1.00  0.00    -0.331 C  
HETATM    7  C   UNL     1     -11.254   9.354  71.029  1.00  0.00    -0.412 C  
HETATM    8  C   UNL     1      -9.757   9.096  70.787  1.00  0.00    -0.337 C  
HETATM    9  C   UNL     1      -9.090   8.680  72.105  1.00  0.00    -0.301 C  
HETATM   10  C   UNL     1      -9.752   7.403  72.643  1.00  0.00    -0.212 C  
HETATM   11  C   UNL     1      -9.597   6.275  71.610  1.00  0.00    -0.167 C  
HETATM   12  C   UNL     1     -11.248   7.668  72.883  1.00  0.00    -0.426 C  
HETATM   13  C   UNL     1     -10.261   6.682  70.286  1.00  0.00    -0.215 C  
HETATM   14  C   UNL     1     -11.758   6.941  70.525  1.00  0.00    -0.401 C  
HETATM   15  C   UNL     1      -9.602   7.966  69.758  1.00  0.00    -0.167 C  
ENDBRANCH   2   6
TORSDOF 1
ENDMDL
MODEL       16
REMARK 921   NORMALIZED FREE ENERGY PREDICTED BY IDOCK:   -4.67 KCAL/MOL
REMARK 922        TOTAL FREE ENERGY PREDICTED BY IDOCK:   -5.07 KCAL/MOL
REMARK 923 INTER-LIGAND FREE ENERGY PREDICTED BY IDOCK:   -4.94 KCAL/MOL
REMARK 924 INTRA-LIGAND FREE ENERGY PREDICTED BY IDOCK:   -0.13 KCAL/MOL
REMARK 927      BINDING AFFINITY PREDICTED BY RF-SCORE:    0.00 PKD
ROOT
HETATM    1  C   UNL     1     -14.411   7.162  71.679  1.00  0.00    -0.528 C  
HETATM    2  C   UNL     1     -13.465   8.359  71.842  1.00  0.00    -0.363 C  
HETATM    3  N   UNL     1     -13.679   8.921  73.182  1.00  0.00    -1.100 NA 
HETATM    4  H2  UNL     1     -13.572   8.229  73.923  1.00  0.00     0.000 HD 
HETATM    5  H1  UNL     1     -13.049   9.717  73.291  1.00  0.00     0.000 HD 
ENDROOT
BRANCH   2   6
HETATM    6  C   UNL     1     -11.956   8.039  71.571  1.00  0.00    -0.331 C  
HETATM    7  C   UNL     1     -11.820   6.804  70.633  1.00  0.00    -0.442 C  
HETATM    8  C   UNL     1     -10.345   6.497  70.322  1.00  0.00    -0.241 C  
HETATM    9  C   UNL     1      -9.705   7.707  69.629  1.00  0.00    -0.171 C  
HETATM   10  C   UNL     1      -9.793   8.938  70.543  1.00  0.00    -0.242 C  
HETATM   11  C   UNL     1      -9.052   8.648  71.858  1.00  0.00    -0.326 C  
HETATM   12  C   UNL     1     -11.270   9.240  70.850  1.00  0.00    -0.372 C  
HETATM   13  C   UNL     1      -9.684   7.437  72.561  1.00  0.00    -0.202 C  
HETATM   14  C   UNL     1     -11.159   7.741  72.872  1.00  0.00    -0.457 C  
HETATM   15  C   UNL     1      -9.603   6.211  71.637  1.00  0.00    -0.166 C  
ENDBRANCH   2   6
TORSDOF 1
ENDMDL
MODEL       17
REMARK 921   NORMALIZED FREE ENERGY PREDICTED BY IDOCK:   -4.66 KCAL/MOL
REMARK 922        TOTAL FREE ENERGY PREDICTED BY IDOCK:   -5.06 KCAL/MOL
REMARK 923 INTER-LIGAND FREE ENERGY PREDICTED BY IDOCK:   -4.93 KCAL/MOL
REMARK 924 INTRA-LIGAND FREE ENERGY PREDICTED BY IDOCK:   -0.14 KCAL/MOL
REMARK 927      BINDING AFFINITY PREDICTED BY RF-SCORE:    0.00 PKD
ROOT
HETATM    1  C   UNL     1     -10.630  15.490  65.149  1.00  0.00    -0.455 C  
HETATM    2  C   UNL     1      -9.925  15.677  66.499  1.00  0.00    -0.273 C  
HETATM    3  N   UNL     1      -8.662  14.928  66.453  1.00  0.00    -0.467 NA 
HETATM    4  H2  UNL     1      -8.075  15.189  65.661  1.00  0.00     0.000 HD 
HETATM    5  H1  UNL     1      -8.193  15.052  67.351  1.00  0.00     0.000 HD 
ENDROOT
BRANCH   2   6
HETATM    6  C   UNL     1      -9.710  17.169  66.921  1.00  0.00    -0.270 C  
HETATM    7  C   UNL     1      -8.200  17.541  66.859  1.00  0.00    -0.253 C  
HETATM    8  C   UNL     1      -7.971  19.017  67.233  1.00  0.00    -0.273 C  
HETATM    9  C   UNL     1      -8.734  19.917  66.251  1.00  0.00    -0.384 C  
HETATM   10  C   UNL     1     -10.235  19.597  66.311  1.00  0.00    -0.598 C  
HETATM   11  C   UNL     1     -10.751  19.840  67.738  1.00  0.00    -0.420 C  
HETATM   12  C   UNL     1     -10.457  18.122  65.937  1.00  0.00    -0.292 C  
HETATM   13  C   UNL     1      -9.993  18.944  68.730  1.00  0.00    -0.466 C  
HETATM   14  C   UNL     1     -10.219  17.469  68.359  1.00  0.00    -0.372 C  
HETATM   15  C   UNL     1      -8.490  19.261  68.658  1.00  0.00    -0.403 C  
ENDBRANCH   2   6
TORSDOF 1
ENDMDL
MODEL       18
REMARK 921   NORMALIZED FREE ENERGY PREDICTED BY IDOCK:   -4.61 KCAL/MOL
REMARK 922        TOTAL FREE ENERGY PREDICTED BY IDOCK:   -5.01 KCAL/MOL
REMARK 923 INTER-LIGAND FREE ENERGY PREDICTED BY IDOCK:   -4.88 KCAL/MOL
REMARK 924 INTRA-LIGAND FREE ENERGY PREDICTED BY IDOCK:   -0.13 KCAL/MOL
REMARK 927      BINDING AFFINITY PREDICTED BY RF-SCORE:    0.00 PKD
ROOT
HETATM    1  C   UNL     1     -13.275  10.572  71.694  1.00  0.00    -0.493 C  
HETATM    2  C   UNL     1     -12.913   9.325  72.511  1.00  0.00    -0.313 C  
HETATM    3  N   UNL     1     -14.162   8.621  72.833  1.00  0.00    -1.040 NA 
HETATM    4  H2  UNL     1     -14.718   8.404  72.007  1.00  0.00     0.000 HD 
HETATM    5  H1  UNL     1     -13.921   7.791  73.376  1.00  0.00     0.000 HD 
ENDROOT
BRANCH   2   6
HETATM    6  C   UNL     1     -11.863   8.383  71.832  1.00  0.00    -0.398 C  
HETATM    7  C   UNL     1     -11.034   9.165  70.772  1.00  0.00    -0.332 C  
HETATM    8  C   UNL     1      -9.968   8.266  70.120  1.00  0.00    -0.187 C  
HETATM    9  C   UNL     1      -9.010   7.743  71.199  1.00  0.00    -0.146 C  
HETATM   10  C   UNL     1      -9.794   6.937  72.245  1.00  0.00    -0.163 C  
HETATM   11  C   UNL     1     -10.489   5.752  71.558  1.00  0.00    -0.291 C  
HETATM   12  C   UNL     1     -10.856   7.841  72.893  1.00  0.00    -0.453 C  
HETATM   13  C   UNL     1     -11.451   6.264  70.474  1.00  0.00    -0.407 C  
HETATM   14  C   UNL     1     -12.517   7.163  71.123  1.00  0.00    -0.400 C  
HETATM   15  C   UNL     1     -10.663   7.078  69.436  1.00  0.00    -0.259 C  
ENDBRANCH   2   6
TORSDOF 1
ENDMDL
MODEL       19
REMARK 921   NORMALIZED FREE ENERGY PREDICTED BY IDOCK:   -4.60 KCAL/MOL
REMARK 922        TOTAL FREE ENERGY PREDICTED BY IDOCK:   -4.99 KCAL/MOL
REMARK 923 INTER-LIGAND FREE ENERGY PREDICTED BY IDOCK:   -4.86 KCAL/MOL
REMARK 924 INTRA-LIGAND FREE ENERGY PREDICTED BY IDOCK:   -0.13 KCAL/MOL
REMARK 927      BINDING AFFINITY PREDICTED BY RF-SCORE:    0.00 PKD
ROOT
HETATM    1  C   UNL     1      -8.334  16.709  66.207  1.00  0.00    -0.360 C  
HETATM    2  C   UNL     1      -9.855  16.723  66.410  1.00  0.00    -0.297 C  
HETATM    3  N   UNL     1     -10.403  17.836  65.623  1.00  0.00    -0.635 NA 
HETATM    4  H2  UNL     1     -10.135  17.795  64.640  1.00  0.00     0.000 HD 
HETATM    5  H1  UNL     1     -11.414  17.845  65.756  1.00  0.00     0.000 HD 
ENDROOT
BRANCH   2   6
HETATM    6  C   UNL     1     -10.568  15.366  66.087  1.00  0.00    -0.321 C  
HETATM    7  C   UNL     1     -11.312  15.452  64.722  1.00  0.00    -0.381 C  
HETATM    8  C   UNL     1     -11.987  14.115  64.368  1.00  0.00    -0.478 C  
HETATM    9  C   UNL     1     -10.922  13.014  64.274  1.00  0.00    -0.427 C  
HETATM   10  C   UNL     1     -10.191  12.880  65.618  1.00  0.00    -0.295 C  
HETATM   11  C   UNL     1     -11.204  12.523  66.716  1.00  0.00    -0.347 C  
HETATM   12  C   UNL     1      -9.518  14.219  65.966  1.00  0.00    -0.213 C  
HETATM   13  C   UNL     1     -12.276  13.619  66.819  1.00  0.00    -0.416 C  
HETATM   14  C   UNL     1     -11.604  14.956  67.172  1.00  0.00    -0.327 C  
HETATM   15  C   UNL     1     -12.997  13.755  65.468  1.00  0.00    -0.363 C  
ENDBRANCH   2   6
TORSDOF 1
ENDMDL
MODEL       20
REMARK 921   NORMALIZED FREE ENERGY PREDICTED BY IDOCK:   -4.58 KCAL/MOL
REMARK 922        TOTAL FREE ENERGY PREDICTED BY IDOCK:   -4.98 KCAL/MOL
REMARK 923 INTER-LIGAND FREE ENERGY PREDICTED BY IDOCK:   -4.85 KCAL/MOL
REMARK 924 INTRA-LIGAND FREE ENERGY PREDICTED BY IDOCK:   -0.13 KCAL/MOL
REMARK 927      BINDING AFFINITY PREDICTED BY RF-SCORE:    0.00 PKD
ROOT
HETATM    1  C   UNL     1      -8.323  16.712  66.210  1.00  0.00    -0.360 C  
HETATM    2  C   UNL     1      -9.844  16.676  66.408  1.00  0.00    -0.292 C  
HETATM    3  N   UNL     1     -10.423  17.783  65.634  1.00  0.00    -0.628 NA 
HETATM    4  H2  UNL     1     -10.152  17.763  64.651  1.00  0.00     0.000 HD 
HETATM    5  H1  UNL     1     -11.435  17.759  65.765  1.00  0.00     0.000 HD 
ENDROOT
BRANCH   2   6
HETATM    6  C   UNL     1     -10.514  15.303  66.065  1.00  0.00    -0.328 C  
HETATM    7  C   UNL     1      -9.457  14.160  66.091  1.00  0.00    -0.229 C  
HETATM    8  C   UNL     1     -10.103  12.794  65.795  1.00  0.00    -0.296 C  
HETATM    9  C   UNL     1     -11.171  12.494  66.855  1.00  0.00    -0.354 C  
HETATM   10  C   UNL     1     -12.248  13.588  66.834  1.00  0.00    -0.377 C  
HETATM   11  C   UNL     1     -12.902  13.632  65.444  1.00  0.00    -0.440 C  
HETATM   12  C   UNL     1     -11.597  14.949  67.130  1.00  0.00    -0.327 C  
HETATM   13  C   UNL     1     -11.841  13.932  64.374  1.00  0.00    -0.456 C  
HETATM   14  C   UNL     1     -11.194  15.296  64.667  1.00  0.00    -0.366 C  
HETATM   15  C   UNL     1     -10.760  12.840  64.407  1.00  0.00    -0.398 C  
ENDBRANCH   2   6
TORSDOF 1
ENDMDL
MODEL       21
REMARK 921   NORMALIZED FREE ENERGY PREDICTED BY IDOCK:   -4.58 KCAL/MOL
REMARK 922        TOTAL FREE ENERGY PREDICTED BY IDOCK:   -4.97 KCAL/MOL
REMARK 923 INTER-LIGAND FREE ENERGY PREDICTED BY IDOCK:   -4.85 KCAL/MOL
REMARK 924 INTRA-LIGAND FREE ENERGY PREDICTED BY IDOCK:   -0.12 KCAL/MOL
REMARK 927      BINDING AFFINITY PREDICTED BY RF-SCORE:    0.00 PKD
ROOT
HETATM    1  C   UNL     1     -11.699  11.988  69.345  1.00  0.00    -0.402 C  
HETATM    2  C   UNL     1     -10.573  12.686  68.571  1.00  0.00    -0.243 C  
HETATM    3  N   UNL     1      -9.358  11.871  68.715  1.00  0.00    -0.395 NA 
HETATM    4  H2  UNL     1      -9.495  10.903  68.426  1.00  0.00     0.000 HD 
HETATM    5  H1  UNL     1      -8.609  12.334  68.200  1.00  0.00     0.000 HD 
ENDROOT
BRANCH   2   6
HETATM    6  C   UNL     1     -10.904  12.991  67.071  1.00  0.00    -0.278 C  
HETATM    7  C   UNL     1     -11.003  11.669  66.255  1.00  0.00    -0.338 C  
HETATM    8  C   UNL     1     -11.368  11.945  64.785  1.00  0.00    -0.344 C  
HETATM    9  C   UNL     1     -12.723  12.660  64.720  1.00  0.00    -0.460 C  
HETATM   10  C   UNL     1     -12.650  13.987  65.490  1.00  0.00    -0.543 C  
HETATM   11  C   UNL     1     -11.567  14.880  64.863  1.00  0.00    -0.395 C  
HETATM   12  C   UNL     1     -12.286  13.705  66.957  1.00  0.00    -0.373 C  
HETATM   13  C   UNL     1     -10.204  14.173  64.922  1.00  0.00    -0.371 C  
HETATM   14  C   UNL     1      -9.838  13.895  66.390  1.00  0.00    -0.304 C  
HETATM   15  C   UNL     1     -10.287  12.841  64.160  1.00  0.00    -0.401 C  
ENDBRANCH   2   6
TORSDOF 1
ENDMDL
MODEL       22
REMARK 921   NORMALIZED FREE ENERGY PREDICTED BY IDOCK:   -4.54 KCAL/MOL
REMARK 922        TOTAL FREE ENERGY PREDICTED BY IDOCK:   -4.93 KCAL/MOL
REMARK 923 INTER-LIGAND FREE ENERGY PREDICTED BY IDOCK:   -4.81 KCAL/MOL
REMARK 924 INTRA-LIGAND FREE ENERGY PREDICTED BY IDOCK:   -0.13 KCAL/MOL
REMARK 927      BINDING AFFINITY PREDICTED BY RF-SCORE:    0.00 PKD
ROOT
HETATM    1  C   UNL     1      -9.942  17.304  65.894  1.00  0.00    -0.191 C  
HETATM    2  C   UNL     1     -11.103  16.391  65.482  1.00  0.00     0.007 C  
HETATM    3  N   UNL     1     -11.320  16.564  64.039  1.00  0.00    -1.559 NA 
HETATM    4  H2  UNL     1     -10.477  16.403  63.490  1.00  0.00     0.000 HD 
HETATM    5  H1  UNL     1     -12.093  15.956  63.764  1.00  0.00     0.000 HD 
ENDROOT
BRANCH   2   6
HETATM    6  C   UNL     1     -10.920  14.885  65.873  1.00  0.00    -0.338 C  
HETATM    7  C   UNL     1     -12.010  14.452  66.897  1.00  0.00    -0.425 C  
HETATM    8  C   UNL     1     -11.872  12.964  67.265  1.00  0.00    -0.416 C  
HETATM    9  C   UNL     1     -12.024  12.108  66.000  1.00  0.00    -0.236 C  
HETATM   10  C   UNL     1     -10.941  12.489  64.980  1.00  0.00    -0.329 C  
HETATM   11  C   UNL     1      -9.554  12.251  65.597  1.00  0.00    -0.148 C  
HETATM   12  C   UNL     1     -11.085  13.976  64.616  1.00  0.00    -0.387 C  
HETATM   13  C   UNL     1      -9.391  13.103  66.866  1.00  0.00    -0.246 C  
HETATM   14  C   UNL     1      -9.529  14.590  66.501  1.00  0.00    -0.310 C  
HETATM   15  C   UNL     1     -10.483  12.725  67.878  1.00  0.00    -0.226 C  
ENDBRANCH   2   6
TORSDOF 1
ENDMDL
MODEL       23
REMARK 921   NORMALIZED FREE ENERGY PREDICTED BY IDOCK:   -4.49 KCAL/MOL
REMARK 922        TOTAL FREE ENERGY PREDICTED BY IDOCK:   -4.88 KCAL/MOL
REMARK 923 INTER-LIGAND FREE ENERGY PREDICTED BY IDOCK:   -4.76 KCAL/MOL
REMARK 924 INTRA-LIGAND FREE ENERGY PREDICTED BY IDOCK:   -0.12 KCAL/MOL
REMARK 927      BINDING AFFINITY PREDICTED BY RF-SCORE:    0.00 PKD
ROOT
HETATM    1  C   UNL     1     -11.573  11.813  69.295  1.00  0.00    -0.378 C  
HETATM    2  C   UNL     1     -10.590  12.764  68.600  1.00  0.00    -0.233 C  
HETATM    3  N   UNL     1      -9.242  12.200  68.743  1.00  0.00    -0.398 NA 
HETATM    4  H2  UNL     1      -9.174  11.243  68.399  1.00  0.00     0.000 HD 
HETATM    5  H1  UNL     1      -8.588  12.833  68.281  1.00  0.00     0.000 HD 
ENDROOT
BRANCH   2   6
HETATM    6  C   UNL     1     -10.940  13.086  67.108  1.00  0.00    -0.293 C  
HETATM    7  C   UNL     1      -9.809  13.933  66.453  1.00  0.00    -0.304 C  
HETATM    8  C   UNL     1     -10.114  14.226  64.974  1.00  0.00    -0.324 C  
HETATM    9  C   UNL     1     -10.238  12.904  64.205  1.00  0.00    -0.337 C  
HETATM   10  C   UNL     1     -11.369  12.056  64.806  1.00  0.00    -0.369 C  
HETATM   11  C   UNL     1     -12.693  12.832  64.710  1.00  0.00    -0.469 C  
HETATM   12  C   UNL     1     -11.058  11.766  66.284  1.00  0.00    -0.364 C  
HETATM   13  C   UNL     1     -12.580  14.159  65.477  1.00  0.00    -0.501 C  
HETATM   14  C   UNL     1     -12.274  13.869  66.956  1.00  0.00    -0.392 C  
HETATM   15  C   UNL     1     -11.440  14.998  64.878  1.00  0.00    -0.399 C  
ENDBRANCH   2   6
TORSDOF 1
ENDMDL
MODEL       24
REMARK 921   NORMALIZED FREE ENERGY PREDICTED BY IDOCK:   -4.48 KCAL/MOL
REMARK 922        TOTAL FREE ENERGY PREDICTED BY IDOCK:   -4.87 KCAL/MOL
REMARK 923 INTER-LIGAND FREE ENERGY PREDICTED BY IDOCK:   -4.73 KCAL/MOL
REMARK 924 INTRA-LIGAND FREE ENERGY PREDICTED BY IDOCK:   -0.13 KCAL/MOL
REMARK 927      BINDING AFFINITY PREDICTED BY RF-SCORE:    0.00 PKD
ROOT
HETATM    1  C   UNL     1      -9.315  10.367  68.042  1.00  0.00    -0.145 C  
HETATM    2  C   UNL     1     -10.678  10.510  67.352  1.00  0.00    -0.281 C  
HETATM    3  N   UNL     1     -11.715  10.149  68.327  1.00  0.00    -0.681 NA 
HETATM    4  H2  UNL     1     -11.651  10.686  69.191  1.00  0.00     0.000 HD 
HETATM    5  H1  UNL     1     -12.621  10.244  67.869  1.00  0.00     0.000 HD 
ENDROOT
BRANCH   2   6
HETATM    6  C   UNL     1     -10.938  11.913  66.708  1.00  0.00    -0.337 C  
HETATM    7  C   UNL     1     -11.893  12.756  67.602  1.00  0.00    -0.396 C  
HETATM    8  C   UNL     1     -12.131  14.155  67.006  1.00  0.00    -0.449 C  
HETATM    9  C   UNL     1     -10.792  14.895  66.893  1.00  0.00    -0.319 C  
HETATM   10  C   UNL     1      -9.834  14.106  65.988  1.00  0.00    -0.329 C  
HETATM   11  C   UNL     1     -10.459  13.958  64.592  1.00  0.00    -0.419 C  
HETATM   12  C   UNL     1      -9.601  12.709  66.589  1.00  0.00    -0.249 C  
HETATM   13  C   UNL     1     -11.802  13.217  64.694  1.00  0.00    -0.417 C  
HETATM   14  C   UNL     1     -11.568  11.819  65.290  1.00  0.00    -0.193 C  
HETATM   15  C   UNL     1     -12.752  14.006  65.609  1.00  0.00    -0.515 C  
ENDBRANCH   2   6
TORSDOF 1
ENDMDL
MODEL       25
REMARK 921   NORMALIZED FREE ENERGY PREDICTED BY IDOCK:   -4.48 KCAL/MOL
REMARK 922        TOTAL FREE ENERGY PREDICTED BY IDOCK:   -4.86 KCAL/MOL
REMARK 923 INTER-LIGAND FREE ENERGY PREDICTED BY IDOCK:   -4.74 KCAL/MOL
REMARK 924 INTRA-LIGAND FREE ENERGY PREDICTED BY IDOCK:   -0.12 KCAL/MOL
REMARK 927      BINDING AFFINITY PREDICTED BY RF-SCORE:    0.00 PKD
ROOT
HETATM    1  C   UNL     1      -9.539  10.432  64.542  1.00  0.00    -0.369 C  
HETATM    2  C   UNL     1      -9.347  11.295  65.796  1.00  0.00    -0.223 C  
HETATM    3  N   UNL     1      -7.913  11.587  65.925  1.00  0.00    -0.361 NA 
HETATM    4  H2  UNL     1      -7.520  12.015  65.087  1.00  0.00     0.000 HD 
HETATM    5  H1  UNL     1      -7.785  12.162  66.759  1.00  0.00     0.000 HD 
ENDROOT
BRANCH   2   6
HETATM    6  C   UNL     1     -10.220  12.595  65.833  1.00  0.00    -0.290 C  
HETATM    7  C   UNL     1     -11.547  12.339  66.606  1.00  0.00    -0.438 C  
HETATM    8  C   UNL     1     -12.402  13.616  66.688  1.00  0.00    -0.381 C  
HETATM    9  C   UNL     1     -11.615  14.712  67.420  1.00  0.00    -0.408 C  
HETATM   10  C   UNL     1     -10.313  15.012  66.664  1.00  0.00    -0.278 C  
HETATM   11  C   UNL     1     -10.648  15.484  65.241  1.00  0.00    -0.446 C  
HETATM   12  C   UNL     1      -9.463  13.732  66.586  1.00  0.00    -0.289 C  
HETATM   13  C   UNL     1     -11.436  14.394  64.498  1.00  0.00    -0.352 C  
HETATM   14  C   UNL     1     -10.584  13.117  64.415  1.00  0.00    -0.441 C  
HETATM   15  C   UNL     1     -12.733  14.091  65.264  1.00  0.00    -0.468 C  
ENDBRANCH   2   6
TORSDOF 1
ENDMDL
MODEL       26
REMARK 921   NORMALIZED FREE ENERGY PREDICTED BY IDOCK:   -4.47 KCAL/MOL
REMARK 922        TOTAL FREE ENERGY PREDICTED BY IDOCK:   -4.86 KCAL/MOL
REMARK 923 INTER-LIGAND FREE ENERGY PREDICTED BY IDOCK:   -4.73 KCAL/MOL
REMARK 924 INTRA-LIGAND FREE ENERGY PREDICTED BY IDOCK:   -0.14 KCAL/MOL
REMARK 927      BINDING AFFINITY PREDICTED BY RF-SCORE:    0.00 PKD
ROOT
HETATM    1  C   UNL     1      -5.982  20.920  66.074  1.00  0.00    -0.287 C  
HETATM    2  C   UNL     1      -7.046  20.059  65.381  1.00  0.00    -0.278 C  
HETATM    3  N   UNL     1      -6.350  19.026  64.602  1.00  0.00    -0.478 NA 
HETATM    4  H2  UNL     1      -5.702  18.476  65.165  1.00  0.00     0.000 HD 
HETATM    5  H1  UNL     1      -7.058  18.453  64.142  1.00  0.00     0.000 HD 
ENDROOT
BRANCH   2   6
HETATM    6  C   UNL     1      -8.119  19.448  66.344  1.00  0.00    -0.329 C  
HETATM    7  C   UNL     1      -8.066  17.893  66.304  1.00  0.00    -0.266 C  
HETATM    8  C   UNL     1      -9.087  17.273  67.274  1.00  0.00    -0.231 C  
HETATM    9  C   UNL     1      -8.777  17.733  68.705  1.00  0.00    -0.260 C  
HETATM   10  C   UNL     1      -8.853  19.264  68.787  1.00  0.00    -0.387 C  
HETATM   11  C   UNL     1     -10.265  19.726  68.394  1.00  0.00    -0.568 C  
HETATM   12  C   UNL     1      -7.831  19.878  67.816  1.00  0.00    -0.329 C  
HETATM   13  C   UNL     1     -10.587  19.270  66.962  1.00  0.00    -0.571 C  
HETATM   14  C   UNL     1      -9.568  19.888  65.990  1.00  0.00    -0.435 C  
HETATM   15  C   UNL     1     -10.498  17.737  66.883  1.00  0.00    -0.308 C  
ENDBRANCH   2   6
TORSDOF 1
ENDMDL
MODEL       27
REMARK 921   NORMALIZED FREE ENERGY PREDICTED BY IDOCK:   -4.44 KCAL/MOL
REMARK 922        TOTAL FREE ENERGY PREDICTED BY IDOCK:   -4.83 KCAL/MOL
REMARK 923 INTER-LIGAND FREE ENERGY PREDICTED BY IDOCK:   -4.70 KCAL/MOL
REMARK 924 INTRA-LIGAND FREE ENERGY PREDICTED BY IDOCK:   -0.13 KCAL/MOL
REMARK 927      BINDING AFFINITY PREDICTED BY RF-SCORE:    0.00 PKD
ROOT
HETATM    1  C   UNL     1      -9.768  10.233  64.645  1.00  0.00    -0.398 C  
HETATM    2  C   UNL     1      -9.414  11.145  65.827  1.00  0.00    -0.221 C  
HETATM    3  N   UNL     1      -7.964  11.375  65.799  1.00  0.00    -0.365 NA 
HETATM    4  H2  UNL     1      -7.639  11.743  64.905  1.00  0.00     0.000 HD 
HETATM    5  H1  UNL     1      -7.728  11.982  66.585  1.00  0.00     0.000 HD 
ENDROOT
BRANCH   2   6
HETATM    6  C   UNL     1     -10.223  12.486  65.882  1.00  0.00    -0.280 C  
HETATM    7  C   UNL     1     -10.593  12.957  64.446  1.00  0.00    -0.418 C  
HETATM    8  C   UNL     1     -11.423  14.253  64.479  1.00  0.00    -0.363 C  
HETATM    9  C   UNL     1     -12.720  14.010  65.261  1.00  0.00    -0.468 C  
HETATM   10  C   UNL     1     -12.389  13.574  66.696  1.00  0.00    -0.351 C  
HETATM   11  C   UNL     1     -11.572  14.676  67.387  1.00  0.00    -0.408 C  
HETATM   12  C   UNL     1     -11.561  12.278  66.656  1.00  0.00    -0.438 C  
HETATM   13  C   UNL     1     -10.270  14.928  66.612  1.00  0.00    -0.264 C  
HETATM   14  C   UNL     1      -9.439  13.635  66.576  1.00  0.00    -0.270 C  
HETATM   15  C   UNL     1     -10.607  15.354  65.174  1.00  0.00    -0.458 C  
ENDBRANCH   2   6
TORSDOF 1
ENDMDL
MODEL       28
REMARK 921   NORMALIZED FREE ENERGY PREDICTED BY IDOCK:   -4.42 KCAL/MOL
REMARK 922        TOTAL FREE ENERGY PREDICTED BY IDOCK:   -4.81 KCAL/MOL
REMARK 923 INTER-LIGAND FREE ENERGY PREDICTED BY IDOCK:   -4.68 KCAL/MOL
REMARK 924 INTRA-LIGAND FREE ENERGY PREDICTED BY IDOCK:   -0.13 KCAL/MOL
REMARK 927      BINDING AFFINITY PREDICTED BY RF-SCORE:    0.00 PKD
ROOT
HETATM    1  C   UNL     1     -10.397  17.670  67.612  1.00  0.00    -0.368 C  
HETATM    2  C   UNL     1     -10.113  17.124  66.207  1.00  0.00    -0.320 C  
HETATM    3  N   UNL     1      -8.671  17.254  65.958  1.00  0.00    -0.534 NA 
HETATM    4  H2  UNL     1      -8.103  16.807  66.678  1.00  0.00     0.000 HD 
HETATM    5  H1  UNL     1      -8.481  16.890  65.023  1.00  0.00     0.000 HD 
ENDROOT
BRANCH   2   6
HETATM    6  C   UNL     1     -10.626  15.666  65.958  1.00  0.00    -0.336 C  
HETATM    7  C   UNL     1     -11.553  15.208  67.121  1.00  0.00    -0.206 C  
HETATM    8  C   UNL     1     -12.100  13.791  66.876  1.00  0.00    -0.454 C  
HETATM    9  C   UNL     1     -12.910  13.774  65.573  1.00  0.00    -0.464 C  
HETATM   10  C   UNL     1     -12.014  14.190  64.397  1.00  0.00    -0.478 C  
HETATM   11  C   UNL     1     -10.836  13.209  64.283  1.00  0.00    -0.430 C  
HETATM   12  C   UNL     1     -11.471  15.607  64.648  1.00  0.00    -0.306 C  
HETATM   13  C   UNL     1     -10.018  13.218  65.584  1.00  0.00    -0.242 C  
HETATM   14  C   UNL     1      -9.470  14.634  65.831  1.00  0.00    -0.238 C  
HETATM   15  C   UNL     1     -10.922  12.811  66.758  1.00  0.00    -0.301 C  
ENDBRANCH   2   6
TORSDOF 1
ENDMDL
MODEL       29
REMARK 921   NORMALIZED FREE ENERGY PREDICTED BY IDOCK:   -4.42 KCAL/MOL
REMARK 922        TOTAL FREE ENERGY PREDICTED BY IDOCK:   -4.81 KCAL/MOL
REMARK 923 INTER-LIGAND FREE ENERGY PREDICTED BY IDOCK:   -4.69 KCAL/MOL
REMARK 924 INTRA-LIGAND FREE ENERGY PREDICTED BY IDOCK:   -0.12 KCAL/MOL
REMARK 927      BINDING AFFINITY PREDICTED BY RF-SCORE:    0.00 PKD
ROOT
HETATM    1  C   UNL     1     -11.762  12.100  69.316  1.00  0.00    -0.386 C  
HETATM    2  C   UNL     1     -10.633  12.727  68.488  1.00  0.00    -0.252 C  
HETATM    3  N   UNL     1      -9.430  11.905  68.675  1.00  0.00    -0.364 NA 
HETATM    4  H2  UNL     1      -9.583  10.922  68.454  1.00  0.00     0.000 HD 
HETATM    5  H1  UNL     1      -8.678  12.322  68.125  1.00  0.00     0.000 HD 
ENDROOT
BRANCH   2   6
HETATM    6  C   UNL     1     -10.973  12.937  66.974  1.00  0.00    -0.290 C  
HETATM    7  C   UNL     1     -12.349  13.648  66.818  1.00  0.00    -0.354 C  
HETATM    8  C   UNL     1     -12.685  13.899  65.337  1.00  0.00    -0.525 C  
HETATM    9  C   UNL     1     -11.603  14.790  64.712  1.00  0.00    -0.418 C  
HETATM   10  C   UNL     1     -10.235  14.102  64.820  1.00  0.00    -0.311 C  
HETATM   11  C   UNL     1     -10.282  12.756  64.080  1.00  0.00    -0.344 C  
HETATM   12  C   UNL     1      -9.905  13.854  66.302  1.00  0.00    -0.318 C  
HETATM   13  C   UNL     1     -11.362  11.855  64.698  1.00  0.00    -0.355 C  
HETATM   14  C   UNL     1     -11.030  11.603  66.178  1.00  0.00    -0.339 C  
HETATM   15  C   UNL     1     -12.728  12.554  64.596  1.00  0.00    -0.434 C  
ENDBRANCH   2   6
TORSDOF 1
ENDMDL
MODEL       30
REMARK 921   NORMALIZED FREE ENERGY PREDICTED BY IDOCK:   -4.42 KCAL/MOL
REMARK 922        TOTAL FREE ENERGY PREDICTED BY IDOCK:   -4.80 KCAL/MOL
REMARK 923 INTER-LIGAND FREE ENERGY PREDICTED BY IDOCK:   -4.67 KCAL/MOL
REMARK 924 INTRA-LIGAND FREE ENERGY PREDICTED BY IDOCK:   -0.13 KCAL/MOL
REMARK 927      BINDING AFFINITY PREDICTED BY RF-SCORE:    0.00 PKD
ROOT
HETATM    1  C   UNL     1      -9.547  10.572  64.034  1.00  0.00    -0.367 C  
HETATM    2  C   UNL     1      -9.485  11.182  65.441  1.00  0.00    -0.222 C  
HETATM    3  N   UNL     1      -8.071  11.388  65.779  1.00  0.00    -0.369 NA 
HETATM    4  H2  UNL     1      -7.575  11.945  65.085  1.00  0.00     0.000 HD 
HETATM    5  H1  UNL     1      -8.029  11.794  66.715  1.00  0.00     0.000 HD 
ENDROOT
BRANCH   2   6
HETATM    6  C   UNL     1     -10.331  12.488  65.623  1.00  0.00    -0.294 C  
HETATM    7  C   UNL     1      -9.451  13.630  66.210  1.00  0.00    -0.209 C  
HETATM    8  C   UNL     1     -10.254  14.934  66.361  1.00  0.00    -0.292 C  
HETATM    9  C   UNL     1     -10.772  15.377  64.986  1.00  0.00    -0.460 C  
HETATM   10  C   UNL     1     -11.672  14.284  64.391  1.00  0.00    -0.405 C  
HETATM   11  C   UNL     1     -12.861  14.036  65.333  1.00  0.00    -0.442 C  
HETATM   12  C   UNL     1     -10.864  12.983  64.244  1.00  0.00    -0.430 C  
HETATM   13  C   UNL     1     -12.354  13.593  66.714  1.00  0.00    -0.354 C  
HETATM   14  C   UNL     1     -11.551  12.289  66.567  1.00  0.00    -0.440 C  
HETATM   15  C   UNL     1     -11.445  14.686  67.298  1.00  0.00    -0.386 C  
ENDBRANCH   2   6
TORSDOF 1
ENDMDL
MODEL       31
REMARK 921   NORMALIZED FREE ENERGY PREDICTED BY IDOCK:   -4.38 KCAL/MOL
REMARK 922        TOTAL FREE ENERGY PREDICTED BY IDOCK:   -4.77 KCAL/MOL
REMARK 923 INTER-LIGAND FREE ENERGY PREDICTED BY IDOCK:   -4.64 KCAL/MOL
REMARK 924 INTRA-LIGAND FREE ENERGY PREDICTED BY IDOCK:   -0.13 KCAL/MOL
REMARK 927      BINDING AFFINITY PREDICTED BY RF-SCORE:    0.00 PKD
ROOT
HETATM    1  C   UNL     1     -12.278  12.848  70.604  1.00  0.00    -0.386 C  
HETATM    2  C   UNL     1     -11.805  14.027  69.744  1.00  0.00    -0.324 C  
HETATM    3  N   UNL     1     -10.700  14.685  70.453  1.00  0.00    -0.473 NA 
HETATM    4  H2  UNL     1      -9.945  14.043  70.693  1.00  0.00     0.000 HD 
HETATM    5  H1  UNL     1     -10.385  15.470  69.881  1.00  0.00     0.000 HD 
ENDROOT
BRANCH   2   6
HETATM    6  C   UNL     1     -11.420  13.649  68.274  1.00  0.00    -0.348 C  
HETATM    7  C   UNL     1     -12.150  14.579  67.262  1.00  0.00    -0.298 C  
HETATM    8  C   UNL     1     -11.754  14.250  65.812  1.00  0.00    -0.359 C  
HETATM    9  C   UNL     1     -10.241  14.437  65.640  1.00  0.00    -0.371 C  
HETATM   10  C   UNL     1      -9.488  13.508  66.603  1.00  0.00    -0.271 C  
HETATM   11  C   UNL     1      -9.863  12.049  66.299  1.00  0.00    -0.250 C  
HETATM   12  C   UNL     1      -9.888  13.842  68.050  1.00  0.00    -0.234 C  
HETATM   13  C   UNL     1     -11.377  11.849  66.468  1.00  0.00    -0.403 C  
HETATM   14  C   UNL     1     -11.775  12.178  67.916  1.00  0.00    -0.403 C  
HETATM   15  C   UNL     1     -12.125  12.790  65.509  1.00  0.00    -0.517 C  
ENDBRANCH   2   6
TORSDOF 1
ENDMDL
MODEL       32
REMARK 921   NORMALIZED FREE ENERGY PREDICTED BY IDOCK:   -4.36 KCAL/MOL
REMARK 922        TOTAL FREE ENERGY PREDICTED BY IDOCK:   -4.74 KCAL/MOL
REMARK 923 INTER-LIGAND FREE ENERGY PREDICTED BY IDOCK:   -4.61 KCAL/MOL
REMARK 924 INTRA-LIGAND FREE ENERGY PREDICTED BY IDOCK:   -0.13 KCAL/MOL
REMARK 927      BINDING AFFINITY PREDICTED BY RF-SCORE:    0.00 PKD
ROOT
HETATM    1  C   UNL     1     -12.241  12.908  70.559  1.00  0.00    -0.395 C  
HETATM    2  C   UNL     1     -11.854  14.080  69.648  1.00  0.00    -0.330 C  
HETATM    3  N   UNL     1     -10.851  14.887  70.356  1.00  0.00    -0.486 NA 
HETATM    4  H2  UNL     1     -10.046  14.340  70.660  1.00  0.00     0.000 HD 
HETATM    5  H1  UNL     1     -10.593  15.666  69.750  1.00  0.00     0.000 HD 
ENDROOT
BRANCH   2   6
HETATM    6  C   UNL     1     -11.372  13.663  68.218  1.00  0.00    -0.322 C  
HETATM    7  C   UNL     1     -11.665  12.156  67.962  1.00  0.00    -0.409 C  
HETATM    8  C   UNL     1     -11.235  11.734  66.545  1.00  0.00    -0.380 C  
HETATM    9  C   UNL     1     -12.006  12.563  65.509  1.00  0.00    -0.500 C  
HETATM   10  C   UNL     1     -11.712  14.056  65.713  1.00  0.00    -0.368 C  
HETATM   11  C   UNL     1     -10.205  14.306  65.551  1.00  0.00    -0.379 C  
HETATM   12  C   UNL     1     -12.145  14.471  67.130  1.00  0.00    -0.301 C  
HETATM   13  C   UNL     1      -9.422  13.480  66.585  1.00  0.00    -0.271 C  
HETATM   14  C   UNL     1      -9.851  13.899  68.001  1.00  0.00    -0.234 C  
HETATM   15  C   UNL     1      -9.728  11.988  66.382  1.00  0.00    -0.239 C  
ENDBRANCH   2   6
TORSDOF 1
ENDMDL
MODEL       33
REMARK 921   NORMALIZED FREE ENERGY PREDICTED BY IDOCK:   -4.33 KCAL/MOL
REMARK 922        TOTAL FREE ENERGY PREDICTED BY IDOCK:   -4.71 KCAL/MOL
REMARK 923 INTER-LIGAND FREE ENERGY PREDICTED BY IDOCK:   -4.59 KCAL/MOL
REMARK 924 INTRA-LIGAND FREE ENERGY PREDICTED BY IDOCK:   -0.13 KCAL/MOL
REMARK 927      BINDING AFFINITY PREDICTED BY RF-SCORE:    0.00 PKD
ROOT
HETATM    1  C   UNL     1      -9.056  10.362  67.905  1.00  0.00    -0.132 C  
HETATM    2  C   UNL     1     -10.398  10.469  67.168  1.00  0.00    -0.235 C  
HETATM    3  N   UNL     1     -11.436   9.906  68.042  1.00  0.00    -0.581 NA 
HETATM    4  H2  UNL     1     -11.456  10.341  68.964  1.00  0.00     0.000 HD 
HETATM    5  H1  UNL     1     -12.328   9.978  67.552  1.00  0.00     0.000 HD 
ENDROOT
BRANCH   2   6
HETATM    6  C   UNL     1     -10.759  11.912  66.678  1.00  0.00    -0.291 C  
HETATM    7  C   UNL     1      -9.471  12.771  66.516  1.00  0.00    -0.253 C  
HETATM    8  C   UNL     1      -9.801  14.182  65.997  1.00  0.00    -0.329 C  
HETATM    9  C   UNL     1     -10.489  14.075  64.629  1.00  0.00    -0.398 C  
HETATM   10  C   UNL     1     -11.784  13.259  64.760  1.00  0.00    -0.390 C  
HETATM   11  C   UNL     1     -12.725  13.954  65.756  1.00  0.00    -0.503 C  
HETATM   12  C   UNL     1     -11.447  11.851  65.279  1.00  0.00    -0.313 C  
HETATM   13  C   UNL     1     -12.045  14.067  67.130  1.00  0.00    -0.436 C  
HETATM   14  C   UNL     1     -11.714  12.659  67.651  1.00  0.00    -0.420 C  
HETATM   15  C   UNL     1     -10.745  14.875  66.991  1.00  0.00    -0.307 C  
ENDBRANCH   2   6
TORSDOF 1
ENDMDL
MODEL       34
REMARK 921   NORMALIZED FREE ENERGY PREDICTED BY IDOCK:   -4.33 KCAL/MOL
REMARK 922        TOTAL FREE ENERGY PREDICTED BY IDOCK:   -4.71 KCAL/MOL
REMARK 923 INTER-LIGAND FREE ENERGY PREDICTED BY IDOCK:   -4.59 KCAL/MOL
REMARK 924 INTRA-LIGAND FREE ENERGY PREDICTED BY IDOCK:   -0.13 KCAL/MOL
REMARK 927      BINDING AFFINITY PREDICTED BY RF-SCORE:    0.00 PKD
ROOT
HETATM    1  C   UNL     1     -13.258  10.633  71.783  1.00  0.00    -0.526 C  
HETATM    2  C   UNL     1     -13.087   9.237  72.398  1.00  0.00    -0.406 C  
HETATM    3  N   UNL     1     -14.400   8.578  72.387  1.00  0.00    -0.705 NA 
HETATM    4  H2  UNL     1     -14.823   8.553  71.460  1.00  0.00     0.000 HD 
HETATM    5  H1  UNL     1     -14.287   7.650  72.796  1.00  0.00     0.000 HD 
ENDROOT
BRANCH   2   6
HETATM    6  C   UNL     1     -11.981   8.358  71.722  1.00  0.00    -0.380 C  
HETATM    7  C   UNL     1     -10.864   8.005  72.747  1.00  0.00    -0.438 C  
HETATM    8  C   UNL     1      -9.786   7.107  72.113  1.00  0.00    -0.171 C  
HETATM    9  C   UNL     1     -10.430   5.802  71.625  1.00  0.00    -0.286 C  
HETATM   10  C   UNL     1     -11.517   6.114  70.586  1.00  0.00    -0.331 C  
HETATM   11  C   UNL     1     -10.886   6.851  69.395  1.00  0.00    -0.283 C  
HETATM   12  C   UNL     1     -12.591   7.010  71.226  1.00  0.00    -0.418 C  
HETATM   13  C   UNL     1     -10.238   8.160  69.872  1.00  0.00    -0.204 C  
HETATM   14  C   UNL     1     -11.313   9.059  70.506  1.00  0.00    -0.282 C  
HETATM   15  C   UNL     1      -9.159   7.843  70.919  1.00  0.00    -0.157 C  
ENDBRANCH   2   6
TORSDOF 1
ENDMDL
MODEL       35
REMARK 921   NORMALIZED FREE ENERGY PREDICTED BY IDOCK:   -4.33 KCAL/MOL
REMARK 922        TOTAL FREE ENERGY PREDICTED BY IDOCK:   -4.71 KCAL/MOL
REMARK 923 INTER-LIGAND FREE ENERGY PREDICTED BY IDOCK:   -4.58 KCAL/MOL
REMARK 924 INTRA-LIGAND FREE ENERGY PREDICTED BY IDOCK:   -0.13 KCAL/MOL
REMARK 927      BINDING AFFINITY PREDICTED BY RF-SCORE:    0.00 PKD
ROOT
HETATM    1  C   UNL     1     -12.260  12.459  70.714  1.00  0.00    -0.336 C  
HETATM    2  C   UNL     1     -11.629  11.641  69.580  1.00  0.00    -0.330 C  
HETATM    3  N   UNL     1     -12.521  10.511  69.291  1.00  0.00    -0.717 NA 
HETATM    4  H2  UNL     1     -13.475  10.803  69.083  1.00  0.00     0.000 HD 
HETATM    5  H1  UNL     1     -12.101   9.967  68.536  1.00  0.00     0.000 HD 
ENDROOT
BRANCH   2   6
HETATM    6  C   UNL     1     -11.286  12.466  68.294  1.00  0.00    -0.332 C  
HETATM    7  C   UNL     1     -11.853  11.761  67.027  1.00  0.00    -0.126 C  
HETATM    8  C   UNL     1     -11.562  12.577  65.755  1.00  0.00    -0.439 C  
HETATM    9  C   UNL     1     -12.214  13.960  65.874  1.00  0.00    -0.497 C  
HETATM   10  C   UNL     1     -11.652  14.698  67.098  1.00  0.00    -0.394 C  
HETATM   11  C   UNL     1     -10.131  14.858  66.941  1.00  0.00    -0.242 C  
HETATM   12  C   UNL     1     -11.946  13.878  68.366  1.00  0.00    -0.391 C  
HETATM   13  C   UNL     1      -9.467  13.478  66.820  1.00  0.00    -0.272 C  
HETATM   14  C   UNL     1      -9.757  12.660  68.090  1.00  0.00    -0.219 C  
HETATM   15  C   UNL     1     -10.042  12.741  65.600  1.00  0.00    -0.281 C  
ENDBRANCH   2   6
TORSDOF 1
ENDMDL
MODEL       36
REMARK 921   NORMALIZED FREE ENERGY PREDICTED BY IDOCK:   -4.32 KCAL/MOL
REMARK 922        TOTAL FREE ENERGY PREDICTED BY IDOCK:   -4.70 KCAL/MOL
REMARK 923 INTER-LIGAND FREE ENERGY PREDICTED BY IDOCK:   -4.56 KCAL/MOL
REMARK 924 INTRA-LIGAND FREE ENERGY PREDICTED BY IDOCK:   -0.14 KCAL/MOL
REMARK 927      BINDING AFFINITY PREDICTED BY RF-SCORE:    0.00 PKD
ROOT
HETATM    1  C   UNL     1     -12.319  12.860  70.504  1.00  0.00    -0.362 C  
HETATM    2  C   UNL     1     -11.791  14.038  69.675  1.00  0.00    -0.330 C  
HETATM    3  N   UNL     1     -10.712  14.678  70.441  1.00  0.00    -0.473 NA 
HETATM    4  H2  UNL     1      -9.978  14.024  70.711  1.00  0.00     0.000 HD 
HETATM    5  H1  UNL     1     -10.360  15.461  69.890  1.00  0.00     0.000 HD 
ENDROOT
BRANCH   2   6
HETATM    6  C   UNL     1     -11.341  13.664  68.223  1.00  0.00    -0.322 C  
HETATM    7  C   UNL     1      -9.823  13.949  68.031  1.00  0.00    -0.234 C  
HETATM    8  C   UNL     1      -9.352  13.551  66.621  1.00  0.00    -0.254 C  
HETATM    9  C   UNL     1      -9.596  12.051  66.405  1.00  0.00    -0.239 C  
HETATM   10  C   UNL     1     -11.093  11.741  66.555  1.00  0.00    -0.364 C  
HETATM   11  C   UNL     1     -11.886  12.546  65.514  1.00  0.00    -0.491 C  
HETATM   12  C   UNL     1     -11.557  12.141  67.966  1.00  0.00    -0.411 C  
HETATM   13  C   UNL     1     -11.649  14.050  65.721  1.00  0.00    -0.339 C  
HETATM   14  C   UNL     1     -12.118  14.451  67.129  1.00  0.00    -0.367 C  
HETATM   15  C   UNL     1     -10.148  14.353  65.580  1.00  0.00    -0.377 C  
ENDBRANCH   2   6
TORSDOF 1
ENDMDL
MODEL       37
REMARK 921   NORMALIZED FREE ENERGY PREDICTED BY IDOCK:   -4.31 KCAL/MOL
REMARK 922        TOTAL FREE ENERGY PREDICTED BY IDOCK:   -4.69 KCAL/MOL
REMARK 923 INTER-LIGAND FREE ENERGY PREDICTED BY IDOCK:   -4.57 KCAL/MOL
REMARK 924 INTRA-LIGAND FREE ENERGY PREDICTED BY IDOCK:   -0.13 KCAL/MOL
REMARK 927      BINDING AFFINITY PREDICTED BY RF-SCORE:    0.00 PKD
ROOT
HETATM    1  C   UNL     1      -9.432  15.967  68.008  1.00  0.00    -0.206 C  
HETATM    2  C   UNL     1     -10.356  16.043  66.786  1.00  0.00    -0.300 C  
HETATM    3  N   UNL     1      -9.743  16.960  65.815  1.00  0.00    -0.548 NA 
HETATM    4  H2  UNL     1      -8.787  16.699  65.573  1.00  0.00     0.000 HD 
HETATM    5  H1  UNL     1     -10.357  17.011  65.002  1.00  0.00     0.000 HD 
ENDROOT
BRANCH   2   6
HETATM    6  C   UNL     1     -10.708  14.658  66.146  1.00  0.00    -0.314 C  
HETATM    7  C   UNL     1      -9.456  13.732  66.129  1.00  0.00    -0.180 C  
HETATM    8  C   UNL     1      -9.790  12.350  65.541  1.00  0.00    -0.215 C  
HETATM    9  C   UNL     1     -10.878  11.681  66.392  1.00  0.00    -0.333 C  
HETATM   10  C   UNL     1     -12.141  12.555  66.403  1.00  0.00    -0.279 C  
HETATM   11  C   UNL     1     -12.651  12.732  64.964  1.00  0.00    -0.538 C  
HETATM   12  C   UNL     1     -11.801  13.934  66.992  1.00  0.00    -0.447 C  
HETATM   13  C   UNL     1     -11.569  13.400  64.102  1.00  0.00    -0.440 C  
HETATM   14  C   UNL     1     -11.232  14.782  64.688  1.00  0.00    -0.350 C  
HETATM   15  C   UNL     1     -10.304  12.527  64.103  1.00  0.00    -0.416 C  
ENDBRANCH   2   6
TORSDOF 1
ENDMDL
MODEL       38
REMARK 921   NORMALIZED FREE ENERGY PREDICTED BY IDOCK:   -4.30 KCAL/MOL
REMARK 922        TOTAL FREE ENERGY PREDICTED BY IDOCK:   -4.68 KCAL/MOL
REMARK 923 INTER-LIGAND FREE ENERGY PREDICTED BY IDOCK:   -4.55 KCAL/MOL
REMARK 924 INTRA-LIGAND FREE ENERGY PREDICTED BY IDOCK:   -0.12 KCAL/MOL
REMARK 927      BINDING AFFINITY PREDICTED BY RF-SCORE:    0.00 PKD
ROOT
HETATM    1  C   UNL     1     -10.583  17.614  67.714  1.00  0.00    -0.380 C  
HETATM    2  C   UNL     1      -9.750  16.751  66.757  1.00  0.00    -0.264 C  
HETATM    3  N   UNL     1      -8.415  16.588  67.347  1.00  0.00    -0.174 NA 
HETATM    4  H2  UNL     1      -8.444  16.212  68.295  1.00  0.00     0.000 HD 
HETATM    5  H1  UNL     1      -7.860  16.013  66.711  1.00  0.00     0.000 HD 
ENDROOT
BRANCH   2   6
HETATM    6  C   UNL     1     -10.402  15.376  66.384  1.00  0.00    -0.303 C  
HETATM    7  C   UNL     1     -11.008  15.432  64.951  1.00  0.00    -0.453 C  
HETATM    8  C   UNL     1     -11.619  14.078  64.549  1.00  0.00    -0.403 C  
HETATM    9  C   UNL     1     -10.529  12.998  64.575  1.00  0.00    -0.413 C  
HETATM   10  C   UNL     1      -9.931  12.894  65.986  1.00  0.00    -0.275 C  
HETATM   11  C   UNL     1     -11.041  12.528  66.983  1.00  0.00    -0.326 C  
HETATM   12  C   UNL     1      -9.322  14.250  66.381  1.00  0.00    -0.270 C  
HETATM   13  C   UNL     1     -12.139  13.603  66.965  1.00  0.00    -0.423 C  
HETATM   14  C   UNL     1     -11.531  14.958  67.366  1.00  0.00    -0.354 C  
HETATM   15  C   UNL     1     -12.726  13.709  65.549  1.00  0.00    -0.514 C  
ENDBRANCH   2   6
TORSDOF 1
ENDMDL
MODEL       39
REMARK 921   NORMALIZED FREE ENERGY PREDICTED BY IDOCK:   -4.29 KCAL/MOL
REMARK 922        TOTAL FREE ENERGY PREDICTED BY IDOCK:   -4.67 KCAL/MOL
REMARK 923 INTER-LIGAND FREE ENERGY PREDICTED BY IDOCK:   -4.54 KCAL/MOL
REMARK 924 INTRA-LIGAND FREE ENERGY PREDICTED BY IDOCK:   -0.13 KCAL/MOL
REMARK 927      BINDING AFFINITY PREDICTED BY RF-SCORE:    0.00 PKD
ROOT
HETATM    1  C   UNL     1      -5.629  18.010  68.430  1.00  0.00    -0.165 C  
HETATM    2  C   UNL     1      -6.309  18.446  67.125  1.00  0.00    -0.174 C  
HETATM    3  N   UNL     1      -5.894  17.513  66.069  1.00  0.00    -0.181 NA 
HETATM    4  H2  UNL     1      -6.081  16.539  66.305  1.00  0.00     0.000 HD 
HETATM    5  H1  UNL     1      -6.347  17.803  65.201  1.00  0.00     0.000 HD 
ENDROOT
BRANCH   2   6
HETATM    6  C   UNL     1      -7.867  18.580  67.215  1.00  0.00    -0.240 C  
HETATM    7  C   UNL     1      -8.347  18.384  68.682  1.00  0.00    -0.319 C  
HETATM    8  C   UNL     1      -9.873  18.552  68.799  1.00  0.00    -0.411 C  
HETATM    9  C   UNL     1     -10.269  19.962  68.342  1.00  0.00    -0.557 C  
HETATM   10  C   UNL     1      -9.837  20.177  66.884  1.00  0.00    -0.593 C  
HETATM   11  C   UNL     1     -10.527  19.135  65.990  1.00  0.00    -0.546 C  
HETATM   12  C   UNL     1      -8.312  20.009  66.774  1.00  0.00    -0.372 C  
HETATM   13  C   UNL     1     -10.138  17.718  66.439  1.00  0.00    -0.357 C  
HETATM   14  C   UNL     1      -8.614  17.548  66.324  1.00  0.00    -0.234 C  
HETATM   15  C   UNL     1     -10.562  17.512  67.902  1.00  0.00    -0.390 C  
ENDBRANCH   2   6
TORSDOF 1
ENDMDL
MODEL       40
REMARK 921   NORMALIZED FREE ENERGY PREDICTED BY IDOCK:   -4.29 KCAL/MOL
REMARK 922        TOTAL FREE ENERGY PREDICTED BY IDOCK:   -4.67 KCAL/MOL
REMARK 923 INTER-LIGAND FREE ENERGY PREDICTED BY IDOCK:   -4.53 KCAL/MOL
REMARK 924 INTRA-LIGAND FREE ENERGY PREDICTED BY IDOCK:   -0.13 KCAL/MOL
REMARK 927      BINDING AFFINITY PREDICTED BY RF-SCORE:    0.00 PKD
ROOT
HETATM    1  C   UNL     1     -12.345  12.424  70.799  1.00  0.00    -0.377 C  
HETATM    2  C   UNL     1     -11.716  11.586  69.678  1.00  0.00    -0.351 C  
HETATM    3  N   UNL     1     -12.628  10.472  69.385  1.00  0.00    -0.690 NA 
HETATM    4  H2  UNL     1     -13.573  10.782  69.163  1.00  0.00     0.000 HD 
HETATM    5  H1  UNL     1     -12.210   9.915  68.639  1.00  0.00     0.000 HD 
ENDROOT
BRANCH   2   6
HETATM    6  C   UNL     1     -11.341  12.395  68.391  1.00  0.00    -0.330 C  
HETATM    7  C   UNL     1     -12.009  13.801  68.416  1.00  0.00    -0.395 C  
HETATM    8  C   UNL     1     -11.621  14.628  67.178  1.00  0.00    -0.394 C  
HETATM    9  C   UNL     1     -10.098  14.813  67.144  1.00  0.00    -0.240 C  
HETATM   10  C   UNL     1      -9.407  13.443  67.085  1.00  0.00    -0.240 C  
HETATM   11  C   UNL     1      -9.862  12.698  65.821  1.00  0.00    -0.236 C  
HETATM   12  C   UNL     1      -9.799  12.622  68.325  1.00  0.00    -0.227 C  
HETATM   13  C   UNL     1     -11.386  12.506  65.843  1.00  0.00    -0.380 C  
HETATM   14  C   UNL     1     -11.777  11.681  67.081  1.00  0.00    -0.215 C  
HETATM   15  C   UNL     1     -12.072  13.880  65.913  1.00  0.00    -0.459 C  
ENDBRANCH   2   6
TORSDOF 1
ENDMDL
MODEL       41
REMARK 921   NORMALIZED FREE ENERGY PREDICTED BY IDOCK:   -4.28 KCAL/MOL
REMARK 922        TOTAL FREE ENERGY PREDICTED BY IDOCK:   -4.65 KCAL/MOL
REMARK 923 INTER-LIGAND FREE ENERGY PREDICTED BY IDOCK:   -4.52 KCAL/MOL
REMARK 924 INTRA-LIGAND FREE ENERGY PREDICTED BY IDOCK:   -0.13 KCAL/MOL
REMARK 927      BINDING AFFINITY PREDICTED BY RF-SCORE:    0.00 PKD
ROOT
HETATM    1  C   UNL     1     -12.240  13.223  64.550  1.00  0.00    -0.456 C  
HETATM    2  C   UNL     1     -12.128  13.314  66.077  1.00  0.00    -0.436 C  
HETATM    3  N   UNL     1     -11.803  11.974  66.584  1.00  0.00    -0.610 NA 
HETATM    4  H2  UNL     1     -10.970  11.578  66.150  1.00  0.00     0.000 HD 
HETATM    5  H1  UNL     1     -11.728  12.035  67.600  1.00  0.00     0.000 HD 
ENDROOT
BRANCH   2   6
HETATM    6  C   UNL     1     -11.124  14.400  66.594  1.00  0.00    -0.326 C  
HETATM    7  C   UNL     1      -9.710  13.782  66.796  1.00  0.00    -0.277 C  
HETATM    8  C   UNL     1      -8.698  14.842  67.265  1.00  0.00    -0.224 C  
HETATM    9  C   UNL     1      -8.598  15.955  66.213  1.00  0.00    -0.348 C  
HETATM   10  C   UNL     1      -9.973  16.608  66.013  1.00  0.00    -0.346 C  
HETATM   11  C   UNL     1     -10.452  17.204  67.347  1.00  0.00    -0.334 C  
HETATM   12  C   UNL     1     -10.979  15.544  65.544  1.00  0.00    -0.331 C  
HETATM   13  C   UNL     1     -10.555  16.098  68.408  1.00  0.00    -0.286 C  
HETATM   14  C   UNL     1     -11.566  15.037  67.941  1.00  0.00    -0.350 C  
HETATM   15  C   UNL     1      -9.179  15.441  68.596  1.00  0.00    -0.199 C  
ENDBRANCH   2   6
TORSDOF 1
ENDMDL
MODEL       42
REMARK 921   NORMALIZED FREE ENERGY PREDICTED BY IDOCK:   -4.27 KCAL/MOL
REMARK 922        TOTAL FREE ENERGY PREDICTED BY IDOCK:   -4.64 KCAL/MOL
REMARK 923 INTER-LIGAND FREE ENERGY PREDICTED BY IDOCK:   -4.52 KCAL/MOL
REMARK 924 INTRA-LIGAND FREE ENERGY PREDICTED BY IDOCK:   -0.13 KCAL/MOL
REMARK 927      BINDING AFFINITY PREDICTED BY RF-SCORE:    0.00 PKD
ROOT
HETATM    1  C   UNL     1     -12.357  12.412  70.803  1.00  0.00    -0.377 C  
HETATM    2  C   UNL     1     -11.650  11.617  69.698  1.00  0.00    -0.330 C  
HETATM    3  N   UNL     1     -12.458  10.423  69.416  1.00  0.00    -0.656 NA 
HETATM    4  H2  UNL     1     -13.426  10.645  69.186  1.00  0.00     0.000 HD 
HETATM    5  H1  UNL     1     -11.988   9.894  68.681  1.00  0.00     0.000 HD 
ENDROOT
BRANCH   2   6
HETATM    6  C   UNL     1     -11.340  12.438  68.401  1.00  0.00    -0.330 C  
HETATM    7  C   UNL     1      -9.822  12.772  68.317  1.00  0.00    -0.224 C  
HETATM    8  C   UNL     1      -9.489  13.545  67.028  1.00  0.00    -0.251 C  
HETATM    9  C   UNL     1      -9.869  12.694  65.809  1.00  0.00    -0.236 C  
HETATM   10  C   UNL     1     -11.370  12.374  65.844  1.00  0.00    -0.399 C  
HETATM   11  C   UNL     1     -12.171  13.686  65.825  1.00  0.00    -0.503 C  
HETATM   12  C   UNL     1     -11.696  11.601  67.134  1.00  0.00    -0.215 C  
HETATM   13  C   UNL     1     -11.798  14.547  67.042  1.00  0.00    -0.408 C  
HETATM   14  C   UNL     1     -12.129  13.776  68.331  1.00  0.00    -0.324 C  
HETATM   15  C   UNL     1     -10.293  14.855  67.007  1.00  0.00    -0.264 C  
ENDBRANCH   2   6
TORSDOF 1
ENDMDL
MODEL       43
REMARK 921   NORMALIZED FREE ENERGY PREDICTED BY IDOCK:   -4.26 KCAL/MOL
REMARK 922        TOTAL FREE ENERGY PREDICTED BY IDOCK:   -4.64 KCAL/MOL
REMARK 923 INTER-LIGAND FREE ENERGY PREDICTED BY IDOCK:   -4.50 KCAL/MOL
REMARK 924 INTRA-LIGAND FREE ENERGY PREDICTED BY IDOCK:   -0.13 KCAL/MOL
REMARK 927      BINDING AFFINITY PREDICTED BY RF-SCORE:    0.00 PKD
ROOT
HETATM    1  C   UNL     1     -10.177  14.679  67.382  1.00  0.00    -0.240 C  
HETATM    2  C   UNL     1     -10.992  15.959  67.609  1.00  0.00    -0.298 C  
HETATM    3  N   UNL     1     -11.688  15.826  68.896  1.00  0.00    -0.404 NA 
HETATM    4  H2  UNL     1     -11.056  15.617  69.668  1.00  0.00     0.000 HD 
HETATM    5  H1  UNL     1     -12.230  16.677  69.047  1.00  0.00     0.000 HD 
ENDROOT
BRANCH   2   6
HETATM    6  C   UNL     1     -10.161  17.284  67.523  1.00  0.00    -0.328 C  
HETATM    7  C   UNL     1     -10.396  18.158  68.790  1.00  0.00    -0.270 C  
HETATM    8  C   UNL     1      -9.558  19.448  68.743  1.00  0.00    -0.495 C  
HETATM    9  C   UNL     1      -8.068  19.087  68.670  1.00  0.00    -0.397 C  
HETATM   10  C   UNL     1      -7.796  18.250  67.412  1.00  0.00    -0.229 C  
HETATM   11  C   UNL     1      -8.189  19.060  66.166  1.00  0.00    -0.246 C  
HETATM   12  C   UNL     1      -8.636  16.963  67.465  1.00  0.00    -0.211 C  
HETATM   13  C   UNL     1      -9.680  19.428  66.229  1.00  0.00    -0.455 C  
HETATM   14  C   UNL     1     -10.520  18.141  66.276  1.00  0.00    -0.374 C  
HETATM   15  C   UNL     1      -9.948  20.256  67.496  1.00  0.00    -0.557 C  
ENDBRANCH   2   6
TORSDOF 1
ENDMDL
MODEL       44
REMARK 921   NORMALIZED FREE ENERGY PREDICTED BY IDOCK:   -4.23 KCAL/MOL
REMARK 922        TOTAL FREE ENERGY PREDICTED BY IDOCK:   -4.60 KCAL/MOL
REMARK 923 INTER-LIGAND FREE ENERGY PREDICTED BY IDOCK:   -4.48 KCAL/MOL
REMARK 924 INTRA-LIGAND FREE ENERGY PREDICTED BY IDOCK:   -0.12 KCAL/MOL
REMARK 927      BINDING AFFINITY PREDICTED BY RF-SCORE:    0.00 PKD
ROOT
HETATM    1  C   UNL     1     -12.333  14.127  70.229  1.00  0.00    -0.421 C  
HETATM    2  C   UNL     1     -12.021  15.407  69.442  1.00  0.00    -0.327 C  
HETATM    3  N   UNL     1     -11.353  16.343  70.354  1.00  0.00    -0.488 NA 
HETATM    4  H2  UNL     1     -10.527  15.942  70.799  1.00  0.00     0.000 HD 
HETATM    5  H1  UNL     1     -11.145  17.194  69.831  1.00  0.00     0.000 HD 
ENDROOT
BRANCH   2   6
HETATM    6  C   UNL     1     -11.203  15.180  68.126  1.00  0.00    -0.326 C  
HETATM    7  C   UNL     1     -10.770  16.543  67.511  1.00  0.00    -0.283 C  
HETATM    8  C   UNL     1      -9.930  16.341  66.237  1.00  0.00    -0.335 C  
HETATM    9  C   UNL     1      -8.668  15.539  66.580  1.00  0.00    -0.340 C  
HETATM   10  C   UNL     1      -9.060  14.172  67.159  1.00  0.00    -0.240 C  
HETATM   11  C   UNL     1      -9.894  13.401  66.124  1.00  0.00    -0.289 C  
HETATM   12  C   UNL     1      -9.899  14.381  68.432  1.00  0.00    -0.234 C  
HETATM   13  C   UNL     1     -11.162  14.195  65.774  1.00  0.00    -0.312 C  
HETATM   14  C   UNL     1     -12.003  14.399  67.045  1.00  0.00    -0.424 C  
HETATM   15  C   UNL     1     -10.763  15.566  65.204  1.00  0.00    -0.460 C  
ENDBRANCH   2   6
TORSDOF 1
ENDMDL
MODEL       45
REMARK 921   NORMALIZED FREE ENERGY PREDICTED BY IDOCK:   -4.21 KCAL/MOL
REMARK 922        TOTAL FREE ENERGY PREDICTED BY IDOCK:   -4.58 KCAL/MOL
REMARK 923 INTER-LIGAND FREE ENERGY PREDICTED BY IDOCK:   -4.46 KCAL/MOL
REMARK 924 INTRA-LIGAND FREE ENERGY PREDICTED BY IDOCK:   -0.12 KCAL/MOL
REMARK 927      BINDING AFFINITY PREDICTED BY RF-SCORE:    0.00 PKD
ROOT
HETATM    1  C   UNL     1     -12.313  12.823  65.119  1.00  0.00    -0.555 C  
HETATM    2  C   UNL     1     -12.108  13.104  66.613  1.00  0.00    -0.346 C  
HETATM    3  N   UNL     1     -11.725  11.842  67.260  1.00  0.00    -0.597 NA 
HETATM    4  H2  UNL     1     -10.913  11.405  66.825  1.00  0.00     0.000 HD 
HETATM    5  H1  UNL     1     -11.588  12.029  68.253  1.00  0.00     0.000 HD 
ENDROOT
BRANCH   2   6
HETATM    6  C   UNL     1     -11.097  14.258  66.927  1.00  0.00    -0.315 C  
HETATM    7  C   UNL     1     -11.601  15.114  68.125  1.00  0.00    -0.358 C  
HETATM    8  C   UNL     1     -10.601  16.231  68.475  1.00  0.00    -0.294 C  
HETATM    9  C   UNL     1      -9.251  15.607  68.856  1.00  0.00    -0.226 C  
HETATM   10  C   UNL     1      -8.709  14.780  67.681  1.00  0.00    -0.183 C  
HETATM   11  C   UNL     1      -8.527  15.692  66.458  1.00  0.00    -0.311 C  
HETATM   12  C   UNL     1      -9.713  13.666  67.336  1.00  0.00    -0.228 C  
HETATM   13  C   UNL     1      -9.873  16.323  66.067  1.00  0.00    -0.371 C  
HETATM   14  C   UNL     1     -10.874  15.209  65.718  1.00  0.00    -0.358 C  
HETATM   15  C   UNL     1     -10.415  17.140  67.251  1.00  0.00    -0.313 C  
ENDBRANCH   2   6
TORSDOF 1
ENDMDL
MODEL       46
REMARK 921   NORMALIZED FREE ENERGY PREDICTED BY IDOCK:   -4.20 KCAL/MOL
REMARK 922        TOTAL FREE ENERGY PREDICTED BY IDOCK:   -4.58 KCAL/MOL
REMARK 923 INTER-LIGAND FREE ENERGY PREDICTED BY IDOCK:   -4.46 KCAL/MOL
REMARK 924 INTRA-LIGAND FREE ENERGY PREDICTED BY IDOCK:   -0.12 KCAL/MOL
REMARK 927      BINDING AFFINITY PREDICTED BY RF-SCORE:    0.00 PKD
ROOT
HETATM    1  C   UNL     1      -6.251  21.046  67.130  1.00  0.00    -0.383 C  
HETATM    2  C   UNL     1      -6.470  19.529  67.059  1.00  0.00    -0.192 C  
HETATM    3  N   UNL     1      -5.610  18.903  68.072  1.00  0.00    -0.187 NA 
HETATM    4  H2  UNL     1      -5.761  19.281  69.007  1.00  0.00     0.000 HD 
HETATM    5  H1  UNL     1      -5.756  17.894  68.025  1.00  0.00     0.000 HD 
ENDROOT
BRANCH   2   6
HETATM    6  C   UNL     1      -7.964  19.079  67.193  1.00  0.00    -0.271 C  
HETATM    7  C   UNL     1      -8.857  19.839  66.170  1.00  0.00    -0.378 C  
HETATM    8  C   UNL     1     -10.324  19.381  66.258  1.00  0.00    -0.584 C  
HETATM    9  C   UNL     1     -10.410  17.879  65.957  1.00  0.00    -0.318 C  
HETATM   10  C   UNL     1      -9.564  17.096  66.972  1.00  0.00    -0.262 C  
HETATM   11  C   UNL     1     -10.089  17.366  68.390  1.00  0.00    -0.347 C  
HETATM   12  C   UNL     1      -8.100  17.557  66.878  1.00  0.00    -0.254 C  
HETATM   13  C   UNL     1     -10.008  18.868  68.702  1.00  0.00    -0.470 C  
HETATM   14  C   UNL     1      -8.544  19.328  68.614  1.00  0.00    -0.401 C  
HETATM   15  C   UNL     1     -10.848  19.648  67.678  1.00  0.00    -0.413 C  
ENDBRANCH   2   6
TORSDOF 1
ENDMDL
MODEL       47
REMARK 921   NORMALIZED FREE ENERGY PREDICTED BY IDOCK:   -4.17 KCAL/MOL
REMARK 922        TOTAL FREE ENERGY PREDICTED BY IDOCK:   -4.54 KCAL/MOL
REMARK 923 INTER-LIGAND FREE ENERGY PREDICTED BY IDOCK:   -4.42 KCAL/MOL
REMARK 924 INTRA-LIGAND FREE ENERGY PREDICTED BY IDOCK:   -0.12 KCAL/MOL
REMARK 927      BINDING AFFINITY PREDICTED BY RF-SCORE:    0.00 PKD
ROOT
HETATM    1  C   UNL     1      -9.840  10.909  68.806  1.00  0.00    -0.203 C  
HETATM    2  C   UNL     1     -11.040  10.605  69.714  1.00  0.00    -0.295 C  
HETATM    3  N   UNL     1     -12.255  10.679  68.891  1.00  0.00    -0.793 NA 
HETATM    4  H2  UNL     1     -12.216  10.074  68.072  1.00  0.00     0.000 HD 
HETATM    5  H1  UNL     1     -13.052  10.476  69.495  1.00  0.00     0.000 HD 
ENDROOT
BRANCH   2   6
HETATM    6  C   UNL     1     -10.938   9.253  70.496  1.00  0.00    -0.318 C  
HETATM    7  C   UNL     1      -9.545   9.120  71.178  1.00  0.00    -0.347 C  
HETATM    8  C   UNL     1      -9.440   7.814  71.986  1.00  0.00    -0.212 C  
HETATM    9  C   UNL     1     -10.519   7.800  73.077  1.00  0.00    -0.432 C  
HETATM   10  C   UNL     1     -11.910   7.896  72.434  1.00  0.00    -0.402 C  
HETATM   11  C   UNL     1     -12.119   6.702  71.490  1.00  0.00    -0.406 C  
HETATM   12  C   UNL     1     -12.010   9.203  71.629  1.00  0.00    -0.437 C  
HETATM   13  C   UNL     1     -11.043   6.707  70.393  1.00  0.00    -0.374 C  
HETATM   14  C   UNL     1     -11.146   8.011  69.584  1.00  0.00    -0.021 C  
HETATM   15  C   UNL     1      -9.652   6.621  71.042  1.00  0.00    -0.178 C  
ENDBRANCH   2   6
TORSDOF 1
ENDMDL
MODEL       48
REMARK 921   NORMALIZED FREE ENERGY PREDICTED BY IDOCK:   -4.15 KCAL/MOL
REMARK 922        TOTAL FREE ENERGY PREDICTED BY IDOCK:   -4.52 KCAL/MOL
REMARK 923 INTER-LIGAND FREE ENERGY PREDICTED BY IDOCK:   -4.39 KCAL/MOL
REMARK 924 INTRA-LIGAND FREE ENERGY PREDICTED BY IDOCK:   -0.13 KCAL/MOL
REMARK 927      BINDING AFFINITY PREDICTED BY RF-SCORE:    0.00 PKD
ROOT
HETATM    1  C   UNL     1     -10.126  14.699  67.339  1.00  0.00    -0.232 C  
HETATM    2  C   UNL     1     -10.919  15.981  67.624  1.00  0.00    -0.284 C  
HETATM    3  N   UNL     1     -11.653  15.784  68.881  1.00  0.00    -0.379 NA 
HETATM    4  H2  UNL     1     -11.048  15.514  69.656  1.00  0.00     0.000 HD 
HETATM    5  H1  UNL     1     -12.181  16.637  69.072  1.00  0.00     0.000 HD 
ENDROOT
BRANCH   2   6
HETATM    6  C   UNL     1     -10.059  17.289  67.643  1.00  0.00    -0.313 C  
HETATM    7  C   UNL     1     -10.400  18.183  66.415  1.00  0.00    -0.404 C  
HETATM    8  C   UNL     1      -9.594  19.494  66.435  1.00  0.00    -0.469 C  
HETATM    9  C   UNL     1      -9.922  20.276  67.714  1.00  0.00    -0.529 C  
HETATM   10  C   UNL     1      -9.565  19.433  68.947  1.00  0.00    -0.477 C  
HETATM   11  C   UNL     1      -8.065  19.100  68.919  1.00  0.00    -0.329 C  
HETATM   12  C   UNL     1     -10.375  18.126  68.921  1.00  0.00    -0.217 C  
HETATM   13  C   UNL     1      -7.725  18.316  67.642  1.00  0.00    -0.230 C  
HETATM   14  C   UNL     1      -8.530  17.006  67.619  1.00  0.00    -0.210 C  
HETATM   15  C   UNL     1      -8.094  19.161  66.412  1.00  0.00    -0.319 C  
ENDBRANCH   2   6
TORSDOF 1
ENDMDL
MODEL       49
REMARK 921   NORMALIZED FREE ENERGY PREDICTED BY IDOCK:   -4.13 KCAL/MOL
REMARK 922        TOTAL FREE ENERGY PREDICTED BY IDOCK:   -4.50 KCAL/MOL
REMARK 923 INTER-LIGAND FREE ENERGY PREDICTED BY IDOCK:   -4.37 KCAL/MOL
REMARK 924 INTRA-LIGAND FREE ENERGY PREDICTED BY IDOCK:   -0.12 KCAL/MOL
REMARK 927      BINDING AFFINITY PREDICTED BY RF-SCORE:    0.00 PKD
ROOT
HETATM    1  C   UNL     1     -12.118  14.112  70.194  1.00  0.00    -0.411 C  
HETATM    2  C   UNL     1     -11.969  15.428  69.419  1.00  0.00    -0.327 C  
HETATM    3  N   UNL     1     -11.371  16.418  70.325  1.00  0.00    -0.468 NA 
HETATM    4  H2  UNL     1     -10.494  16.100  70.735  1.00  0.00     0.000 HD 
HETATM    5  H1  UNL     1     -11.272  17.293  69.810  1.00  0.00     0.000 HD 
ENDROOT
BRANCH   2   6
HETATM    6  C   UNL     1     -11.178  15.307  68.073  1.00  0.00    -0.330 C  
HETATM    7  C   UNL     1      -9.881  14.471  68.277  1.00  0.00    -0.229 C  
HETATM    8  C   UNL     1      -9.108  14.306  66.956  1.00  0.00    -0.246 C  
HETATM    9  C   UNL     1      -9.994  13.586  65.932  1.00  0.00    -0.295 C  
HETATM   10  C   UNL     1     -11.271  14.403  65.682  1.00  0.00    -0.323 C  
HETATM   11  C   UNL     1     -10.890  15.792  65.146  1.00  0.00    -0.444 C  
HETATM   12  C   UNL     1     -12.038  14.563  67.005  1.00  0.00    -0.303 C  
HETATM   13  C   UNL     1     -10.001  16.522  66.165  1.00  0.00    -0.363 C  
HETATM   14  C   UNL     1     -10.771  16.688  67.486  1.00  0.00    -0.278 C  
HETATM   15  C   UNL     1      -8.730  15.695  66.419  1.00  0.00    -0.354 C  
ENDBRANCH   2   6
TORSDOF 1
ENDMDL
MODEL       50
REMARK 921   NORMALIZED FREE ENERGY PREDICTED BY IDOCK:   -4.09 KCAL/MOL
REMARK 922        TOTAL FREE ENERGY PREDICTED BY IDOCK:   -4.46 KCAL/MOL
REMARK 923 INTER-LIGAND FREE ENERGY PREDICTED BY IDOCK:   -4.33 KCAL/MOL
REMARK 924 INTRA-LIGAND FREE ENERGY PREDICTED BY IDOCK:   -0.13 KCAL/MOL
REMARK 927      BINDING AFFINITY PREDICTED BY RF-SCORE:    0.00 PKD
ROOT
HETATM    1  C   UNL     1     -10.487   9.696  67.770  1.00  0.00    -0.309 C  
HETATM    2  C   UNL     1     -10.946  10.095  69.178  1.00  0.00    -0.230 C  
HETATM    3  N   UNL     1     -12.331  10.575  69.080  1.00  0.00    -0.762 NA 
HETATM    4  H2  UNL     1     -12.954   9.899  68.638  1.00  0.00     0.000 HD 
HETATM    5  H1  UNL     1     -12.637  10.839  70.017  1.00  0.00     0.000 HD 
ENDROOT
BRANCH   2   6
HETATM    6  C   UNL     1     -10.786   8.972  70.258  1.00  0.00    -0.269 C  
HETATM    7  C   UNL     1     -10.950   7.566  69.611  1.00  0.00    -0.164 C  
HETATM    8  C   UNL     1     -10.757   6.446  70.650  1.00  0.00    -0.310 C  
HETATM    9  C   UNL     1      -9.349   6.544  71.251  1.00  0.00    -0.158 C  
HETATM   10  C   UNL     1      -9.165   7.911  71.928  1.00  0.00    -0.202 C  
HETATM   11  C   UNL     1     -10.212   8.072  73.041  1.00  0.00    -0.357 C  
HETATM   12  C   UNL     1      -9.359   9.025  70.885  1.00  0.00    -0.326 C  
HETATM   13  C   UNL     1     -11.627   7.975  72.450  1.00  0.00    -0.450 C  
HETATM   14  C   UNL     1     -11.822   9.093  71.411  1.00  0.00    -0.415 C  
HETATM   15  C   UNL     1     -11.801   6.610  71.765  1.00  0.00    -0.380 C  
ENDBRANCH   2   6
TORSDOF 1
ENDMDL
MODEL       51
REMARK 921   NORMALIZED FREE ENERGY PREDICTED BY IDOCK:   -4.07 KCAL/MOL
REMARK 922        TOTAL FREE ENERGY PREDICTED BY IDOCK:   -4.44 KCAL/MOL
REMARK 923 INTER-LIGAND FREE ENERGY PREDICTED BY IDOCK:   -4.31 KCAL/MOL
REMARK 924 INTRA-LIGAND FREE ENERGY PREDICTED BY IDOCK:   -0.13 KCAL/MOL
REMARK 927      BINDING AFFINITY PREDICTED BY RF-SCORE:    0.00 PKD
ROOT
HETATM    1  C   UNL     1     -10.483   9.660  67.639  1.00  0.00    -0.317 C  
HETATM    2  C   UNL     1     -10.924  10.073  69.050  1.00  0.00    -0.212 C  
HETATM    3  N   UNL     1     -12.281  10.626  68.952  1.00  0.00    -0.793 NA 
HETATM    4  H2  UNL     1     -12.938   9.987  68.505  1.00  0.00     0.000 HD 
HETATM    5  H1  UNL     1     -12.575  10.901  69.890  1.00  0.00     0.000 HD 
ENDROOT
BRANCH   2   6
HETATM    6  C   UNL     1     -10.826   8.937  70.123  1.00  0.00    -0.251 C  
HETATM    7  C   UNL     1     -12.020   9.023  71.119  1.00  0.00    -0.356 C  
HETATM    8  C   UNL     1     -11.964   7.890  72.159  1.00  0.00    -0.379 C  
HETATM    9  C   UNL     1     -12.025   6.535  71.442  1.00  0.00    -0.371 C  
HETATM   10  C   UNL     1     -10.840   6.403  70.473  1.00  0.00    -0.335 C  
HETATM   11  C   UNL     1      -9.525   6.509  71.261  1.00  0.00    -0.172 C  
HETATM   12  C   UNL     1     -10.902   7.538  69.437  1.00  0.00    -0.161 C  
HETATM   13  C   UNL     1      -9.453   7.863  71.984  1.00  0.00    -0.230 C  
HETATM   14  C   UNL     1      -9.509   8.997  70.947  1.00  0.00    -0.331 C  
HETATM   15  C   UNL     1     -10.647   7.993  72.943  1.00  0.00    -0.399 C  
ENDBRANCH   2   6
TORSDOF 1
ENDMDL
MODEL       52
REMARK 921   NORMALIZED FREE ENERGY PREDICTED BY IDOCK:   -4.05 KCAL/MOL
REMARK 922        TOTAL FREE ENERGY PREDICTED BY IDOCK:   -4.42 KCAL/MOL
REMARK 923 INTER-LIGAND FREE ENERGY PREDICTED BY IDOCK:   -4.29 KCAL/MOL
REMARK 924 INTRA-LIGAND FREE ENERGY PREDICTED BY IDOCK:   -0.13 KCAL/MOL
REMARK 927      BINDING AFFINITY PREDICTED BY RF-SCORE:    0.00 PKD
ROOT
HETATM    1  C   UNL     1     -10.865  19.589  65.719  1.00  0.00    -0.403 C  
HETATM    2  C   UNL     1     -10.203  18.422  66.463  1.00  0.00    -0.401 C  
HETATM    3  N   UNL     1     -10.356  17.218  65.636  1.00  0.00    -0.619 NA 
HETATM    4  H2  UNL     1      -9.996  17.339  64.690  1.00  0.00     0.000 HD 
HETATM    5  H1  UNL     1      -9.916  16.441  66.131  1.00  0.00     0.000 HD 
ENDROOT
BRANCH   2   6
HETATM    6  C   UNL     1      -8.711  18.671  66.871  1.00  0.00    -0.288 C  
HETATM    7  C   UNL     1      -8.585  18.812  68.416  1.00  0.00    -0.373 C  
HETATM    8  C   UNL     1      -7.120  19.017  68.841  1.00  0.00    -0.363 C  
HETATM    9  C   UNL     1      -6.283  17.812  68.392  1.00  0.00    -0.179 C  
HETATM   10  C   UNL     1      -6.360  17.665  66.865  1.00  0.00    -0.206 C  
HETATM   11  C   UNL     1      -5.819  18.941  66.202  1.00  0.00    -0.185 C  
HETATM   12  C   UNL     1      -7.826  17.459  66.447  1.00  0.00    -0.337 C  
HETATM   13  C   UNL     1      -6.650  20.155  66.646  1.00  0.00    -0.247 C  
HETATM   14  C   UNL     1      -8.115  19.952  66.223  1.00  0.00    -0.352 C  
HETATM   15  C   UNL     1      -6.578  20.292  68.175  1.00  0.00    -0.336 C  
ENDBRANCH   2   6
TORSDOF 1
ENDMDL
MODEL       53
REMARK 921   NORMALIZED FREE ENERGY PREDICTED BY IDOCK:   -4.04 KCAL/MOL
REMARK 922        TOTAL FREE ENERGY PREDICTED BY IDOCK:   -4.41 KCAL/MOL
REMARK 923 INTER-LIGAND FREE ENERGY PREDICTED BY IDOCK:   -4.27 KCAL/MOL
REMARK 924 INTRA-LIGAND FREE ENERGY PREDICTED BY IDOCK:   -0.13 KCAL/MOL
REMARK 927      BINDING AFFINITY PREDICTED BY RF-SCORE:    0.00 PKD
ROOT
HETATM    1  C   UNL     1     -10.735  19.677  65.771  1.00  0.00    -0.493 C  
HETATM    2  C   UNL     1     -10.182  18.482  66.559  1.00  0.00    -0.410 C  
HETATM    3  N   UNL     1     -10.288  17.292  65.704  1.00  0.00    -0.619 NA 
HETATM    4  H2  UNL     1      -9.833  17.413  64.800  1.00  0.00     0.000 HD 
HETATM    5  H1  UNL     1      -9.920  16.498  66.228  1.00  0.00     0.000 HD 
ENDROOT
BRANCH   2   6
HETATM    6  C   UNL     1      -8.732  18.682  67.115  1.00  0.00    -0.281 C  
HETATM    7  C   UNL     1      -7.692  17.993  66.183  1.00  0.00    -0.266 C  
HETATM    8  C   UNL     1      -6.255  18.212  66.690  1.00  0.00    -0.208 C  
HETATM    9  C   UNL     1      -5.951  19.716  66.731  1.00  0.00    -0.172 C  
HETATM   10  C   UNL     1      -6.941  20.422  67.669  1.00  0.00    -0.342 C  
HETATM   11  C   UNL     1      -6.812  19.833  69.083  1.00  0.00    -0.373 C  
HETATM   12  C   UNL     1      -8.374  20.200  67.157  1.00  0.00    -0.391 C  
HETATM   13  C   UNL     1      -7.114  18.327  69.053  1.00  0.00    -0.249 C  
HETATM   14  C   UNL     1      -8.549  18.105  68.547  1.00  0.00    -0.307 C  
HETATM   15  C   UNL     1      -6.127  17.627  68.105  1.00  0.00    -0.163 C  
ENDBRANCH   2   6
TORSDOF 1
ENDMDL
MODEL       54
REMARK 921   NORMALIZED FREE ENERGY PREDICTED BY IDOCK:   -4.04 KCAL/MOL
REMARK 922        TOTAL FREE ENERGY PREDICTED BY IDOCK:   -4.40 KCAL/MOL
REMARK 923 INTER-LIGAND FREE ENERGY PREDICTED BY IDOCK:   -4.27 KCAL/MOL
REMARK 924 INTRA-LIGAND FREE ENERGY PREDICTED BY IDOCK:   -0.13 KCAL/MOL
REMARK 927      BINDING AFFINITY PREDICTED BY RF-SCORE:    0.00 PKD
ROOT
HETATM    1  C   UNL     1     -11.738  15.994  71.675  1.00  0.00    -0.583 C  
HETATM    2  C   UNL     1     -12.471  14.885  70.908  1.00  0.00    -0.330 C  
HETATM    3  N   UNL     1     -13.844  15.342  70.658  1.00  0.00    -0.837 NA 
HETATM    4  H2  UNL     1     -13.880  16.243  70.181  1.00  0.00     0.000 HD 
HETATM    5  H1  UNL     1     -14.331  14.605  70.148  1.00  0.00     0.000 HD 
ENDROOT
BRANCH   2   6
HETATM    6  C   UNL     1     -11.756  14.419  69.594  1.00  0.00    -0.362 C  
HETATM    7  C   UNL     1     -12.504  14.966  68.344  1.00  0.00     0.283 C  
HETATM    8  C   UNL     1     -11.795  14.553  67.042  1.00  0.00    -0.408 C  
HETATM    9  C   UNL     1     -10.366  15.113  67.038  1.00  0.00    -0.271 C  
HETATM   10  C   UNL     1      -9.589  14.566  68.244  1.00  0.00    -0.212 C  
HETATM   11  C   UNL     1      -9.539  13.032  68.164  1.00  0.00    -0.227 C  
HETATM   12  C   UNL     1     -10.302  14.982  69.541  1.00  0.00    -0.230 C  
HETATM   13  C   UNL     1     -10.965  12.460  68.167  1.00  0.00    -0.263 C  
HETATM   14  C   UNL     1     -11.677  12.872  69.467  1.00  0.00    -0.387 C  
HETATM   15  C   UNL     1     -11.742  13.019  66.964  1.00  0.00    -0.441 C  
ENDBRANCH   2   6
TORSDOF 1
ENDMDL
MODEL       55
REMARK 921   NORMALIZED FREE ENERGY PREDICTED BY IDOCK:   -3.99 KCAL/MOL
REMARK 922        TOTAL FREE ENERGY PREDICTED BY IDOCK:   -4.35 KCAL/MOL
REMARK 923 INTER-LIGAND FREE ENERGY PREDICTED BY IDOCK:   -4.23 KCAL/MOL
REMARK 924 INTRA-LIGAND FREE ENERGY PREDICTED BY IDOCK:   -0.12 KCAL/MOL
REMARK 927      BINDING AFFINITY PREDICTED BY RF-SCORE:    0.00 PKD
ROOT
HETATM    1  C   UNL     1     -10.182  17.347  68.914  1.00  0.00    -0.352 C  
HETATM    2  C   UNL     1     -10.023  18.750  68.316  1.00  0.00    -0.385 C  
HETATM    3  N   UNL     1     -10.399  19.724  69.349  1.00  0.00    -0.586 NA 
HETATM    4  H2  UNL     1      -9.877  19.603  70.216  1.00  0.00     0.000 HD 
HETATM    5  H1  UNL     1     -10.293  20.658  68.952  1.00  0.00     0.000 HD 
ENDROOT
BRANCH   2   6
HETATM    6  C   UNL     1      -8.608  19.046  67.714  1.00  0.00    -0.328 C  
HETATM    7  C   UNL     1      -7.494  18.685  68.739  1.00  0.00    -0.322 C  
HETATM    8  C   UNL     1      -6.092  18.931  68.152  1.00  0.00    -0.217 C  
HETATM    9  C   UNL     1      -5.903  18.063  66.901  1.00  0.00    -0.169 C  
HETATM   10  C   UNL     1      -6.969  18.418  65.854  1.00  0.00    -0.306 C  
HETATM   11  C   UNL     1      -6.836  19.901  65.475  1.00  0.00    -0.328 C  
HETATM   12  C   UNL     1      -8.366  18.170  66.447  1.00  0.00    -0.272 C  
HETATM   13  C   UNL     1      -7.024  20.780  66.721  1.00  0.00    -0.333 C  
HETATM   14  C   UNL     1      -8.424  20.536  67.310  1.00  0.00    -0.365 C  
HETATM   15  C   UNL     1      -5.961  20.413  67.769  1.00  0.00    -0.264 C  
ENDBRANCH   2   6
TORSDOF 1
ENDMDL
MODEL       56
REMARK 921   NORMALIZED FREE ENERGY PREDICTED BY IDOCK:   -3.97 KCAL/MOL
REMARK 922        TOTAL FREE ENERGY PREDICTED BY IDOCK:   -4.33 KCAL/MOL
REMARK 923 INTER-LIGAND FREE ENERGY PREDICTED BY IDOCK:   -4.19 KCAL/MOL
REMARK 924 INTRA-LIGAND FREE ENERGY PREDICTED BY IDOCK:   -0.13 KCAL/MOL
REMARK 927      BINDING AFFINITY PREDICTED BY RF-SCORE:    0.00 PKD
ROOT
HETATM    1  C   UNL     1     -11.974  15.773  70.507  1.00  0.00    -0.401 C  
HETATM    2  C   UNL     1     -11.291  15.108  69.305  1.00  0.00    -0.300 C  
HETATM    3  N   UNL     1     -12.339  14.516  68.464  1.00  0.00    -0.595 NA 
HETATM    4  H2  UNL     1     -13.054  15.190  68.189  1.00  0.00     0.000 HD 
HETATM    5  H1  UNL     1     -11.885  14.074  67.664  1.00  0.00     0.000 HD 
ENDROOT
BRANCH   2   6
HETATM    6  C   UNL     1     -10.343  16.051  68.490  1.00  0.00    -0.241 C  
HETATM    7  C   UNL     1     -10.686  15.990  66.973  1.00  0.00    -0.277 C  
HETATM    8  C   UNL     1      -9.791  16.941  66.158  1.00  0.00    -0.318 C  
HETATM    9  C   UNL     1      -9.997  18.381  66.646  1.00  0.00    -0.382 C  
HETATM   10  C   UNL     1      -9.635  18.483  68.135  1.00  0.00    -0.353 C  
HETATM   11  C   UNL     1      -8.165  18.080  68.330  1.00  0.00    -0.305 C  
HETATM   12  C   UNL     1     -10.533  17.531  68.944  1.00  0.00    -0.286 C  
HETATM   13  C   UNL     1      -7.947  16.639  67.844  1.00  0.00    -0.177 C  
HETATM   14  C   UNL     1      -8.841  15.687  68.657  1.00  0.00    -0.201 C  
HETATM   15  C   UNL     1      -8.321  16.540  66.357  1.00  0.00    -0.358 C  
ENDBRANCH   2   6
TORSDOF 1
ENDMDL
MODEL       57
REMARK 921   NORMALIZED FREE ENERGY PREDICTED BY IDOCK:   -3.97 KCAL/MOL
REMARK 922        TOTAL FREE ENERGY PREDICTED BY IDOCK:   -4.33 KCAL/MOL
REMARK 923 INTER-LIGAND FREE ENERGY PREDICTED BY IDOCK:   -4.19 KCAL/MOL
REMARK 924 INTRA-LIGAND FREE ENERGY PREDICTED BY IDOCK:   -0.13 KCAL/MOL
REMARK 927      BINDING AFFINITY PREDICTED BY RF-SCORE:    0.00 PKD
ROOT
HETATM    1  C   UNL     1     -11.035   6.419  67.431  1.00  0.00    -0.463 C  
HETATM    2  C   UNL     1     -10.383   7.598  68.166  1.00  0.00    -0.204 C  
HETATM    3  N   UNL     1     -10.945   8.837  67.612  1.00  0.00    -0.473 NA 
HETATM    4  H2  UNL     1     -11.963   8.862  67.651  1.00  0.00     0.000 HD 
HETATM    5  H1  UNL     1     -10.512   9.621  68.101  1.00  0.00     0.000 HD 
ENDROOT
BRANCH   2   6
HETATM    6  C   UNL     1     -10.504   7.541  69.726  1.00  0.00    -0.232 C  
HETATM    7  C   UNL     1     -10.852   8.946  70.298  1.00  0.00    -0.265 C  
HETATM    8  C   UNL     1     -11.015   8.904  71.827  1.00  0.00    -0.431 C  
HETATM    9  C   UNL     1     -12.147   7.936  72.195  1.00  0.00    -0.371 C  
HETATM   10  C   UNL     1     -11.820   6.529  71.673  1.00  0.00    -0.384 C  
HETATM   11  C   UNL     1     -10.505   6.045  72.304  1.00  0.00    -0.241 C  
HETATM   12  C   UNL     1     -11.659   6.578  70.144  1.00  0.00    -0.466 C  
HETATM   13  C   UNL     1      -9.363   7.008  71.943  1.00  0.00    -0.147 C  
HETATM   14  C   UNL     1      -9.199   7.053  70.415  1.00  0.00    -0.156 C  
HETATM   15  C   UNL     1      -9.702   8.416  72.459  1.00  0.00    -0.359 C  
ENDBRANCH   2   6
TORSDOF 1
ENDMDL
MODEL       58
REMARK 921   NORMALIZED FREE ENERGY PREDICTED BY IDOCK:   -3.96 KCAL/MOL
REMARK 922        TOTAL FREE ENERGY PREDICTED BY IDOCK:   -4.32 KCAL/MOL
REMARK 923 INTER-LIGAND FREE ENERGY PREDICTED BY IDOCK:   -4.19 KCAL/MOL
REMARK 924 INTRA-LIGAND FREE ENERGY PREDICTED BY IDOCK:   -0.13 KCAL/MOL
REMARK 927      BINDING AFFINITY PREDICTED BY RF-SCORE:    0.00 PKD
ROOT
HETATM    1  C   UNL     1     -10.988   6.469  67.519  1.00  0.00    -0.444 C  
HETATM    2  C   UNL     1     -10.921   5.878  68.934  1.00  0.00    -0.267 C  
HETATM    3  N   UNL     1      -9.807   4.921  68.969  1.00  0.00    -0.178 NA 
HETATM    4  H2  UNL     1      -8.923   5.332  68.670  1.00  0.00     0.000 HD 
HETATM    5  H1  UNL     1      -9.761   4.529  69.910  1.00  0.00     0.000 HD 
ENDROOT
BRANCH   2   6
HETATM    6  C   UNL     1     -10.821   6.941  70.080  1.00  0.00    -0.299 C  
HETATM    7  C   UNL     1     -12.156   7.011  70.877  1.00  0.00    -0.403 C  
HETATM    8  C   UNL     1     -12.065   8.022  72.034  1.00  0.00    -0.377 C  
HETATM    9  C   UNL     1     -10.946   7.600  72.995  1.00  0.00    -0.457 C  
HETATM   10  C   UNL     1      -9.606   7.554  72.246  1.00  0.00    -0.197 C  
HETATM   11  C   UNL     1      -9.294   8.945  71.673  1.00  0.00    -0.328 C  
HETATM   12  C   UNL     1      -9.703   6.541  71.092  1.00  0.00    -0.188 C  
HETATM   13  C   UNL     1     -10.409   9.378  70.709  1.00  0.00    -0.366 C  
HETATM   14  C   UNL     1     -10.502   8.369  69.552  1.00  0.00    -0.225 C  
HETATM   15  C   UNL     1     -11.749   9.413  71.461  1.00  0.00    -0.465 C  
ENDBRANCH   2   6
TORSDOF 1
ENDMDL
MODEL       59
REMARK 921   NORMALIZED FREE ENERGY PREDICTED BY IDOCK:   -3.96 KCAL/MOL
REMARK 922        TOTAL FREE ENERGY PREDICTED BY IDOCK:   -4.32 KCAL/MOL
REMARK 923 INTER-LIGAND FREE ENERGY PREDICTED BY IDOCK:   -4.20 KCAL/MOL
REMARK 924 INTRA-LIGAND FREE ENERGY PREDICTED BY IDOCK:   -0.12 KCAL/MOL
REMARK 927      BINDING AFFINITY PREDICTED BY RF-SCORE:    0.00 PKD
ROOT
HETATM    1  C   UNL     1     -10.938   6.414  67.546  1.00  0.00    -0.454 C  
HETATM    2  C   UNL     1     -10.343   7.602  68.314  1.00  0.00    -0.198 C  
HETATM    3  N   UNL     1     -10.842   8.835  67.691  1.00  0.00    -0.489 NA 
HETATM    4  H2  UNL     1     -11.860   8.868  67.639  1.00  0.00     0.000 HD 
HETATM    5  H1  UNL     1     -10.446   9.625  68.202  1.00  0.00     0.000 HD 
ENDROOT
BRANCH   2   6
HETATM    6  C   UNL     1     -10.600   7.575  69.858  1.00  0.00    -0.243 C  
HETATM    7  C   UNL     1      -9.361   7.004  70.608  1.00  0.00    -0.162 C  
HETATM    8  C   UNL     1      -9.579   7.006  72.131  1.00  0.00    -0.160 C  
HETATM    9  C   UNL     1      -9.819   8.444  72.611  1.00  0.00    -0.329 C  
HETATM   10  C   UNL     1     -11.057   9.027  71.914  1.00  0.00    -0.433 C  
HETATM   11  C   UNL     1     -12.283   8.162  72.247  1.00  0.00    -0.397 C  
HETATM   12  C   UNL     1     -10.832   9.022  70.392  1.00  0.00    -0.284 C  
HETATM   13  C   UNL     1     -12.053   6.720  71.771  1.00  0.00    -0.393 C  
HETATM   14  C   UNL     1     -11.835   6.715  70.249  1.00  0.00    -0.378 C  
HETATM   15  C   UNL     1     -10.807   6.146  72.464  1.00  0.00    -0.275 C  
ENDBRANCH   2   6
TORSDOF 1
ENDMDL
MODEL       60
REMARK 921   NORMALIZED FREE ENERGY PREDICTED BY IDOCK:   -3.96 KCAL/MOL
REMARK 922        TOTAL FREE ENERGY PREDICTED BY IDOCK:   -4.32 KCAL/MOL
REMARK 923 INTER-LIGAND FREE ENERGY PREDICTED BY IDOCK:   -4.19 KCAL/MOL
REMARK 924 INTRA-LIGAND FREE ENERGY PREDICTED BY IDOCK:   -0.13 KCAL/MOL
REMARK 927      BINDING AFFINITY PREDICTED BY RF-SCORE:    0.00 PKD
ROOT
HETATM    1  C   UNL     1     -11.001   6.541  67.642  1.00  0.00    -0.426 C  
HETATM    2  C   UNL     1     -10.948   5.855  69.013  1.00  0.00    -0.289 C  
HETATM    3  N   UNL     1      -9.854   4.875  68.983  1.00  0.00    -0.178 NA 
HETATM    4  H2  UNL     1      -8.961   5.286  68.712  1.00  0.00     0.000 HD 
HETATM    5  H1  UNL     1      -9.818   4.419  69.895  1.00  0.00     0.000 HD 
ENDROOT
BRANCH   2   6
HETATM    6  C   UNL     1     -10.827   6.836  70.229  1.00  0.00    -0.314 C  
HETATM    7  C   UNL     1     -10.473   8.270  69.739  1.00  0.00    -0.220 C  
HETATM    8  C   UNL     1     -10.389   9.259  70.915  1.00  0.00    -0.367 C  
HETATM    9  C   UNL     1     -11.743   9.311  71.637  1.00  0.00    -0.462 C  
HETATM   10  C   UNL     1     -12.107   7.915  72.162  1.00  0.00    -0.371 C  
HETATM   11  C   UNL     1     -11.021   7.440  73.141  1.00  0.00    -0.408 C  
HETATM   12  C   UNL     1     -12.190   6.932  70.982  1.00  0.00    -0.427 C  
HETATM   13  C   UNL     1      -9.661   7.384  72.429  1.00  0.00    -0.192 C  
HETATM   14  C   UNL     1      -9.742   6.397  71.252  1.00  0.00    -0.189 C  
HETATM   15  C   UNL     1      -9.307   8.782  71.895  1.00  0.00    -0.343 C  
ENDBRANCH   2   6
TORSDOF 1
ENDMDL
MODEL       61
REMARK 921   NORMALIZED FREE ENERGY PREDICTED BY IDOCK:   -3.96 KCAL/MOL
REMARK 922        TOTAL FREE ENERGY PREDICTED BY IDOCK:   -4.32 KCAL/MOL
REMARK 923 INTER-LIGAND FREE ENERGY PREDICTED BY IDOCK:   -4.19 KCAL/MOL
REMARK 924 INTRA-LIGAND FREE ENERGY PREDICTED BY IDOCK:   -0.12 KCAL/MOL
REMARK 927      BINDING AFFINITY PREDICTED BY RF-SCORE:    0.00 PKD
ROOT
HETATM    1  C   UNL     1     -10.432  17.462  68.090  1.00  0.00    -0.389 C  
HETATM    2  C   UNL     1     -10.034  18.905  67.751  1.00  0.00    -0.355 C  
HETATM    3  N   UNL     1     -10.355  19.744  68.913  1.00  0.00    -0.594 NA 
HETATM    4  H2  UNL     1      -9.925  19.408  69.775  1.00  0.00     0.000 HD 
HETATM    5  H1  UNL     1     -10.090  20.703  68.688  1.00  0.00     0.000 HD 
ENDROOT
BRANCH   2   6
HETATM    6  C   UNL     1      -8.548  19.080  67.289  1.00  0.00    -0.298 C  
HETATM    7  C   UNL     1      -8.460  20.089  66.107  1.00  0.00    -0.302 C  
HETATM    8  C   UNL     1      -7.003  20.306  65.664  1.00  0.00    -0.292 C  
HETATM    9  C   UNL     1      -6.188  20.861  66.839  1.00  0.00    -0.341 C  
HETATM   10  C   UNL     1      -6.227  19.872  68.013  1.00  0.00    -0.268 C  
HETATM   11  C   UNL     1      -5.633  18.527  67.566  1.00  0.00    -0.146 C  
HETATM   12  C   UNL     1      -7.686  19.660  68.452  1.00  0.00    -0.366 C  
HETATM   13  C   UNL     1      -6.441  17.962  66.388  1.00  0.00    -0.263 C  
HETATM   14  C   UNL     1      -7.899  17.745  66.828  1.00  0.00    -0.262 C  
HETATM   15  C   UNL     1      -6.407  18.961  65.220  1.00  0.00    -0.314 C  
ENDBRANCH   2   6
TORSDOF 1
ENDMDL
MODEL       62
REMARK 921   NORMALIZED FREE ENERGY PREDICTED BY IDOCK:   -3.93 KCAL/MOL
REMARK 922        TOTAL FREE ENERGY PREDICTED BY IDOCK:   -4.29 KCAL/MOL
REMARK 923 INTER-LIGAND FREE ENERGY PREDICTED BY IDOCK:   -4.17 KCAL/MOL
REMARK 924 INTRA-LIGAND FREE ENERGY PREDICTED BY IDOCK:   -0.12 KCAL/MOL
REMARK 927      BINDING AFFINITY PREDICTED BY RF-SCORE:    0.00 PKD
ROOT
HETATM    1  C   UNL     1     -11.827  16.082  71.672  1.00  0.00    -0.582 C  
HETATM    2  C   UNL     1     -12.502  14.938  70.903  1.00  0.00    -0.330 C  
HETATM    3  N   UNL     1     -13.885  15.344  70.618  1.00  0.00    -0.837 NA 
HETATM    4  H2  UNL     1     -13.942  16.237  70.129  1.00  0.00     0.000 HD 
HETATM    5  H1  UNL     1     -14.334  14.584  70.106  1.00  0.00     0.000 HD 
ENDROOT
BRANCH   2   6
HETATM    6  C   UNL     1     -11.743  14.484  69.612  1.00  0.00    -0.356 C  
HETATM    7  C   UNL     1     -11.865  12.944  69.421  1.00  0.00    -0.371 C  
HETATM    8  C   UNL     1     -11.158  12.481  68.134  1.00  0.00    -0.282 C  
HETATM    9  C   UNL     1     -11.797  13.174  66.923  1.00  0.00    -0.444 C  
HETATM   10  C   UNL     1     -11.664  14.697  67.064  1.00  0.00    -0.379 C  
HETATM   11  C   UNL     1     -10.176  15.073  67.145  1.00  0.00    -0.249 C  
HETATM   12  C   UNL     1     -12.372  15.153  68.351  1.00  0.00     0.201 C  
HETATM   13  C   UNL     1      -9.526  14.384  68.355  1.00  0.00    -0.207 C  
HETATM   14  C   UNL     1     -10.231  14.844  69.643  1.00  0.00    -0.112 C  
HETATM   15  C   UNL     1      -9.672  12.860  68.214  1.00  0.00    -0.217 C  
ENDBRANCH   2   6
TORSDOF 1
ENDMDL
MODEL       63
REMARK 921   NORMALIZED FREE ENERGY PREDICTED BY IDOCK:   -3.91 KCAL/MOL
REMARK 922        TOTAL FREE ENERGY PREDICTED BY IDOCK:   -4.27 KCAL/MOL
REMARK 923 INTER-LIGAND FREE ENERGY PREDICTED BY IDOCK:   -4.14 KCAL/MOL
REMARK 924 INTRA-LIGAND FREE ENERGY PREDICTED BY IDOCK:   -0.13 KCAL/MOL
REMARK 927      BINDING AFFINITY PREDICTED BY RF-SCORE:    0.00 PKD
ROOT
HETATM    1  C   UNL     1     -11.010   6.653  67.567  1.00  0.00    -0.416 C  
HETATM    2  C   UNL     1     -11.104   5.991  68.948  1.00  0.00    -0.279 C  
HETATM    3  N   UNL     1     -10.130   4.892  68.987  1.00  0.00    -0.173 NA 
HETATM    4  H2  UNL     1      -9.184   5.194  68.756  1.00  0.00     0.000 HD 
HETATM    5  H1  UNL     1     -10.192   4.452  69.905  1.00  0.00     0.000 HD 
ENDROOT
BRANCH   2   6
HETATM    6  C   UNL     1     -10.931   6.974  70.155  1.00  0.00    -0.306 C  
HETATM    7  C   UNL     1      -9.860   6.436  71.148  1.00  0.00    -0.198 C  
HETATM    8  C   UNL     1      -9.647   7.407  72.323  1.00  0.00    -0.186 C  
HETATM    9  C   UNL     1      -9.173   8.764  71.784  1.00  0.00    -0.332 C  
HETATM   10  C   UNL     1     -10.225   9.339  70.824  1.00  0.00    -0.353 C  
HETATM   11  C   UNL     1     -11.554   9.520  71.575  1.00  0.00    -0.465 C  
HETATM   12  C   UNL     1     -10.433   8.364  69.653  1.00  0.00    -0.221 C  
HETATM   13  C   UNL     1     -12.038   8.167  72.119  1.00  0.00    -0.408 C  
HETATM   14  C   UNL     1     -12.251   7.194  70.947  1.00  0.00    -0.354 C  
HETATM   15  C   UNL     1     -10.976   7.591  73.070  1.00  0.00    -0.443 C  
ENDBRANCH   2   6
TORSDOF 1
ENDMDL
MODEL       64
REMARK 921   NORMALIZED FREE ENERGY PREDICTED BY IDOCK:   -3.87 KCAL/MOL
REMARK 922        TOTAL FREE ENERGY PREDICTED BY IDOCK:   -4.23 KCAL/MOL
REMARK 923 INTER-LIGAND FREE ENERGY PREDICTED BY IDOCK:   -4.10 KCAL/MOL
REMARK 924 INTRA-LIGAND FREE ENERGY PREDICTED BY IDOCK:   -0.13 KCAL/MOL
REMARK 927      BINDING AFFINITY PREDICTED BY RF-SCORE:    0.00 PKD
ROOT
HETATM    1  C   UNL     1     -10.252  20.329  65.983  1.00  0.00    -0.392 C  
HETATM    2  C   UNL     1      -8.897  19.618  66.087  1.00  0.00    -0.332 C  
HETATM    3  N   UNL     1      -7.972  20.514  66.793  1.00  0.00    -0.519 NA 
HETATM    4  H2  UNL     1      -8.329  20.818  67.699  1.00  0.00     0.000 HD 
HETATM    5  H1  UNL     1      -7.071  20.041  66.863  1.00  0.00     0.000 HD 
ENDROOT
BRANCH   2   6
HETATM    6  C   UNL     1      -8.955  18.196  66.742  1.00  0.00    -0.289 C  
HETATM    7  C   UNL     1      -9.048  18.313  68.291  1.00  0.00    -0.318 C  
HETATM    8  C   UNL     1      -9.147  16.926  68.952  1.00  0.00    -0.223 C  
HETATM    9  C   UNL     1     -10.401  16.205  68.442  1.00  0.00    -0.257 C  
HETATM   10  C   UNL     1     -10.326  16.044  66.917  1.00  0.00    -0.289 C  
HETATM   11  C   UNL     1      -9.078  15.224  66.552  1.00  0.00    -0.334 C  
HETATM   12  C   UNL     1     -10.228  17.433  66.263  1.00  0.00    -0.344 C  
HETATM   13  C   UNL     1      -7.815  15.937  67.059  1.00  0.00    -0.267 C  
HETATM   14  C   UNL     1      -7.715  17.324  66.400  1.00  0.00    -0.347 C  
HETATM   15  C   UNL     1      -7.901  16.105  68.584  1.00  0.00    -0.188 C  
ENDBRANCH   2   6
TORSDOF 1
ENDMDL
MODEL       65
REMARK 921   NORMALIZED FREE ENERGY PREDICTED BY IDOCK:   -3.85 KCAL/MOL
REMARK 922        TOTAL FREE ENERGY PREDICTED BY IDOCK:   -4.20 KCAL/MOL
REMARK 923 INTER-LIGAND FREE ENERGY PREDICTED BY IDOCK:   -4.08 KCAL/MOL
REMARK 924 INTRA-LIGAND FREE ENERGY PREDICTED BY IDOCK:   -0.12 KCAL/MOL
REMARK 927      BINDING AFFINITY PREDICTED BY RF-SCORE:    0.00 PKD
ROOT
HETATM    1  C   UNL     1     -12.732  13.790  65.352  1.00  0.00    -0.513 C  
HETATM    2  C   UNL     1     -11.663  13.893  66.448  1.00  0.00    -0.383 C  
HETATM    3  N   UNL     1     -12.322  14.362  67.674  1.00  0.00    -0.601 NA 
HETATM    4  H2  UNL     1     -13.112  13.779  67.947  1.00  0.00     0.000 HD 
HETATM    5  H1  UNL     1     -11.611  14.430  68.404  1.00  0.00     0.000 HD 
ENDROOT
BRANCH   2   6
HETATM    6  C   UNL     1     -10.843  12.580  66.684  1.00  0.00    -0.277 C  
HETATM    7  C   UNL     1      -9.386  12.917  67.116  1.00  0.00    -0.229 C  
HETATM    8  C   UNL     1      -8.574  11.640  67.392  1.00  0.00    -0.149 C  
HETATM    9  C   UNL     1      -9.244  10.842  68.519  1.00  0.00    -0.174 C  
HETATM   10  C   UNL     1     -10.675  10.464  68.111  1.00  0.00    -0.277 C  
HETATM   11  C   UNL     1     -10.632   9.611  66.833  1.00  0.00    -0.241 C  
HETATM   12  C   UNL     1     -11.481  11.745  67.837  1.00  0.00    -0.387 C  
HETATM   13  C   UNL     1      -9.962  10.400  65.697  1.00  0.00    -0.337 C  
HETATM   14  C   UNL     1     -10.772  11.678  65.420  1.00  0.00    -0.341 C  
HETATM   15  C   UNL     1      -8.534  10.785  66.116  1.00  0.00    -0.167 C  
ENDBRANCH   2   6
TORSDOF 1
ENDMDL
MODEL       66
REMARK 921   NORMALIZED FREE ENERGY PREDICTED BY IDOCK:   -3.82 KCAL/MOL
REMARK 922        TOTAL FREE ENERGY PREDICTED BY IDOCK:   -4.18 KCAL/MOL
REMARK 923 INTER-LIGAND FREE ENERGY PREDICTED BY IDOCK:   -4.06 KCAL/MOL
REMARK 924 INTRA-LIGAND FREE ENERGY PREDICTED BY IDOCK:   -0.12 KCAL/MOL
REMARK 927      BINDING AFFINITY PREDICTED BY RF-SCORE:    0.00 PKD
ROOT
HETATM    1  C   UNL     1     -11.433  15.008  70.679  1.00  0.00    -0.338 C  
HETATM    2  C   UNL     1     -11.179  14.671  69.203  1.00  0.00    -0.270 C  
HETATM    3  N   UNL     1     -12.478  14.396  68.575  1.00  0.00    -0.545 NA 
HETATM    4  H2  UNL     1     -13.146  15.156  68.697  1.00  0.00     0.000 HD 
HETATM    5  H1  UNL     1     -12.309  14.172  67.594  1.00  0.00     0.000 HD 
ENDROOT
BRANCH   2   6
HETATM    6  C   UNL     1     -10.362  15.753  68.419  1.00  0.00    -0.233 C  
HETATM    7  C   UNL     1      -8.858  15.695  68.816  1.00  0.00    -0.208 C  
HETATM    8  C   UNL     1      -8.031  16.725  68.027  1.00  0.00    -0.179 C  
HETATM    9  C   UNL     1      -8.149  16.433  66.525  1.00  0.00    -0.345 C  
HETATM   10  C   UNL     1      -9.620  16.514  66.093  1.00  0.00    -0.344 C  
HETATM   11  C   UNL     1     -10.160  17.923  66.386  1.00  0.00    -0.369 C  
HETATM   12  C   UNL     1     -10.442  15.483  66.885  1.00  0.00    -0.301 C  
HETATM   13  C   UNL     1     -10.045  18.227  67.888  1.00  0.00    -0.376 C  
HETATM   14  C   UNL     1     -10.871  17.199  68.679  1.00  0.00    -0.250 C  
HETATM   15  C   UNL     1      -8.572  18.133  68.316  1.00  0.00    -0.298 C  
ENDBRANCH   2   6
TORSDOF 1
ENDMDL
MODEL       67
REMARK 921   NORMALIZED FREE ENERGY PREDICTED BY IDOCK:   -3.82 KCAL/MOL
REMARK 922        TOTAL FREE ENERGY PREDICTED BY IDOCK:   -4.17 KCAL/MOL
REMARK 923 INTER-LIGAND FREE ENERGY PREDICTED BY IDOCK:   -4.04 KCAL/MOL
REMARK 924 INTRA-LIGAND FREE ENERGY PREDICTED BY IDOCK:   -0.13 KCAL/MOL
REMARK 927      BINDING AFFINITY PREDICTED BY RF-SCORE:    0.00 PKD
ROOT
HETATM    1  C   UNL     1     -12.665  13.784  65.618  1.00  0.00    -0.523 C  
HETATM    2  C   UNL     1     -11.626  13.918  66.739  1.00  0.00    -0.378 C  
HETATM    3  N   UNL     1     -12.321  14.401  67.939  1.00  0.00    -0.599 NA 
HETATM    4  H2  UNL     1     -13.112  13.813  68.202  1.00  0.00     0.000 HD 
HETATM    5  H1  UNL     1     -11.630  14.490  68.685  1.00  0.00     0.000 HD 
ENDROOT
BRANCH   2   6
HETATM    6  C   UNL     1     -10.797  12.619  67.019  1.00  0.00    -0.282 C  
HETATM    7  C   UNL     1     -11.467  11.777  68.144  1.00  0.00    -0.382 C  
HETATM    8  C   UNL     1     -10.689  10.476  68.407  1.00  0.00    -0.262 C  
HETATM    9  C   UNL     1     -10.653   9.633  67.125  1.00  0.00    -0.298 C  
HETATM   10  C   UNL     1      -9.968  10.424  66.001  1.00  0.00    -0.301 C  
HETATM   11  C   UNL     1      -8.533  10.774  66.426  1.00  0.00    -0.158 C  
HETATM   12  C   UNL     1     -10.750  11.723  65.743  1.00  0.00    -0.328 C  
HETATM   13  C   UNL     1      -8.557  11.617  67.711  1.00  0.00    -0.144 C  
HETATM   14  C   UNL     1      -9.334  12.919  67.450  1.00  0.00    -0.194 C  
HETATM   15  C   UNL     1      -9.254  10.825  68.828  1.00  0.00    -0.192 C  
ENDBRANCH   2   6
TORSDOF 1
ENDMDL
MODEL       68
REMARK 921   NORMALIZED FREE ENERGY PREDICTED BY IDOCK:   -3.82 KCAL/MOL
REMARK 922        TOTAL FREE ENERGY PREDICTED BY IDOCK:   -4.17 KCAL/MOL
REMARK 923 INTER-LIGAND FREE ENERGY PREDICTED BY IDOCK:   -4.04 KCAL/MOL
REMARK 924 INTRA-LIGAND FREE ENERGY PREDICTED BY IDOCK:   -0.13 KCAL/MOL
REMARK 927      BINDING AFFINITY PREDICTED BY RF-SCORE:    0.00 PKD
ROOT
HETATM    1  C   UNL     1      -8.157  14.514  68.329  1.00  0.00    -0.140 C  
HETATM    2  C   UNL     1      -9.520  15.219  68.311  1.00  0.00    -0.205 C  
HETATM    3  N   UNL     1     -10.209  14.896  69.568  1.00  0.00    -0.369 NA 
HETATM    4  H2  UNL     1      -9.656  15.127  70.393  1.00  0.00     0.000 HD 
HETATM    5  H1  UNL     1     -11.115  15.365  69.556  1.00  0.00     0.000 HD 
ENDROOT
BRANCH   2   6
HETATM    6  C   UNL     1      -9.453  16.762  68.055  1.00  0.00    -0.233 C  
HETATM    7  C   UNL     1      -7.973  17.235  67.959  1.00  0.00    -0.215 C  
HETATM    8  C   UNL     1      -7.885  18.744  67.667  1.00  0.00    -0.257 C  
HETATM    9  C   UNL     1      -8.581  19.048  66.334  1.00  0.00    -0.320 C  
HETATM   10  C   UNL     1     -10.055  18.623  66.407  1.00  0.00    -0.435 C  
HETATM   11  C   UNL     1     -10.752  19.395  67.538  1.00  0.00    -0.570 C  
HETATM   12  C   UNL     1     -10.136  17.115  66.697  1.00  0.00    -0.306 C  
HETATM   13  C   UNL     1     -10.063  19.097  68.879  1.00  0.00    -0.422 C  
HETATM   14  C   UNL     1     -10.149  17.590  69.172  1.00  0.00    -0.231 C  
HETATM   15  C   UNL     1      -8.586  19.515  68.797  1.00  0.00    -0.336 C  
ENDBRANCH   2   6
TORSDOF 1
ENDMDL
MODEL       69
REMARK 921   NORMALIZED FREE ENERGY PREDICTED BY IDOCK:   -3.80 KCAL/MOL
REMARK 922        TOTAL FREE ENERGY PREDICTED BY IDOCK:   -4.15 KCAL/MOL
REMARK 923 INTER-LIGAND FREE ENERGY PREDICTED BY IDOCK:   -4.02 KCAL/MOL
REMARK 924 INTRA-LIGAND FREE ENERGY PREDICTED BY IDOCK:   -0.14 KCAL/MOL
REMARK 927      BINDING AFFINITY PREDICTED BY RF-SCORE:    0.00 PKD
ROOT
HETATM    1  C   UNL     1      -8.601  11.547  68.274  1.00  0.00    -0.161 C  
HETATM    2  C   UNL     1      -8.427  12.301  66.949  1.00  0.00    -0.159 C  
HETATM    3  N   UNL     1      -8.311  11.303  65.877  1.00  0.00    -0.341 NA 
HETATM    4  H2  UNL     1      -9.093  10.648  65.860  1.00  0.00     0.000 HD 
HETATM    5  H1  UNL     1      -8.196  11.804  64.996  1.00  0.00     0.000 HD 
ENDROOT
BRANCH   2   6
HETATM    6  C   UNL     1      -9.541  13.360  66.651  1.00  0.00    -0.272 C  
HETATM    7  C   UNL     1     -10.216  13.070  65.278  1.00  0.00    -0.294 C  
HETATM    8  C   UNL     1     -11.342  14.077  64.984  1.00  0.00    -0.342 C  
HETATM    9  C   UNL     1     -12.411  13.984  66.081  1.00  0.00    -0.491 C  
HETATM   10  C   UNL     1     -11.784  14.297  67.447  1.00  0.00    -0.422 C  
HETATM   11  C   UNL     1     -11.195  15.716  67.423  1.00  0.00    -0.219 C  
HETATM   12  C   UNL     1     -10.660  13.287  67.735  1.00  0.00    -0.249 C  
HETATM   13  C   UNL     1     -10.123  15.822  66.328  1.00  0.00    -0.320 C  
HETATM   14  C   UNL     1      -8.997  14.816  66.619  1.00  0.00    -0.286 C  
HETATM   15  C   UNL     1     -10.754  15.496  64.964  1.00  0.00    -0.463 C  
ENDBRANCH   2   6
TORSDOF 1
ENDMDL
MODEL       70
REMARK 921   NORMALIZED FREE ENERGY PREDICTED BY IDOCK:   -3.79 KCAL/MOL
REMARK 922        TOTAL FREE ENERGY PREDICTED BY IDOCK:   -4.14 KCAL/MOL
REMARK 923 INTER-LIGAND FREE ENERGY PREDICTED BY IDOCK:   -4.02 KCAL/MOL
REMARK 924 INTRA-LIGAND FREE ENERGY PREDICTED BY IDOCK:   -0.12 KCAL/MOL
REMARK 927      BINDING AFFINITY PREDICTED BY RF-SCORE:    0.00 PKD
ROOT
HETATM    1  C   UNL     1     -10.749  19.259  67.042  1.00  0.00    -0.565 C  
HETATM    2  C   UNL     1      -9.515  18.349  66.986  1.00  0.00    -0.281 C  
HETATM    3  N   UNL     1      -8.653  18.691  68.126  1.00  0.00    -0.298 NA 
HETATM    4  H2  UNL     1      -9.141  18.642  69.020  1.00  0.00     0.000 HD 
HETATM    5  H1  UNL     1      -7.833  18.086  68.089  1.00  0.00     0.000 HD 
ENDROOT
BRANCH   2   6
HETATM    6  C   UNL     1      -9.836  16.817  66.929  1.00  0.00    -0.269 C  
HETATM    7  C   UNL     1     -10.756  16.408  68.116  1.00  0.00    -0.336 C  
HETATM    8  C   UNL     1     -11.116  14.913  68.056  1.00  0.00    -0.301 C  
HETATM    9  C   UNL     1     -11.855  14.618  66.744  1.00  0.00    -0.334 C  
HETATM   10  C   UNL     1     -10.960  14.980  65.550  1.00  0.00    -0.364 C  
HETATM   11  C   UNL     1      -9.669  14.149  65.610  1.00  0.00    -0.210 C  
HETATM   12  C   UNL     1     -10.605  16.475  65.616  1.00  0.00    -0.317 C  
HETATM   13  C   UNL     1      -8.921  14.437  66.921  1.00  0.00    -0.263 C  
HETATM   14  C   UNL     1      -8.560  15.931  66.984  1.00  0.00    -0.245 C  
HETATM   15  C   UNL     1      -9.825  14.083  68.113  1.00  0.00    -0.235 C  
ENDBRANCH   2   6
TORSDOF 1
ENDMDL
MODEL       71
REMARK 921   NORMALIZED FREE ENERGY PREDICTED BY IDOCK:   -3.78 KCAL/MOL
REMARK 922        TOTAL FREE ENERGY PREDICTED BY IDOCK:   -4.13 KCAL/MOL
REMARK 923 INTER-LIGAND FREE ENERGY PREDICTED BY IDOCK:   -4.01 KCAL/MOL
REMARK 924 INTRA-LIGAND FREE ENERGY PREDICTED BY IDOCK:   -0.12 KCAL/MOL
REMARK 927      BINDING AFFINITY PREDICTED BY RF-SCORE:    0.00 PKD
ROOT
HETATM    1  C   UNL     1     -10.530  19.510  65.913  1.00  0.00    -0.585 C  
HETATM    2  C   UNL     1      -9.400  18.858  66.720  1.00  0.00    -0.322 C  
HETATM    3  N   UNL     1      -9.141  19.703  67.893  1.00  0.00    -0.321 NA 
HETATM    4  H2  UNL     1      -9.978  19.872  68.451  1.00  0.00     0.000 HD 
HETATM    5  H1  UNL     1      -8.390  19.269  68.431  1.00  0.00     0.000 HD 
ENDROOT
BRANCH   2   6
HETATM    6  C   UNL     1      -9.658  17.365  67.113  1.00  0.00    -0.265 C  
HETATM    7  C   UNL     1     -10.094  16.540  65.867  1.00  0.00    -0.359 C  
HETATM    8  C   UNL     1     -10.314  15.059  66.225  1.00  0.00    -0.304 C  
HETATM    9  C   UNL     1      -9.008  14.465  66.768  1.00  0.00    -0.256 C  
HETATM   10  C   UNL     1      -8.566  15.237  68.020  1.00  0.00    -0.152 C  
HETATM   11  C   UNL     1      -9.661  15.137  69.093  1.00  0.00    -0.232 C  
HETATM   12  C   UNL     1      -8.347  16.715  67.656  1.00  0.00    -0.183 C  
HETATM   13  C   UNL     1     -10.975  15.729  68.560  1.00  0.00    -0.312 C  
HETATM   14  C   UNL     1     -10.757  17.208  68.201  1.00  0.00    -0.366 C  
HETATM   15  C   UNL     1     -11.406  14.960  67.301  1.00  0.00    -0.355 C  
ENDBRANCH   2   6
TORSDOF 1
ENDMDL
MODEL       72
REMARK 921   NORMALIZED FREE ENERGY PREDICTED BY IDOCK:   -3.76 KCAL/MOL
REMARK 922        TOTAL FREE ENERGY PREDICTED BY IDOCK:   -4.11 KCAL/MOL
REMARK 923 INTER-LIGAND FREE ENERGY PREDICTED BY IDOCK:   -3.98 KCAL/MOL
REMARK 924 INTRA-LIGAND FREE ENERGY PREDICTED BY IDOCK:   -0.13 KCAL/MOL
REMARK 927      BINDING AFFINITY PREDICTED BY RF-SCORE:    0.00 PKD
ROOT
HETATM    1  C   UNL     1     -12.449  13.834  65.329  1.00  0.00    -0.512 C  
HETATM    2  C   UNL     1     -11.541  13.923  66.562  1.00  0.00    -0.369 C  
HETATM    3  N   UNL     1     -12.342  14.452  67.673  1.00  0.00    -0.601 NA 
HETATM    4  H2  UNL     1     -13.189  13.910  67.844  1.00  0.00     0.000 HD 
HETATM    5  H1  UNL     1     -11.738  14.511  68.493  1.00  0.00     0.000 HD 
ENDROOT
BRANCH   2   6
HETATM    6  C   UNL     1     -10.821  12.584  66.940  1.00  0.00    -0.280 C  
HETATM    7  C   UNL     1     -10.680  11.669  65.688  1.00  0.00    -0.330 C  
HETATM    8  C   UNL     1      -9.940  10.363  66.030  1.00  0.00    -0.301 C  
HETATM    9  C   UNL     1      -8.535  10.694  66.552  1.00  0.00    -0.144 C  
HETATM   10  C   UNL     1      -8.639  11.571  67.809  1.00  0.00    -0.138 C  
HETATM   11  C   UNL     1      -9.425  10.817  68.892  1.00  0.00    -0.190 C  
HETATM   12  C   UNL     1      -9.380  12.874  67.460  1.00  0.00    -0.190 C  
HETATM   13  C   UNL     1     -10.834  10.480  68.380  1.00  0.00    -0.284 C  
HETATM   14  C   UNL     1     -11.576  11.782  68.037  1.00  0.00    -0.386 C  
HETATM   15  C   UNL     1     -10.723   9.611  67.117  1.00  0.00    -0.258 C  
ENDBRANCH   2   6
TORSDOF 1
ENDMDL
MODEL       73
REMARK 921   NORMALIZED FREE ENERGY PREDICTED BY IDOCK:   -3.76 KCAL/MOL
REMARK 922        TOTAL FREE ENERGY PREDICTED BY IDOCK:   -4.10 KCAL/MOL
REMARK 923 INTER-LIGAND FREE ENERGY PREDICTED BY IDOCK:   -3.98 KCAL/MOL
REMARK 924 INTRA-LIGAND FREE ENERGY PREDICTED BY IDOCK:   -0.12 KCAL/MOL
REMARK 927      BINDING AFFINITY PREDICTED BY RF-SCORE:    0.00 PKD
ROOT
HETATM    1  C   UNL     1     -10.657  19.695  65.633  1.00  0.00    -0.462 C  
HETATM    2  C   UNL     1      -9.449  19.211  66.444  1.00  0.00    -0.354 C  
HETATM    3  N   UNL     1      -9.205  20.189  67.514  1.00  0.00    -0.358 NA 
HETATM    4  H2  UNL     1     -10.028  20.356  68.092  1.00  0.00     0.000 HD 
HETATM    5  H1  UNL     1      -8.402  19.867  68.054  1.00  0.00     0.000 HD 
ENDROOT
BRANCH   2   6
HETATM    6  C   UNL     1      -9.577  17.752  66.998  1.00  0.00    -0.284 C  
HETATM    7  C   UNL     1      -8.183  17.206  67.425  1.00  0.00    -0.197 C  
HETATM    8  C   UNL     1      -8.293  15.786  68.009  1.00  0.00    -0.153 C  
HETATM    9  C   UNL     1      -9.205  15.810  69.242  1.00  0.00    -0.266 C  
HETATM   10  C   UNL     1     -10.601  16.314  68.848  1.00  0.00    -0.284 C  
HETATM   11  C   UNL     1     -11.199  15.378  67.786  1.00  0.00    -0.321 C  
HETATM   12  C   UNL     1     -10.485  17.733  68.266  1.00  0.00    -0.368 C  
HETATM   13  C   UNL     1     -10.292  15.347  66.545  1.00  0.00    -0.293 C  
HETATM   14  C   UNL     1     -10.181  16.764  65.960  1.00  0.00    -0.361 C  
HETATM   15  C   UNL     1      -8.894  14.852  66.947  1.00  0.00    -0.284 C  
ENDBRANCH   2   6
TORSDOF 1
ENDMDL
MODEL       74
REMARK 921   NORMALIZED FREE ENERGY PREDICTED BY IDOCK:   -3.73 KCAL/MOL
REMARK 922        TOTAL FREE ENERGY PREDICTED BY IDOCK:   -4.07 KCAL/MOL
REMARK 923 INTER-LIGAND FREE ENERGY PREDICTED BY IDOCK:   -3.95 KCAL/MOL
REMARK 924 INTRA-LIGAND FREE ENERGY PREDICTED BY IDOCK:   -0.12 KCAL/MOL
REMARK 927      BINDING AFFINITY PREDICTED BY RF-SCORE:    0.00 PKD
ROOT
HETATM    1  C   UNL     1      -7.155   7.682  72.677  1.00  0.00    -0.081 C  
HETATM    2  C   UNL     1      -8.540   7.228  73.158  1.00  0.00    -0.133 C  
HETATM    3  N   UNL     1      -8.734   7.744  74.519  1.00  0.00    -0.445 NA 
HETATM    4  H2  UNL     1      -8.606   8.754  74.582  1.00  0.00     0.000 HD 
HETATM    5  H1  UNL     1      -9.655   7.443  74.839  1.00  0.00     0.000 HD 
ENDROOT
BRANCH   2   6
HETATM    6  C   UNL     1      -9.721   7.616  72.206  1.00  0.00    -0.226 C  
HETATM    7  C   UNL     1     -10.007   6.466  71.197  1.00  0.00    -0.203 C  
HETATM    8  C   UNL     1     -11.192   6.811  70.276  1.00  0.00    -0.385 C  
HETATM    9  C   UNL     1     -12.450   7.038  71.126  1.00  0.00    -0.407 C  
HETATM   10  C   UNL     1     -12.211   8.191  72.112  1.00  0.00    -0.398 C  
HETATM   11  C   UNL     1     -11.882   9.471  71.329  1.00  0.00    -0.450 C  
HETATM   12  C   UNL     1     -11.027   7.839  73.029  1.00  0.00    -0.442 C  
HETATM   13  C   UNL     1     -10.624   9.255  70.474  1.00  0.00    -0.309 C  
HETATM   14  C   UNL     1      -9.438   8.909  71.391  1.00  0.00    -0.344 C  
HETATM   15  C   UNL     1     -10.865   8.094  69.497  1.00  0.00    -0.128 C  
ENDBRANCH   2   6
TORSDOF 1
ENDMDL
MODEL       75
REMARK 921   NORMALIZED FREE ENERGY PREDICTED BY IDOCK:   -3.72 KCAL/MOL
REMARK 922        TOTAL FREE ENERGY PREDICTED BY IDOCK:   -4.06 KCAL/MOL
REMARK 923 INTER-LIGAND FREE ENERGY PREDICTED BY IDOCK:   -3.94 KCAL/MOL
REMARK 924 INTRA-LIGAND FREE ENERGY PREDICTED BY IDOCK:   -0.12 KCAL/MOL
REMARK 927      BINDING AFFINITY PREDICTED BY RF-SCORE:    0.00 PKD
ROOT
HETATM    1  C   UNL     1      -7.621   6.222  72.945  1.00  0.00    -0.096 C  
HETATM    2  C   UNL     1      -8.636   7.281  73.394  1.00  0.00    -0.141 C  
HETATM    3  N   UNL     1      -7.887   8.477  73.803  1.00  0.00    -0.405 NA 
HETATM    4  H2  UNL     1      -7.257   8.816  73.077  1.00  0.00     0.000 HD 
HETATM    5  H1  UNL     1      -8.562   9.181  74.101  1.00  0.00     0.000 HD 
ENDROOT
BRANCH   2   6
HETATM    6  C   UNL     1      -9.744   7.612  72.338  1.00  0.00    -0.231 C  
HETATM    7  C   UNL     1     -11.124   7.793  73.034  1.00  0.00    -0.419 C  
HETATM    8  C   UNL     1     -12.220   8.158  72.017  1.00  0.00    -0.385 C  
HETATM    9  C   UNL     1     -11.851   9.473  71.318  1.00  0.00    -0.450 C  
HETATM   10  C   UNL     1     -10.507   9.318  70.592  1.00  0.00    -0.325 C  
HETATM   11  C   UNL     1     -10.618   8.195  69.549  1.00  0.00    -0.215 C  
HETATM   12  C   UNL     1      -9.416   8.954  71.614  1.00  0.00    -0.351 C  
HETATM   13  C   UNL     1     -10.988   6.873  70.238  1.00  0.00    -0.322 C  
HETATM   14  C   UNL     1      -9.895   6.506  71.256  1.00  0.00    -0.197 C  
HETATM   15  C   UNL     1     -12.329   7.037  70.972  1.00  0.00    -0.402 C  
ENDBRANCH   2   6
TORSDOF 1
ENDMDL
MODEL       76
REMARK 921   NORMALIZED FREE ENERGY PREDICTED BY IDOCK:   -3.71 KCAL/MOL
REMARK 922        TOTAL FREE ENERGY PREDICTED BY IDOCK:   -4.05 KCAL/MOL
REMARK 923 INTER-LIGAND FREE ENERGY PREDICTED BY IDOCK:   -3.93 KCAL/MOL
REMARK 924 INTRA-LIGAND FREE ENERGY PREDICTED BY IDOCK:   -0.12 KCAL/MOL
REMARK 927      BINDING AFFINITY PREDICTED BY RF-SCORE:    0.00 PKD
ROOT
HETATM    1  C   UNL     1      -7.296   6.759  72.803  1.00  0.00    -0.080 C  
HETATM    2  C   UNL     1      -8.690   6.969  73.408  1.00  0.00    -0.134 C  
HETATM    3  N   UNL     1      -8.561   7.933  74.509  1.00  0.00    -0.446 NA 
HETATM    4  H2  UNL     1      -8.120   8.806  74.221  1.00  0.00     0.000 HD 
HETATM    5  H1  UNL     1      -9.488   8.074  74.911  1.00  0.00     0.000 HD 
ENDROOT
BRANCH   2   6
HETATM    6  C   UNL     1      -9.790   7.394  72.378  1.00  0.00    -0.207 C  
HETATM    7  C   UNL     1      -9.338   8.657  71.587  1.00  0.00    -0.333 C  
HETATM    8  C   UNL     1     -10.389   9.068  70.541  1.00  0.00    -0.266 C  
HETATM    9  C   UNL     1     -10.596   7.918  69.546  1.00  0.00    -0.220 C  
HETATM   10  C   UNL     1     -11.075   6.664  70.291  1.00  0.00    -0.379 C  
HETATM   11  C   UNL     1     -12.401   6.970  71.004  1.00  0.00    -0.402 C  
HETATM   12  C   UNL     1     -10.020   6.258  71.334  1.00  0.00    -0.210 C  
HETATM   13  C   UNL     1     -12.206   8.121  72.004  1.00  0.00    -0.385 C  
HETATM   14  C   UNL     1     -11.155   7.713  73.050  1.00  0.00    -0.437 C  
HETATM   15  C   UNL     1     -11.716   9.370  71.254  1.00  0.00    -0.432 C  
ENDBRANCH   2   6
TORSDOF 1
ENDMDL
MODEL       77
REMARK 921   NORMALIZED FREE ENERGY PREDICTED BY IDOCK:   -3.70 KCAL/MOL
REMARK 922        TOTAL FREE ENERGY PREDICTED BY IDOCK:   -4.05 KCAL/MOL
REMARK 923 INTER-LIGAND FREE ENERGY PREDICTED BY IDOCK:   -3.92 KCAL/MOL
REMARK 924 INTRA-LIGAND FREE ENERGY PREDICTED BY IDOCK:   -0.13 KCAL/MOL
REMARK 927      BINDING AFFINITY PREDICTED BY RF-SCORE:    0.00 PKD
ROOT
HETATM    1  C   UNL     1      -6.451  16.115  68.888  1.00  0.00    -0.133 C  
HETATM    2  C   UNL     1      -7.326  16.291  67.640  1.00  0.00    -0.140 C  
HETATM    3  N   UNL     1      -8.180  15.102  67.519  1.00  0.00    -0.164 NA 
HETATM    4  H2  UNL     1      -8.725  14.920  68.361  1.00  0.00     0.000 HD 
HETATM    5  H1  UNL     1      -8.762  15.219  66.689  1.00  0.00     0.000 HD 
ENDROOT
BRANCH   2   6
HETATM    6  C   UNL     1      -8.155  17.619  67.606  1.00  0.00    -0.218 C  
HETATM    7  C   UNL     1      -7.976  18.339  66.238  1.00  0.00    -0.267 C  
HETATM    8  C   UNL     1      -8.815  19.628  66.170  1.00  0.00    -0.367 C  
HETATM    9  C   UNL     1     -10.299  19.281  66.347  1.00  0.00    -0.558 C  
HETATM   10  C   UNL     1     -10.516  18.597  67.705  1.00  0.00    -0.468 C  
HETATM   11  C   UNL     1     -10.072  19.546  68.829  1.00  0.00    -0.519 C  
HETATM   12  C   UNL     1      -9.676  17.310  67.766  1.00  0.00    -0.270 C  
HETATM   13  C   UNL     1      -8.587  19.900  68.662  1.00  0.00    -0.134 C  
HETATM   14  C   UNL     1      -7.746  18.614  68.729  1.00  0.00    -0.329 C  
HETATM   15  C   UNL     1      -8.374  20.574  67.297  1.00  0.00    -0.355 C  
ENDBRANCH   2   6
TORSDOF 1
ENDMDL
MODEL       78
REMARK 921   NORMALIZED FREE ENERGY PREDICTED BY IDOCK:   -3.69 KCAL/MOL
REMARK 922        TOTAL FREE ENERGY PREDICTED BY IDOCK:   -4.03 KCAL/MOL
REMARK 923 INTER-LIGAND FREE ENERGY PREDICTED BY IDOCK:   -3.90 KCAL/MOL
REMARK 924 INTRA-LIGAND FREE ENERGY PREDICTED BY IDOCK:   -0.13 KCAL/MOL
REMARK 927      BINDING AFFINITY PREDICTED BY RF-SCORE:    0.00 PKD
ROOT
HETATM    1  C   UNL     1     -10.587  17.267  67.981  1.00  0.00    -0.394 C  
HETATM    2  C   UNL     1      -9.586  16.106  68.038  1.00  0.00    -0.220 C  
HETATM    3  N   UNL     1      -9.104  15.996  69.421  1.00  0.00    -0.235 NA 
HETATM    4  H2  UNL     1      -9.860  15.899  70.098  1.00  0.00     0.000 HD 
HETATM    5  H1  UNL     1      -8.438  15.223  69.460  1.00  0.00     0.000 HD 
ENDROOT
BRANCH   2   6
HETATM    6  C   UNL     1     -10.136  14.743  67.496  1.00  0.00    -0.224 C  
HETATM    7  C   UNL     1      -9.494  13.551  68.264  1.00  0.00    -0.212 C  
HETATM    8  C   UNL     1     -10.052  12.204  67.773  1.00  0.00    -0.203 C  
HETATM    9  C   UNL     1     -11.569  12.166  67.998  1.00  0.00    -0.411 C  
HETATM   10  C   UNL     1     -12.239  13.312  67.225  1.00  0.00    -0.258 C  
HETATM   11  C   UNL     1     -11.937  13.160  65.726  1.00  0.00    -0.473 C  
HETATM   12  C   UNL     1     -11.677  14.656  67.721  1.00  0.00    -0.386 C  
HETATM   13  C   UNL     1     -10.420  13.196  65.489  1.00  0.00    -0.297 C  
HETATM   14  C   UNL     1      -9.860  14.541  65.980  1.00  0.00    -0.342 C  
HETATM   15  C   UNL     1      -9.754  12.053  66.273  1.00  0.00    -0.251 C  
ENDBRANCH   2   6
TORSDOF 1
ENDMDL
MODEL       79
REMARK 921   NORMALIZED FREE ENERGY PREDICTED BY IDOCK:   -3.69 KCAL/MOL
REMARK 922        TOTAL FREE ENERGY PREDICTED BY IDOCK:   -4.03 KCAL/MOL
REMARK 923 INTER-LIGAND FREE ENERGY PREDICTED BY IDOCK:   -3.90 KCAL/MOL
REMARK 924 INTRA-LIGAND FREE ENERGY PREDICTED BY IDOCK:   -0.13 KCAL/MOL
REMARK 927      BINDING AFFINITY PREDICTED BY RF-SCORE:    0.00 PKD
ROOT
HETATM    1  C   UNL     1      -7.024  16.938  66.538  1.00  0.00    -0.262 C  
HETATM    2  C   UNL     1      -8.483  17.139  66.970  1.00  0.00    -0.211 C  
HETATM    3  N   UNL     1      -9.082  18.138  66.075  1.00  0.00    -0.521 NA 
HETATM    4  H2  UNL     1      -8.992  17.892  65.090  1.00  0.00     0.000 HD 
HETATM    5  H1  UNL     1     -10.052  18.272  66.362  1.00  0.00     0.000 HD 
ENDROOT
BRANCH   2   6
HETATM    6  C   UNL     1      -9.330  15.824  67.036  1.00  0.00    -0.235 C  
HETATM    7  C   UNL     1      -9.795  15.402  65.612  1.00  0.00    -0.387 C  
HETATM    8  C   UNL     1     -10.596  14.088  65.651  1.00  0.00    -0.313 C  
HETATM    9  C   UNL     1      -9.718  12.970  66.227  1.00  0.00    -0.265 C  
HETATM   10  C   UNL     1      -9.268  13.341  67.648  1.00  0.00    -0.209 C  
HETATM   11  C   UNL     1     -10.505  13.534  68.539  1.00  0.00    -0.250 C  
HETATM   12  C   UNL     1      -8.467  14.654  67.602  1.00  0.00    -0.187 C  
HETATM   13  C   UNL     1     -11.393  14.651  67.971  1.00  0.00    -0.329 C  
HETATM   14  C   UNL     1     -10.594  15.965  67.931  1.00  0.00    -0.300 C  
HETATM   15  C   UNL     1     -11.831  14.280  66.545  1.00  0.00    -0.433 C  
ENDBRANCH   2   6
TORSDOF 1
ENDMDL
MODEL       80
REMARK 921   NORMALIZED FREE ENERGY PREDICTED BY IDOCK:   -3.65 KCAL/MOL
REMARK 922        TOTAL FREE ENERGY PREDICTED BY IDOCK:   -3.99 KCAL/MOL
REMARK 923 INTER-LIGAND FREE ENERGY PREDICTED BY IDOCK:   -3.87 KCAL/MOL
REMARK 924 INTRA-LIGAND FREE ENERGY PREDICTED BY IDOCK:   -0.13 KCAL/MOL
REMARK 927      BINDING AFFINITY PREDICTED BY RF-SCORE:    0.00 PKD
ROOT
HETATM    1  C   UNL     1     -11.193  14.683  66.809  1.00  0.00    -0.344 C  
HETATM    2  C   UNL     1     -10.734  15.431  68.068  1.00  0.00    -0.279 C  
HETATM    3  N   UNL     1     -10.401  14.429  69.089  1.00  0.00    -0.361 NA 
HETATM    4  H2  UNL     1      -9.718  13.746  68.765  1.00  0.00     0.000 HD 
HETATM    5  H1  UNL     1     -10.096  14.927  69.926  1.00  0.00     0.000 HD 
ENDROOT
BRANCH   2   6
HETATM    6  C   UNL     1      -9.565  16.446  67.834  1.00  0.00    -0.228 C  
HETATM    7  C   UNL     1     -10.090  17.909  67.902  1.00  0.00    -0.350 C  
HETATM    8  C   UNL     1      -8.948  18.924  67.714  1.00  0.00    -0.320 C  
HETATM    9  C   UNL     1      -7.904  18.729  68.821  1.00  0.00    -0.344 C  
HETATM   10  C   UNL     1      -7.340  17.302  68.761  1.00  0.00    -0.250 C  
HETATM   11  C   UNL     1      -6.684  17.072  67.390  1.00  0.00    -0.176 C  
HETATM   12  C   UNL     1      -8.486  16.294  68.950  1.00  0.00    -0.253 C  
HETATM   13  C   UNL     1      -7.722  17.265  66.273  1.00  0.00    -0.353 C  
HETATM   14  C   UNL     1      -8.864  16.252  66.459  1.00  0.00    -0.318 C  
HETATM   15  C   UNL     1      -8.290  18.691  66.346  1.00  0.00    -0.292 C  
ENDBRANCH   2   6
TORSDOF 1
ENDMDL
MODEL       81
REMARK 921   NORMALIZED FREE ENERGY PREDICTED BY IDOCK:   -3.62 KCAL/MOL
REMARK 922        TOTAL FREE ENERGY PREDICTED BY IDOCK:   -3.96 KCAL/MOL
REMARK 923 INTER-LIGAND FREE ENERGY PREDICTED BY IDOCK:   -3.82 KCAL/MOL
REMARK 924 INTRA-LIGAND FREE ENERGY PREDICTED BY IDOCK:   -0.13 KCAL/MOL
REMARK 927      BINDING AFFINITY PREDICTED BY RF-SCORE:    0.00 PKD
ROOT
HETATM    1  C   UNL     1      -9.685  16.866  68.690  1.00  0.00    -0.267 C  
HETATM    2  C   UNL     1     -10.383  15.520  68.927  1.00  0.00    -0.221 C  
HETATM    3  N   UNL     1     -11.554  15.765  69.779  1.00  0.00    -0.338 NA 
HETATM    4  H2  UNL     1     -12.181  16.473  69.396  1.00  0.00     0.000 HD 
HETATM    5  H1  UNL     1     -12.018  14.870  69.936  1.00  0.00     0.000 HD 
ENDROOT
BRANCH   2   6
HETATM    6  C   UNL     1     -10.756  14.741  67.621  1.00  0.00    -0.270 C  
HETATM    7  C   UNL     1     -12.254  14.319  67.647  1.00  0.00    -0.215 C  
HETATM    8  C   UNL     1     -12.652  13.586  66.354  1.00  0.00    -0.244 C  
HETATM    9  C   UNL     1     -12.428  14.512  65.151  1.00  0.00    -0.286 C  
HETATM   10  C   UNL     1     -10.949  14.921  65.077  1.00  0.00    -0.432 C  
HETATM   11  C   UNL     1     -10.080  13.663  64.925  1.00  0.00    -0.293 C  
HETATM   12  C   UNL     1     -10.559  15.654  66.372  1.00  0.00    -0.308 C  
HETATM   13  C   UNL     1     -10.297  12.728  66.125  1.00  0.00    -0.283 C  
HETATM   14  C   UNL     1      -9.901  13.458  67.419  1.00  0.00    -0.227 C  
HETATM   15  C   UNL     1     -11.780  12.330  66.200  1.00  0.00    -0.440 C  
ENDBRANCH   2   6
TORSDOF 1
ENDMDL
MODEL       82
REMARK 921   NORMALIZED FREE ENERGY PREDICTED BY IDOCK:   -3.62 KCAL/MOL
REMARK 922        TOTAL FREE ENERGY PREDICTED BY IDOCK:   -3.95 KCAL/MOL
REMARK 923 INTER-LIGAND FREE ENERGY PREDICTED BY IDOCK:   -3.83 KCAL/MOL
REMARK 924 INTRA-LIGAND FREE ENERGY PREDICTED BY IDOCK:   -0.12 KCAL/MOL
REMARK 927      BINDING AFFINITY PREDICTED BY RF-SCORE:    0.00 PKD
ROOT
HETATM    1  C   UNL     1      -7.819  16.018  68.129  1.00  0.00    -0.142 C  
HETATM    2  C   UNL     1      -8.005  14.883  67.114  1.00  0.00    -0.195 C  
HETATM    3  N   UNL     1      -6.883  13.948  67.275  1.00  0.00    -0.417 NA 
HETATM    4  H2  UNL     1      -6.785  13.610  68.232  1.00  0.00     0.000 HD 
HETATM    5  H1  UNL     1      -7.007  13.193  66.600  1.00  0.00     0.000 HD 
ENDROOT
BRANCH   2   6
HETATM    6  C   UNL     1      -9.392  14.160  67.191  1.00  0.00    -0.241 C  
HETATM    7  C   UNL     1      -9.898  13.797  65.764  1.00  0.00    -0.242 C  
HETATM    8  C   UNL     1     -11.242  13.050  65.820  1.00  0.00    -0.316 C  
HETATM    9  C   UNL     1     -11.071  11.751  66.620  1.00  0.00    -0.364 C  
HETATM   10  C   UNL     1     -10.603  12.076  68.046  1.00  0.00    -0.233 C  
HETATM   11  C   UNL     1     -11.647  12.970  68.734  1.00  0.00    -0.350 C  
HETATM   12  C   UNL     1      -9.260  12.823  67.983  1.00  0.00    -0.208 C  
HETATM   13  C   UNL     1     -11.826  14.274  67.940  1.00  0.00    -0.393 C  
HETATM   14  C   UNL     1     -10.484  15.023  67.882  1.00  0.00    -0.247 C  
HETATM   15  C   UNL     1     -12.284  13.942  66.511  1.00  0.00    -0.482 C  
ENDBRANCH   2   6
TORSDOF 1
ENDMDL
MODEL       83
REMARK 921   NORMALIZED FREE ENERGY PREDICTED BY IDOCK:   -3.61 KCAL/MOL
REMARK 922        TOTAL FREE ENERGY PREDICTED BY IDOCK:   -3.95 KCAL/MOL
REMARK 923 INTER-LIGAND FREE ENERGY PREDICTED BY IDOCK:   -3.83 KCAL/MOL
REMARK 924 INTRA-LIGAND FREE ENERGY PREDICTED BY IDOCK:   -0.12 KCAL/MOL
REMARK 927      BINDING AFFINITY PREDICTED BY RF-SCORE:    0.00 PKD
ROOT
HETATM    1  C   UNL     1     -12.870   9.970  71.472  1.00  0.00    -0.537 C  
HETATM    2  C   UNL     1     -11.773   9.354  70.594  1.00  0.00    -0.240 C  
HETATM    3  N   UNL     1     -10.827  10.421  70.242  1.00  0.00    -0.411 NA 
HETATM    4  H2  UNL     1     -10.454  10.905  71.058  1.00  0.00     0.000 HD 
HETATM    5  H1  UNL     1     -10.097  10.011  69.658  1.00  0.00     0.000 HD 
ENDROOT
BRANCH   2   6
HETATM    6  C   UNL     1     -11.054   8.113  71.224  1.00  0.00    -0.287 C  
HETATM    7  C   UNL     1     -10.192   7.381  70.154  1.00  0.00    -0.207 C  
HETATM    8  C   UNL     1      -9.445   6.181  70.763  1.00  0.00    -0.184 C  
HETATM    9  C   UNL     1      -8.518   6.670  71.883  1.00  0.00    -0.114 C  
HETATM   10  C   UNL     1      -9.343   7.370  72.974  1.00  0.00    -0.225 C  
HETATM   11  C   UNL     1     -10.368   6.380  73.550  1.00  0.00    -0.281 C  
HETATM   12  C   UNL     1     -10.086   8.568  72.359  1.00  0.00    -0.365 C  
HETATM   13  C   UNL     1     -11.302   5.883  72.435  1.00  0.00    -0.358 C  
HETATM   14  C   UNL     1     -12.049   7.080  71.825  1.00  0.00    -0.371 C  
HETATM   15  C   UNL     1     -10.469   5.194  71.342  1.00  0.00    -0.249 C  
ENDBRANCH   2   6
TORSDOF 1
ENDMDL
MODEL       84
REMARK 921   NORMALIZED FREE ENERGY PREDICTED BY IDOCK:   -3.61 KCAL/MOL
REMARK 922        TOTAL FREE ENERGY PREDICTED BY IDOCK:   -3.94 KCAL/MOL
REMARK 923 INTER-LIGAND FREE ENERGY PREDICTED BY IDOCK:   -3.81 KCAL/MOL
REMARK 924 INTRA-LIGAND FREE ENERGY PREDICTED BY IDOCK:   -0.13 KCAL/MOL
REMARK 927      BINDING AFFINITY PREDICTED BY RF-SCORE:    0.00 PKD
ROOT
HETATM    1  C   UNL     1      -9.663  14.417  65.882  1.00  0.00    -0.305 C  
HETATM    2  C   UNL     1     -10.362  13.168  65.329  1.00  0.00    -0.305 C  
HETATM    3  N   UNL     1     -10.048  13.074  63.897  1.00  0.00    -0.757 NA 
HETATM    4  H2  UNL     1      -9.046  13.081  63.710  1.00  0.00     0.000 HD 
HETATM    5  H1  UNL     1     -10.512  12.243  63.529  1.00  0.00     0.000 HD 
ENDROOT
BRANCH   2   6
HETATM    6  C   UNL     1     -10.028  11.842  66.093  1.00  0.00    -0.254 C  
HETATM    7  C   UNL     1      -9.957  10.644  65.102  1.00  0.00    -0.366 C  
HETATM    8  C   UNL     1      -9.591   9.337  65.828  1.00  0.00    -0.341 C  
HETATM    9  C   UNL     1      -8.221   9.493  66.501  1.00  0.00    -0.119 C  
HETATM   10  C   UNL     1      -8.265  10.649  67.512  1.00  0.00    -0.111 C  
HETATM   11  C   UNL     1      -9.331  10.351  68.579  1.00  0.00    -0.160 C  
HETATM   12  C   UNL     1      -8.631  11.951  66.780  1.00  0.00    -0.181 C  
HETATM   13  C   UNL     1     -10.708  10.193  67.915  1.00  0.00    -0.317 C  
HETATM   14  C   UNL     1     -11.076  11.497  67.188  1.00  0.00    -0.355 C  
HETATM   15  C   UNL     1     -10.654   9.042  66.898  1.00  0.00    -0.243 C  
ENDBRANCH   2   6
TORSDOF 1
ENDMDL
MODEL       85
REMARK 921   NORMALIZED FREE ENERGY PREDICTED BY IDOCK:   -3.57 KCAL/MOL
REMARK 922        TOTAL FREE ENERGY PREDICTED BY IDOCK:   -3.90 KCAL/MOL
REMARK 923 INTER-LIGAND FREE ENERGY PREDICTED BY IDOCK:   -3.78 KCAL/MOL
REMARK 924 INTRA-LIGAND FREE ENERGY PREDICTED BY IDOCK:   -0.13 KCAL/MOL
REMARK 927      BINDING AFFINITY PREDICTED BY RF-SCORE:    0.00 PKD
ROOT
HETATM    1  C   UNL     1      -6.896  13.198  67.471  1.00  0.00    -0.156 C  
HETATM    2  C   UNL     1      -8.041  14.218  67.526  1.00  0.00    -0.187 C  
HETATM    3  N   UNL     1      -7.680  15.346  66.656  1.00  0.00    -0.248 NA 
HETATM    4  H2  UNL     1      -7.454  15.056  65.705  1.00  0.00     0.000 HD 
HETATM    5  H1  UNL     1      -8.441  16.024  66.692  1.00  0.00     0.000 HD 
ENDROOT
BRANCH   2   6
HETATM    6  C   UNL     1      -9.451  13.634  67.178  1.00  0.00    -0.244 C  
HETATM    7  C   UNL     1     -10.506  14.095  68.226  1.00  0.00    -0.249 C  
HETATM    8  C   UNL     1     -11.908  13.563  67.881  1.00  0.00    -0.397 C  
HETATM    9  C   UNL     1     -12.329  14.090  66.502  1.00  0.00    -0.442 C  
HETATM   10  C   UNL     1     -11.325  13.625  65.438  1.00  0.00    -0.311 C  
HETATM   11  C   UNL     1     -11.288  12.089  65.410  1.00  0.00    -0.375 C  
HETATM   12  C   UNL     1      -9.927  14.160  65.789  1.00  0.00    -0.331 C  
HETATM   13  C   UNL     1     -10.868  11.550  66.787  1.00  0.00    -0.330 C  
HETATM   14  C   UNL     1      -9.467  12.080  67.135  1.00  0.00    -0.187 C  
HETATM   15  C   UNL     1     -11.870  12.028  67.850  1.00  0.00    -0.320 C  
ENDBRANCH   2   6
TORSDOF 1
ENDMDL
MODEL       86
REMARK 921   NORMALIZED FREE ENERGY PREDICTED BY IDOCK:   -3.57 KCAL/MOL
REMARK 922        TOTAL FREE ENERGY PREDICTED BY IDOCK:   -3.90 KCAL/MOL
REMARK 923 INTER-LIGAND FREE ENERGY PREDICTED BY IDOCK:   -3.78 KCAL/MOL
REMARK 924 INTRA-LIGAND FREE ENERGY PREDICTED BY IDOCK:   -0.12 KCAL/MOL
REMARK 927      BINDING AFFINITY PREDICTED BY RF-SCORE:    0.00 PKD
ROOT
HETATM    1  C   UNL     1     -12.865   9.976  71.475  1.00  0.00    -0.537 C  
HETATM    2  C   UNL     1     -11.736   9.402  70.608  1.00  0.00    -0.240 C  
HETATM    3  N   UNL     1     -10.842  10.509  70.244  1.00  0.00    -0.446 NA 
HETATM    4  H2  UNL     1     -10.496  11.021  71.054  1.00  0.00     0.000 HD 
HETATM    5  H1  UNL     1     -10.092  10.127  69.667  1.00  0.00     0.000 HD 
ENDROOT
BRANCH   2   6
HETATM    6  C   UNL     1     -10.960   8.206  71.256  1.00  0.00    -0.281 C  
HETATM    7  C   UNL     1     -11.954   7.201  71.909  1.00  0.00    -0.343 C  
HETATM    8  C   UNL     1     -11.213   5.997  72.518  1.00  0.00    -0.333 C  
HETATM    9  C   UNL     1     -10.435   5.265  71.416  1.00  0.00    -0.273 C  
HETATM   10  C   UNL     1      -9.421   6.222  70.771  1.00  0.00    -0.185 C  
HETATM   11  C   UNL     1      -8.442   6.724  71.844  1.00  0.00    -0.116 C  
HETATM   12  C   UNL     1     -10.167   7.422  70.165  1.00  0.00    -0.207 C  
HETATM   13  C   UNL     1      -9.210   7.458  72.954  1.00  0.00    -0.198 C  
HETATM   14  C   UNL     1      -9.952   8.662  72.348  1.00  0.00    -0.320 C  
HETATM   15  C   UNL     1     -10.231   6.500  73.588  1.00  0.00    -0.305 C  
ENDBRANCH   2   6
TORSDOF 1
ENDMDL
MODEL       87
REMARK 921   NORMALIZED FREE ENERGY PREDICTED BY IDOCK:   -3.55 KCAL/MOL
REMARK 922        TOTAL FREE ENERGY PREDICTED BY IDOCK:   -3.89 KCAL/MOL
REMARK 923 INTER-LIGAND FREE ENERGY PREDICTED BY IDOCK:   -3.77 KCAL/MOL
REMARK 924 INTRA-LIGAND FREE ENERGY PREDICTED BY IDOCK:   -0.12 KCAL/MOL
REMARK 927      BINDING AFFINITY PREDICTED BY RF-SCORE:    0.00 PKD
ROOT
HETATM    1  C   UNL     1     -13.530   9.371  71.713  1.00  0.00    -0.485 C  
HETATM    2  C   UNL     1     -12.160   8.860  72.177  1.00  0.00    -0.359 C  
HETATM    3  N   UNL     1     -12.352   7.527  72.764  1.00  0.00    -0.467 NA 
HETATM    4  H2  UNL     1     -12.821   6.880  72.131  1.00  0.00     0.000 HD 
HETATM    5  H1  UNL     1     -11.441   7.187  73.072  1.00  0.00     0.000 HD 
ENDROOT
BRANCH   2   6
HETATM    6  C   UNL     1     -11.054   8.862  71.069  1.00  0.00    -0.340 C  
HETATM    7  C   UNL     1      -9.641   8.722  71.707  1.00  0.00    -0.371 C  
HETATM    8  C   UNL     1      -8.542   8.681  70.631  1.00  0.00    -0.183 C  
HETATM    9  C   UNL     1      -8.778   7.482  69.704  1.00  0.00    -0.137 C  
HETATM   10  C   UNL     1     -10.152   7.606  69.031  1.00  0.00    -0.199 C  
HETATM   11  C   UNL     1     -10.203   8.906  68.212  1.00  0.00    -0.239 C  
HETATM   12  C   UNL     1     -11.246   7.645  70.111  1.00  0.00    -0.193 C  
HETATM   13  C   UNL     1      -9.967  10.115  69.132  1.00  0.00    -0.221 C  
HETATM   14  C   UNL     1     -11.064  10.157  70.208  1.00  0.00    -0.384 C  
HETATM   15  C   UNL     1      -8.595   9.979  69.811  1.00  0.00    -0.192 C  
ENDBRANCH   2   6
TORSDOF 1
ENDMDL
MODEL       88
REMARK 921   NORMALIZED FREE ENERGY PREDICTED BY IDOCK:   -3.55 KCAL/MOL
REMARK 922        TOTAL FREE ENERGY PREDICTED BY IDOCK:   -3.88 KCAL/MOL
REMARK 923 INTER-LIGAND FREE ENERGY PREDICTED BY IDOCK:   -3.75 KCAL/MOL
REMARK 924 INTRA-LIGAND FREE ENERGY PREDICTED BY IDOCK:   -0.13 KCAL/MOL
REMARK 927      BINDING AFFINITY PREDICTED BY RF-SCORE:    0.00 PKD
ROOT
HETATM    1  C   UNL     1      -6.790  14.358  68.922  1.00  0.00    -0.102 C  
HETATM    2  C   UNL     1      -7.255  14.217  67.467  1.00  0.00    -0.176 C  
HETATM    3  N   UNL     1      -7.133  12.802  67.091  1.00  0.00    -0.357 NA 
HETATM    4  H2  UNL     1      -7.632  12.180  67.727  1.00  0.00     0.000 HD 
HETATM    5  H1  UNL     1      -7.443  12.708  66.124  1.00  0.00     0.000 HD 
ENDROOT
BRANCH   2   6
HETATM    6  C   UNL     1      -8.688  14.782  67.182  1.00  0.00    -0.241 C  
HETATM    7  C   UNL     1      -9.366  15.240  68.506  1.00  0.00    -0.200 C  
HETATM    8  C   UNL     1     -10.761  15.835  68.244  1.00  0.00    -0.281 C  
HETATM    9  C   UNL     1     -10.631  17.051  67.317  1.00  0.00    -0.267 C  
HETATM   10  C   UNL     1      -9.994  16.626  65.986  1.00  0.00    -0.346 C  
HETATM   11  C   UNL     1     -10.877  15.562  65.316  1.00  0.00    -0.425 C  
HETATM   12  C   UNL     1      -8.601  16.033  66.255  1.00  0.00    -0.363 C  
HETATM   13  C   UNL     1     -11.014  14.339  66.236  1.00  0.00    -0.317 C  
HETATM   14  C   UNL     1      -9.621  13.742  66.500  1.00  0.00    -0.295 C  
HETATM   15  C   UNL     1     -11.642  14.772  67.570  1.00  0.00    -0.379 C  
ENDBRANCH   2   6
TORSDOF 1
ENDMDL
MODEL       89
REMARK 921   NORMALIZED FREE ENERGY PREDICTED BY IDOCK:   -3.52 KCAL/MOL
REMARK 922        TOTAL FREE ENERGY PREDICTED BY IDOCK:   -3.86 KCAL/MOL
REMARK 923 INTER-LIGAND FREE ENERGY PREDICTED BY IDOCK:   -3.74 KCAL/MOL
REMARK 924 INTRA-LIGAND FREE ENERGY PREDICTED BY IDOCK:   -0.12 KCAL/MOL
REMARK 927      BINDING AFFINITY PREDICTED BY RF-SCORE:    0.00 PKD
ROOT
HETATM    1  C   UNL     1      -8.375  11.385  68.166  1.00  0.00    -0.149 C  
HETATM    2  C   UNL     1      -8.145  12.893  68.007  1.00  0.00    -0.159 C  
HETATM    3  N   UNL     1      -7.030  13.081  67.069  1.00  0.00    -0.400 NA 
HETATM    4  H2  UNL     1      -7.179  12.608  66.178  1.00  0.00     0.000 HD 
HETATM    5  H1  UNL     1      -6.878  14.084  66.963  1.00  0.00     0.000 HD 
ENDROOT
BRANCH   2   6
HETATM    6  C   UNL     1      -9.415  13.705  67.584  1.00  0.00    -0.221 C  
HETATM    7  C   UNL     1     -10.656  13.244  68.403  1.00  0.00    -0.263 C  
HETATM    8  C   UNL     1     -11.908  14.058  68.030  1.00  0.00    -0.403 C  
HETATM    9  C   UNL     1     -11.657  15.544  68.321  1.00  0.00    -0.344 C  
HETATM   10  C   UNL     1     -10.457  16.040  67.501  1.00  0.00    -0.297 C  
HETATM   11  C   UNL     1     -10.750  15.852  66.005  1.00  0.00    -0.289 C  
HETATM   12  C   UNL     1      -9.210  15.223  67.879  1.00  0.00    -0.184 C  
HETATM   13  C   UNL     1     -11.003  14.367  65.701  1.00  0.00    -0.314 C  
HETATM   14  C   UNL     1      -9.754  13.551  66.074  1.00  0.00    -0.233 C  
HETATM   15  C   UNL     1     -12.198  13.873  66.533  1.00  0.00    -0.482 C  
ENDBRANCH   2   6
TORSDOF 1
ENDMDL
MODEL       90
REMARK 921   NORMALIZED FREE ENERGY PREDICTED BY IDOCK:   -3.52 KCAL/MOL
REMARK 922        TOTAL FREE ENERGY PREDICTED BY IDOCK:   -3.85 KCAL/MOL
REMARK 923 INTER-LIGAND FREE ENERGY PREDICTED BY IDOCK:   -3.72 KCAL/MOL
REMARK 924 INTRA-LIGAND FREE ENERGY PREDICTED BY IDOCK:   -0.13 KCAL/MOL
REMARK 927      BINDING AFFINITY PREDICTED BY RF-SCORE:    0.00 PKD
ROOT
HETATM    1  C   UNL     1      -9.107  17.673  66.923  1.00  0.00    -0.262 C  
HETATM    2  C   UNL     1      -8.525  16.261  66.779  1.00  0.00    -0.247 C  
HETATM    3  N   UNL     1      -7.382  16.150  67.696  1.00  0.00    -0.131 NA 
HETATM    4  H2  UNL     1      -7.624  16.381  68.659  1.00  0.00     0.000 HD 
HETATM    5  H1  UNL     1      -6.995  15.211  67.600  1.00  0.00     0.000 HD 
ENDROOT
BRANCH   2   6
HETATM    6  C   UNL     1      -9.560  15.104  66.984  1.00  0.00    -0.235 C  
HETATM    7  C   UNL     1     -10.857  15.646  67.654  1.00  0.00    -0.307 C  
HETATM    8  C   UNL     1     -11.904  14.531  67.829  1.00  0.00    -0.390 C  
HETATM    9  C   UNL     1     -12.270  13.954  66.455  1.00  0.00    -0.482 C  
HETATM   10  C   UNL     1     -11.016  13.381  65.780  1.00  0.00    -0.288 C  
HETATM   11  C   UNL     1     -10.425  12.270  66.662  1.00  0.00    -0.247 C  
HETATM   12  C   UNL     1      -9.974  14.499  65.607  1.00  0.00    -0.376 C  
HETATM   13  C   UNL     1     -10.054  12.837  68.041  1.00  0.00    -0.230 C  
HETATM   14  C   UNL     1      -9.008  13.951  67.869  1.00  0.00    -0.191 C  
HETATM   15  C   UNL     1     -11.311  13.419  68.708  1.00  0.00    -0.332 C  
ENDBRANCH   2   6
TORSDOF 1
ENDMDL
MODEL       91
REMARK 921   NORMALIZED FREE ENERGY PREDICTED BY IDOCK:   -3.48 KCAL/MOL
REMARK 922        TOTAL FREE ENERGY PREDICTED BY IDOCK:   -3.81 KCAL/MOL
REMARK 923 INTER-LIGAND FREE ENERGY PREDICTED BY IDOCK:   -3.68 KCAL/MOL
REMARK 924 INTRA-LIGAND FREE ENERGY PREDICTED BY IDOCK:   -0.12 KCAL/MOL
REMARK 927      BINDING AFFINITY PREDICTED BY RF-SCORE:    0.00 PKD
ROOT
HETATM    1  C   UNL     1      -9.689   4.913  68.875  1.00  0.00    -0.242 C  
HETATM    2  C   UNL     1     -10.199   4.857  70.320  1.00  0.00    -0.229 C  
HETATM    3  N   UNL     1      -9.304   3.973  71.079  1.00  0.00    -0.135 NA 
HETATM    4  H2  UNL     1      -8.325   4.252  71.016  1.00  0.00     0.000 HD 
HETATM    5  H1  UNL     1      -9.643   3.936  72.041  1.00  0.00     0.000 HD 
ENDROOT
BRANCH   2   6
HETATM    6  C   UNL     1     -10.368   6.255  71.007  1.00  0.00    -0.258 C  
HETATM    7  C   UNL     1      -8.991   6.971  71.131  1.00  0.00    -0.146 C  
HETATM    8  C   UNL     1      -9.141   8.364  71.768  1.00  0.00    -0.283 C  
HETATM    9  C   UNL     1     -10.061   9.228  70.896  1.00  0.00    -0.373 C  
HETATM   10  C   UNL     1     -11.442   8.565  70.779  1.00  0.00    -0.281 C  
HETATM   11  C   UNL     1     -12.054   8.414  72.181  1.00  0.00    -0.435 C  
HETATM   12  C   UNL     1     -11.285   7.174  70.142  1.00  0.00    -0.295 C  
HETATM   13  C   UNL     1     -11.140   7.550  73.063  1.00  0.00    -0.413 C  
HETATM   14  C   UNL     1     -10.988   6.157  72.429  1.00  0.00    -0.299 C  
HETATM   15  C   UNL     1      -9.757   8.213  73.167  1.00  0.00    -0.294 C  
ENDBRANCH   2   6
TORSDOF 1
ENDMDL
MODEL       92
REMARK 921   NORMALIZED FREE ENERGY PREDICTED BY IDOCK:   -3.46 KCAL/MOL
REMARK 922        TOTAL FREE ENERGY PREDICTED BY IDOCK:   -3.79 KCAL/MOL
REMARK 923 INTER-LIGAND FREE ENERGY PREDICTED BY IDOCK:   -3.67 KCAL/MOL
REMARK 924 INTRA-LIGAND FREE ENERGY PREDICTED BY IDOCK:   -0.13 KCAL/MOL
REMARK 927      BINDING AFFINITY PREDICTED BY RF-SCORE:    0.00 PKD
ROOT
HETATM    1  C   UNL     1      -9.547   4.952  67.829  1.00  0.00    -0.184 C  
HETATM    2  C   UNL     1     -10.188   6.267  68.293  1.00  0.00    -0.169 C  
HETATM    3  N   UNL     1     -11.436   6.448  67.539  1.00  0.00    -0.675 NA 
HETATM    4  H2  UNL     1     -12.067   5.651  67.620  1.00  0.00     0.000 HD 
HETATM    5  H1  UNL     1     -11.863   7.322  67.848  1.00  0.00     0.000 HD 
ENDROOT
BRANCH   2   6
HETATM    6  C   UNL     1     -10.412   6.372  69.839  1.00  0.00    -0.265 C  
HETATM    7  C   UNL     1      -9.463   7.441  70.456  1.00  0.00    -0.161 C  
HETATM    8  C   UNL     1      -9.696   7.589  71.970  1.00  0.00    -0.195 C  
HETATM    9  C   UNL     1     -11.146   8.021  72.225  1.00  0.00    -0.393 C  
HETATM   10  C   UNL     1     -12.110   6.970  71.656  1.00  0.00    -0.384 C  
HETATM   11  C   UNL     1     -11.850   5.618  72.339  1.00  0.00    -0.181 C  
HETATM   12  C   UNL     1     -11.873   6.827  70.143  1.00  0.00    -0.321 C  
HETATM   13  C   UNL     1     -10.399   5.175  72.091  1.00  0.00    -0.272 C  
HETATM   14  C   UNL     1     -10.164   5.027  70.578  1.00  0.00    -0.316 C  
HETATM   15  C   UNL     1      -9.439   6.236  72.652  1.00  0.00    -0.148 C  
ENDBRANCH   2   6
TORSDOF 1
ENDMDL
MODEL       93
REMARK 921   NORMALIZED FREE ENERGY PREDICTED BY IDOCK:   -3.42 KCAL/MOL
REMARK 922        TOTAL FREE ENERGY PREDICTED BY IDOCK:   -3.75 KCAL/MOL
REMARK 923 INTER-LIGAND FREE ENERGY PREDICTED BY IDOCK:   -3.61 KCAL/MOL
REMARK 924 INTRA-LIGAND FREE ENERGY PREDICTED BY IDOCK:   -0.13 KCAL/MOL
REMARK 927      BINDING AFFINITY PREDICTED BY RF-SCORE:    0.00 PKD
ROOT
HETATM    1  C   UNL     1     -13.071   9.692  71.996  1.00  0.00    -0.537 C  
HETATM    2  C   UNL     1     -12.297   8.393  71.741  1.00  0.00    -0.331 C  
HETATM    3  N   UNL     1     -13.241   7.406  71.200  1.00  0.00    -0.585 NA 
HETATM    4  H2  UNL     1     -13.733   7.742  70.373  1.00  0.00     0.000 HD 
HETATM    5  H1  UNL     1     -12.726   6.542  71.030  1.00  0.00     0.000 HD 
ENDROOT
BRANCH   2   6
HETATM    6  C   UNL     1     -11.030   8.556  70.835  1.00  0.00    -0.292 C  
HETATM    7  C   UNL     1     -10.974   7.423  69.768  1.00  0.00    -0.215 C  
HETATM    8  C   UNL     1      -9.757   7.588  68.840  1.00  0.00    -0.151 C  
HETATM    9  C   UNL     1      -9.847   8.937  68.114  1.00  0.00    -0.193 C  
HETATM   10  C   UNL     1      -9.871  10.080  69.139  1.00  0.00    -0.213 C  
HETATM   11  C   UNL     1      -8.587  10.035  69.983  1.00  0.00    -0.122 C  
HETATM   12  C   UNL     1     -11.089   9.910  70.062  1.00  0.00    -0.335 C  
HETATM   13  C   UNL     1      -8.487   8.687  70.715  1.00  0.00    -0.181 C  
HETATM   14  C   UNL     1      -9.702   8.520  71.642  1.00  0.00    -0.322 C  
HETATM   15  C   UNL     1      -8.474   7.547  69.684  1.00  0.00    -0.135 C  
ENDBRANCH   2   6
TORSDOF 1
ENDMDL
MODEL       94
REMARK 921   NORMALIZED FREE ENERGY PREDICTED BY IDOCK:   -3.42 KCAL/MOL
REMARK 922        TOTAL FREE ENERGY PREDICTED BY IDOCK:   -3.75 KCAL/MOL
REMARK 923 INTER-LIGAND FREE ENERGY PREDICTED BY IDOCK:   -3.61 KCAL/MOL
REMARK 924 INTRA-LIGAND FREE ENERGY PREDICTED BY IDOCK:   -0.14 KCAL/MOL
REMARK 927      BINDING AFFINITY PREDICTED BY RF-SCORE:    0.00 PKD
ROOT
HETATM    1  C   UNL     1     -11.274   4.939  73.242  1.00  0.00    -0.423 C  
HETATM    2  C   UNL     1     -11.515   6.206  72.410  1.00  0.00    -0.303 C  
HETATM    3  N   UNL     1     -11.253   7.366  73.273  1.00  0.00    -0.596 NA 
HETATM    4  H2  UNL     1     -10.327   7.342  73.698  1.00  0.00     0.000 HD 
HETATM    5  H1  UNL     1     -11.413   8.208  72.720  1.00  0.00     0.000 HD 
ENDROOT
BRANCH   2   6
HETATM    6  C   UNL     1     -10.703   6.271  71.072  1.00  0.00    -0.313 C  
HETATM    7  C   UNL     1      -9.610   7.376  71.151  1.00  0.00    -0.162 C  
HETATM    8  C   UNL     1      -8.774   7.430  69.860  1.00  0.00    -0.141 C  
HETATM    9  C   UNL     1      -8.084   6.078  69.641  1.00  0.00    -0.107 C  
HETATM   10  C   UNL     1      -9.139   4.967  69.525  1.00  0.00    -0.150 C  
HETATM   11  C   UNL     1     -10.067   5.268  68.339  1.00  0.00    -0.224 C  
HETATM   12  C   UNL     1      -9.970   4.918  70.819  1.00  0.00    -0.292 C  
HETATM   13  C   UNL     1     -10.764   6.622  68.547  1.00  0.00    -0.308 C  
HETATM   14  C   UNL     1     -11.599   6.571  69.838  1.00  0.00    -0.433 C  
HETATM   15  C   UNL     1      -9.704   7.727  68.673  1.00  0.00    -0.159 C  
ENDBRANCH   2   6
TORSDOF 1
ENDMDL
MODEL       95
REMARK 921   NORMALIZED FREE ENERGY PREDICTED BY IDOCK:   -3.42 KCAL/MOL
REMARK 922        TOTAL FREE ENERGY PREDICTED BY IDOCK:   -3.75 KCAL/MOL
REMARK 923 INTER-LIGAND FREE ENERGY PREDICTED BY IDOCK:   -3.62 KCAL/MOL
REMARK 924 INTRA-LIGAND FREE ENERGY PREDICTED BY IDOCK:   -0.12 KCAL/MOL
REMARK 927      BINDING AFFINITY PREDICTED BY RF-SCORE:    0.00 PKD
ROOT
HETATM    1  C   UNL     1      -7.983  10.004  69.747  1.00  0.00    -0.190 C  
HETATM    2  C   UNL     1      -9.075   9.095  69.168  1.00  0.00    -0.144 C  
HETATM    3  N   UNL     1      -8.435   8.169  68.225  1.00  0.00    -0.129 NA 
HETATM    4  H2  UNL     1      -7.667   7.645  68.644  1.00  0.00     0.000 HD 
HETATM    5  H1  UNL     1      -9.161   7.564  67.840  1.00  0.00     0.000 HD 
ENDROOT
BRANCH   2   6
HETATM    6  C   UNL     1      -9.935   8.344  70.240  1.00  0.00    -0.193 C  
HETATM    7  C   UNL     1     -10.866   7.300  69.559  1.00  0.00    -0.224 C  
HETATM    8  C   UNL     1     -11.692   6.522  70.600  1.00  0.00    -0.436 C  
HETATM    9  C   UNL     1     -10.744   5.781  71.552  1.00  0.00    -0.319 C  
HETATM   10  C   UNL     1      -9.831   6.787  72.267  1.00  0.00    -0.166 C  
HETATM   11  C   UNL     1     -10.693   7.778  73.067  1.00  0.00    -0.446 C  
HETATM   12  C   UNL     1      -9.009   7.561  71.222  1.00  0.00    -0.142 C  
HETATM   13  C   UNL     1     -11.646   8.526  72.122  1.00  0.00    -0.447 C  
HETATM   14  C   UNL     1     -10.824   9.304  71.081  1.00  0.00    -0.407 C  
HETATM   15  C   UNL     1     -12.550   7.513  71.402  1.00  0.00    -0.382 C  
ENDBRANCH   2   6
TORSDOF 1
ENDMDL
MODEL       96
REMARK 921   NORMALIZED FREE ENERGY PREDICTED BY IDOCK:   -3.40 KCAL/MOL
REMARK 922        TOTAL FREE ENERGY PREDICTED BY IDOCK:   -3.73 KCAL/MOL
REMARK 923 INTER-LIGAND FREE ENERGY PREDICTED BY IDOCK:   -3.61 KCAL/MOL
REMARK 924 INTRA-LIGAND FREE ENERGY PREDICTED BY IDOCK:   -0.12 KCAL/MOL
REMARK 927      BINDING AFFINITY PREDICTED BY RF-SCORE:    0.00 PKD
ROOT
HETATM    1  C   UNL     1     -10.054   7.337  73.775  1.00  0.00    -0.375 C  
HETATM    2  C   UNL     1     -11.086   6.952  72.706  1.00  0.00    -0.269 C  
HETATM    3  N   UNL     1     -12.158   7.955  72.736  1.00  0.00    -0.614 NA 
HETATM    4  H2  UNL     1     -11.813   8.908  72.626  1.00  0.00     0.000 HD 
HETATM    5  H1  UNL     1     -12.845   7.700  72.025  1.00  0.00     0.000 HD 
ENDROOT
BRANCH   2   6
HETATM    6  C   UNL     1     -10.496   6.763  71.268  1.00  0.00    -0.237 C  
HETATM    7  C   UNL     1      -9.528   5.544  71.232  1.00  0.00    -0.185 C  
HETATM    8  C   UNL     1      -8.967   5.317  69.817  1.00  0.00    -0.138 C  
HETATM    9  C   UNL     1     -10.124   5.048  68.845  1.00  0.00    -0.215 C  
HETATM   10  C   UNL     1     -11.082   6.248  68.832  1.00  0.00    -0.434 C  
HETATM   11  C   UNL     1     -10.318   7.505  68.387  1.00  0.00    -0.226 C  
HETATM   12  C   UNL     1     -11.639   6.470  70.249  1.00  0.00    -0.473 C  
HETATM   13  C   UNL     1      -9.156   7.783  69.353  1.00  0.00    -0.146 C  
HETATM   14  C   UNL     1      -9.714   8.010  70.768  1.00  0.00    -0.179 C  
HETATM   15  C   UNL     1      -8.207   6.575  69.370  1.00  0.00    -0.119 C  
ENDBRANCH   2   6
TORSDOF 1
ENDMDL
MODEL       97
REMARK 921   NORMALIZED FREE ENERGY PREDICTED BY IDOCK:   -3.40 KCAL/MOL
REMARK 922        TOTAL FREE ENERGY PREDICTED BY IDOCK:   -3.72 KCAL/MOL
REMARK 923 INTER-LIGAND FREE ENERGY PREDICTED BY IDOCK:   -3.60 KCAL/MOL
REMARK 924 INTRA-LIGAND FREE ENERGY PREDICTED BY IDOCK:   -0.12 KCAL/MOL
REMARK 927      BINDING AFFINITY PREDICTED BY RF-SCORE:    0.00 PKD
ROOT
HETATM    1  C   UNL     1      -7.655   9.749  70.261  1.00  0.00    -0.184 C  
HETATM    2  C   UNL     1      -8.797   9.023  69.537  1.00  0.00    -0.146 C  
HETATM    3  N   UNL     1      -8.203   8.196  68.479  1.00  0.00    -0.124 NA 
HETATM    4  H2  UNL     1      -7.489   7.558  68.829  1.00  0.00     0.000 HD 
HETATM    5  H1  UNL     1      -8.962   7.713  67.997  1.00  0.00     0.000 HD 
ENDROOT
BRANCH   2   6
HETATM    6  C   UNL     1      -9.741   8.195  70.473  1.00  0.00    -0.181 C  
HETATM    7  C   UNL     1      -8.906   7.352  71.481  1.00  0.00    -0.131 C  
HETATM    8  C   UNL     1      -9.816   6.561  72.437  1.00  0.00    -0.169 C  
HETATM    9  C   UNL     1     -10.695   7.536  73.230  1.00  0.00    -0.437 C  
HETATM   10  C   UNL     1     -11.558   8.363  72.265  1.00  0.00    -0.453 C  
HETATM   11  C   UNL     1     -12.450   7.419  71.444  1.00  0.00    -0.402 C  
HETATM   12  C   UNL     1     -10.643   9.151  71.313  1.00  0.00    -0.399 C  
HETATM   13  C   UNL     1     -11.579   6.437  70.645  1.00  0.00    -0.412 C  
HETATM   14  C   UNL     1     -10.668   7.225  69.689  1.00  0.00    -0.249 C  
HETATM   15  C   UNL     1     -10.710   5.620  71.615  1.00  0.00    -0.313 C  
ENDBRANCH   2   6
TORSDOF 1
ENDMDL
MODEL       98
REMARK 921   NORMALIZED FREE ENERGY PREDICTED BY IDOCK:   -3.38 KCAL/MOL
REMARK 922        TOTAL FREE ENERGY PREDICTED BY IDOCK:   -3.71 KCAL/MOL
REMARK 923 INTER-LIGAND FREE ENERGY PREDICTED BY IDOCK:   -3.58 KCAL/MOL
REMARK 924 INTRA-LIGAND FREE ENERGY PREDICTED BY IDOCK:   -0.13 KCAL/MOL
REMARK 927      BINDING AFFINITY PREDICTED BY RF-SCORE:    0.00 PKD
ROOT
HETATM    1  C   UNL     1     -11.946   8.665  71.170  1.00  0.00    -0.320 C  
HETATM    2  C   UNL     1     -12.007   7.154  70.914  1.00  0.00    -0.334 C  
HETATM    3  N   UNL     1     -11.741   6.929  69.487  1.00  0.00    -0.600 NA 
HETATM    4  H2  UNL     1     -10.864   7.347  69.177  1.00  0.00     0.000 HD 
HETATM    5  H1  UNL     1     -11.781   5.923  69.317  1.00  0.00     0.000 HD 
ENDROOT
BRANCH   2   6
HETATM    6  C   UNL     1     -11.069   6.299  71.831  1.00  0.00    -0.315 C  
HETATM    7  C   UNL     1     -11.908   5.357  72.743  1.00  0.00    -0.162 C  
HETATM    8  C   UNL     1     -11.002   4.478  73.624  1.00  0.00    -0.382 C  
HETATM    9  C   UNL     1     -10.101   3.615  72.731  1.00  0.00    -0.226 C  
HETATM   10  C   UNL     1      -9.234   4.516  71.840  1.00  0.00    -0.178 C  
HETATM   11  C   UNL     1      -8.364   5.422  72.725  1.00  0.00    -0.113 C  
HETATM   12  C   UNL     1     -10.145   5.391  70.961  1.00  0.00    -0.281 C  
HETATM   13  C   UNL     1      -9.256   6.291  73.624  1.00  0.00    -0.136 C  
HETATM   14  C   UNL     1     -10.163   7.170  72.746  1.00  0.00    -0.243 C  
HETATM   15  C   UNL     1     -10.129   5.384  74.506  1.00  0.00    -0.291 C  
ENDBRANCH   2   6
TORSDOF 1
ENDMDL
MODEL       99
REMARK 921   NORMALIZED FREE ENERGY PREDICTED BY IDOCK:   -3.37 KCAL/MOL
REMARK 922        TOTAL FREE ENERGY PREDICTED BY IDOCK:   -3.69 KCAL/MOL
REMARK 923 INTER-LIGAND FREE ENERGY PREDICTED BY IDOCK:   -3.56 KCAL/MOL
REMARK 924 INTRA-LIGAND FREE ENERGY PREDICTED BY IDOCK:   -0.13 KCAL/MOL
REMARK 927      BINDING AFFINITY PREDICTED BY RF-SCORE:    0.00 PKD
ROOT
HETATM    1  C   UNL     1     -10.997   6.201  68.956  1.00  0.00    -0.436 C  
HETATM    2  C   UNL     1     -11.338   6.973  70.237  1.00  0.00    -0.295 C  
HETATM    3  N   UNL     1     -12.785   6.857  70.460  1.00  0.00    -0.508 NA 
HETATM    4  H2  UNL     1     -13.105   5.889  70.484  1.00  0.00     0.000 HD 
HETATM    5  H1  UNL     1     -13.012   7.369  71.313  1.00  0.00     0.000 HD 
ENDROOT
BRANCH   2   6
HETATM    6  C   UNL     1     -10.511   6.544  71.496  1.00  0.00    -0.245 C  
HETATM    7  C   UNL     1      -9.223   5.781  71.069  1.00  0.00    -0.166 C  
HETATM    8  C   UNL     1      -8.376   5.384  72.291  1.00  0.00    -0.122 C  
HETATM    9  C   UNL     1      -7.961   6.648  73.057  1.00  0.00    -0.102 C  
HETATM   10  C   UNL     1      -9.212   7.408  73.522  1.00  0.00    -0.275 C  
HETATM   11  C   UNL     1     -10.047   6.501  74.440  1.00  0.00    -0.371 C  
HETATM   12  C   UNL     1     -10.054   7.802  72.297  1.00  0.00    -0.277 C  
HETATM   13  C   UNL     1     -10.467   5.232  73.683  1.00  0.00    -0.294 C  
HETATM   14  C   UNL     1     -11.314   5.626  72.461  1.00  0.00    -0.349 C  
HETATM   15  C   UNL     1      -9.212   4.481  73.210  1.00  0.00    -0.122 C  
ENDBRANCH   2   6
TORSDOF 1
ENDMDL
MODEL      100
REMARK 921   NORMALIZED FREE ENERGY PREDICTED BY IDOCK:   -3.36 KCAL/MOL
REMARK 922        TOTAL FREE ENERGY PREDICTED BY IDOCK:   -3.69 KCAL/MOL
REMARK 923 INTER-LIGAND FREE ENERGY PREDICTED BY IDOCK:   -3.56 KCAL/MOL
REMARK 924 INTRA-LIGAND FREE ENERGY PREDICTED BY IDOCK:   -0.13 KCAL/MOL
REMARK 927      BINDING AFFINITY PREDICTED BY RF-SCORE:    0.00 PKD
ROOT
HETATM    1  C   UNL     1      -9.306   8.811  69.712  1.00  0.00    -0.163 C  
HETATM    2  C   UNL     1     -10.660   9.497  69.488  1.00  0.00    -0.221 C  
HETATM    3  N   UNL     1     -11.254   9.761  70.805  1.00  0.00    -0.320 NA 
HETATM    4  H2  UNL     1     -10.637  10.295  71.417  1.00  0.00     0.000 HD 
HETATM    5  H1  UNL     1     -12.154  10.218  70.656  1.00  0.00     0.000 HD 
ENDROOT
BRANCH   2   6
HETATM    6  C   UNL     1     -10.599  10.785  68.599  1.00  0.00    -0.226 C  
HETATM    7  C   UNL     1     -11.730  11.777  68.999  1.00  0.00    -0.390 C  
HETATM    8  C   UNL     1     -11.663  13.068  68.164  1.00  0.00    -0.391 C  
HETATM    9  C   UNL     1     -10.310  13.755  68.393  1.00  0.00    -0.247 C  
HETATM   10  C   UNL     1      -9.170  12.814  67.977  1.00  0.00    -0.208 C  
HETATM   11  C   UNL     1      -9.321  12.458  66.490  1.00  0.00    -0.233 C  
HETATM   12  C   UNL     1      -9.243  11.526  68.815  1.00  0.00    -0.076 C  
HETATM   13  C   UNL     1     -10.673  11.770  66.248  1.00  0.00    -0.312 C  
HETATM   14  C   UNL     1     -10.743  10.479  67.082  1.00  0.00    -0.323 C  
HETATM   15  C   UNL     1     -11.809  12.713  66.676  1.00  0.00    -0.449 C  
ENDBRANCH   2   6
TORSDOF 1
ENDMDL
MODEL      101
REMARK 921   NORMALIZED FREE ENERGY PREDICTED BY IDOCK:   -3.35 KCAL/MOL
REMARK 922        TOTAL FREE ENERGY PREDICTED BY IDOCK:   -3.67 KCAL/MOL
REMARK 923 INTER-LIGAND FREE ENERGY PREDICTED BY IDOCK:   -3.54 KCAL/MOL
REMARK 924 INTRA-LIGAND FREE ENERGY PREDICTED BY IDOCK:   -0.13 KCAL/MOL
REMARK 927      BINDING AFFINITY PREDICTED BY RF-SCORE:    0.00 PKD
ROOT
HETATM    1  C   UNL     1      -6.628  12.005  67.293  1.00  0.00    -0.145 C  
HETATM    2  C   UNL     1      -7.514  13.155  67.791  1.00  0.00    -0.150 C  
HETATM    3  N   UNL     1      -7.002  14.402  67.205  1.00  0.00    -0.376 NA 
HETATM    4  H2  UNL     1      -6.938  14.364  66.188  1.00  0.00     0.000 HD 
HETATM    5  H1  UNL     1      -7.591  15.167  67.535  1.00  0.00     0.000 HD 
ENDROOT
BRANCH   2   6
HETATM    6  C   UNL     1      -9.044  12.963  67.522  1.00  0.00    -0.191 C  
HETATM    7  C   UNL     1      -9.412  13.447  66.090  1.00  0.00    -0.156 C  
HETATM    8  C   UNL     1     -10.906  13.230  65.791  1.00  0.00    -0.286 C  
HETATM    9  C   UNL     1     -11.236  11.735  65.899  1.00  0.00    -0.345 C  
HETATM   10  C   UNL     1     -10.915  11.231  67.313  1.00  0.00    -0.342 C  
HETATM   11  C   UNL     1     -11.751  12.017  68.336  1.00  0.00    -0.390 C  
HETATM   12  C   UNL     1      -9.421  11.451  67.605  1.00  0.00    -0.165 C  
HETATM   13  C   UNL     1     -11.429  13.516  68.237  1.00  0.00    -0.345 C  
HETATM   14  C   UNL     1      -9.936  13.736  68.534  1.00  0.00    -0.217 C  
HETATM   15  C   UNL     1     -11.742  14.012  66.816  1.00  0.00    -0.430 C  
ENDBRANCH   2   6
TORSDOF 1
ENDMDL
MODEL      102
REMARK 921   NORMALIZED FREE ENERGY PREDICTED BY IDOCK:   -3.34 KCAL/MOL
REMARK 922        TOTAL FREE ENERGY PREDICTED BY IDOCK:   -3.67 KCAL/MOL
REMARK 923 INTER-LIGAND FREE ENERGY PREDICTED BY IDOCK:   -3.54 KCAL/MOL
REMARK 924 INTRA-LIGAND FREE ENERGY PREDICTED BY IDOCK:   -0.13 KCAL/MOL
REMARK 927      BINDING AFFINITY PREDICTED BY RF-SCORE:    0.00 PKD
ROOT
HETATM    1  C   UNL     1     -11.144   9.231  71.645  1.00  0.00    -0.438 C  
HETATM    2  C   UNL     1     -11.297   7.765  71.220  1.00  0.00    -0.264 C  
HETATM    3  N   UNL     1     -12.734   7.468  71.139  1.00  0.00    -0.516 NA 
HETATM    4  H2  UNL     1     -13.237   8.111  70.528  1.00  0.00     0.000 HD 
HETATM    5  H1  UNL     1     -12.836   6.493  70.856  1.00  0.00     0.000 HD 
ENDROOT
BRANCH   2   6
HETATM    6  C   UNL     1     -10.542   7.386  69.902  1.00  0.00    -0.245 C  
HETATM    7  C   UNL     1     -11.273   6.224  69.169  1.00  0.00    -0.439 C  
HETATM    8  C   UNL     1     -10.568   5.863  67.849  1.00  0.00    -0.322 C  
HETATM    9  C   UNL     1     -10.554   7.088  66.925  1.00  0.00    -0.372 C  
HETATM   10  C   UNL     1      -9.810   8.246  67.606  1.00  0.00    -0.218 C  
HETATM   11  C   UNL     1      -8.366   7.814  67.909  1.00  0.00    -0.123 C  
HETATM   12  C   UNL     1     -10.519   8.602  68.924  1.00  0.00    -0.211 C  
HETATM   13  C   UNL     1      -8.368   6.587  68.834  1.00  0.00    -0.122 C  
HETATM   14  C   UNL     1      -9.072   6.945  70.154  1.00  0.00    -0.152 C  
HETATM   15  C   UNL     1      -9.124   5.436  68.152  1.00  0.00    -0.115 C  
ENDBRANCH   2   6
TORSDOF 1
ENDMDL
MODEL      103
REMARK 921   NORMALIZED FREE ENERGY PREDICTED BY IDOCK:   -3.34 KCAL/MOL
REMARK 922        TOTAL FREE ENERGY PREDICTED BY IDOCK:   -3.66 KCAL/MOL
REMARK 923 INTER-LIGAND FREE ENERGY PREDICTED BY IDOCK:   -3.53 KCAL/MOL
REMARK 924 INTRA-LIGAND FREE ENERGY PREDICTED BY IDOCK:   -0.13 KCAL/MOL
REMARK 927      BINDING AFFINITY PREDICTED BY RF-SCORE:    0.00 PKD
ROOT
HETATM    1  C   UNL     1     -10.870   4.826  73.670  1.00  0.00    -0.377 C  
HETATM    2  C   UNL     1     -11.263   6.066  72.856  1.00  0.00    -0.230 C  
HETATM    3  N   UNL     1     -11.002   7.249  73.687  1.00  0.00    -0.558 NA 
HETATM    4  H2  UNL     1     -10.043   7.289  74.029  1.00  0.00     0.000 HD 
HETATM    5  H1  UNL     1     -11.263   8.074  73.146  1.00  0.00     0.000 HD 
ENDROOT
BRANCH   2   6
HETATM    6  C   UNL     1     -10.577   6.169  71.452  1.00  0.00    -0.294 C  
HETATM    7  C   UNL     1     -11.645   6.367  70.337  1.00  0.00    -0.440 C  
HETATM    8  C   UNL     1     -10.989   6.510  68.952  1.00  0.00    -0.376 C  
HETATM    9  C   UNL     1     -10.055   7.728  68.953  1.00  0.00    -0.201 C  
HETATM   10  C   UNL     1      -8.967   7.550  70.023  1.00  0.00    -0.144 C  
HETATM   11  C   UNL     1      -8.156   6.281  69.717  1.00  0.00    -0.120 C  
HETATM   12  C   UNL     1      -9.630   7.407  71.403  1.00  0.00    -0.167 C  
HETATM   13  C   UNL     1      -9.082   5.054  69.713  1.00  0.00    -0.155 C  
HETATM   14  C   UNL     1      -9.740   4.909  71.096  1.00  0.00    -0.245 C  
HETATM   15  C   UNL     1     -10.175   5.243  68.649  1.00  0.00    -0.223 C  
ENDBRANCH   2   6
TORSDOF 1
ENDMDL
MODEL      104
REMARK 921   NORMALIZED FREE ENERGY PREDICTED BY IDOCK:   -3.30 KCAL/MOL
REMARK 922        TOTAL FREE ENERGY PREDICTED BY IDOCK:   -3.62 KCAL/MOL
REMARK 923 INTER-LIGAND FREE ENERGY PREDICTED BY IDOCK:   -3.50 KCAL/MOL
REMARK 924 INTRA-LIGAND FREE ENERGY PREDICTED BY IDOCK:   -0.12 KCAL/MOL
REMARK 927      BINDING AFFINITY PREDICTED BY RF-SCORE:    0.00 PKD
ROOT
HETATM    1  C   UNL     1      -6.274  15.357  68.952  1.00  0.00    -0.098 C  
HETATM    2  C   UNL     1      -6.936  15.197  67.577  1.00  0.00    -0.192 C  
HETATM    3  N   UNL     1      -6.898  13.771  67.225  1.00  0.00    -0.421 NA 
HETATM    4  H2  UNL     1      -7.318  13.176  67.938  1.00  0.00     0.000 HD 
HETATM    5  H1  UNL     1      -7.339  13.664  66.311  1.00  0.00     0.000 HD 
ENDROOT
BRANCH   2   6
HETATM    6  C   UNL     1      -8.381  15.791  67.476  1.00  0.00    -0.183 C  
HETATM    7  C   UNL     1      -8.585  16.498  66.105  1.00  0.00    -0.334 C  
HETATM    8  C   UNL     1     -10.013  17.055  65.969  1.00  0.00    -0.288 C  
HETATM    9  C   UNL     1     -11.023  15.905  66.078  1.00  0.00    -0.139 C  
HETATM   10  C   UNL     1     -10.870  15.205  67.437  1.00  0.00    -0.302 C  
HETATM   11  C   UNL     1     -11.123  16.219  68.563  1.00  0.00    -0.368 C  
HETATM   12  C   UNL     1      -9.441  14.650  67.566  1.00  0.00    -0.198 C  
HETATM   13  C   UNL     1     -10.117  17.376  68.463  1.00  0.00    -0.352 C  
HETATM   14  C   UNL     1      -8.689  16.822  68.598  1.00  0.00    -0.255 C  
HETATM   15  C   UNL     1     -10.267  18.066  67.098  1.00  0.00    -0.366 C  
ENDBRANCH   2   6
TORSDOF 1
ENDMDL
MODEL      105
REMARK 921   NORMALIZED FREE ENERGY PREDICTED BY IDOCK:   -3.29 KCAL/MOL
REMARK 922        TOTAL FREE ENERGY PREDICTED BY IDOCK:   -3.61 KCAL/MOL
REMARK 923 INTER-LIGAND FREE ENERGY PREDICTED BY IDOCK:   -3.48 KCAL/MOL
REMARK 924 INTRA-LIGAND FREE ENERGY PREDICTED BY IDOCK:   -0.13 KCAL/MOL
REMARK 927      BINDING AFFINITY PREDICTED BY RF-SCORE:    0.00 PKD
ROOT
HETATM    1  C   UNL     1     -10.386   5.219  69.912  1.00  0.00    -0.374 C  
HETATM    2  C   UNL     1     -11.208   6.346  69.273  1.00  0.00    -0.375 C  
HETATM    3  N   UNL     1     -12.123   6.870  70.296  1.00  0.00    -0.627 NA 
HETATM    4  H2  UNL     1     -11.640   7.165  71.145  1.00  0.00     0.000 HD 
HETATM    5  H1  UNL     1     -12.669   7.620  69.872  1.00  0.00     0.000 HD 
ENDROOT
BRANCH   2   6
HETATM    6  C   UNL     1     -10.355   7.479  68.609  1.00  0.00    -0.218 C  
HETATM    7  C   UNL     1      -8.835   7.177  68.761  1.00  0.00    -0.130 C  
HETATM    8  C   UNL     1      -7.979   8.259  68.079  1.00  0.00    -0.123 C  
HETATM    9  C   UNL     1      -8.318   8.312  66.584  1.00  0.00    -0.111 C  
HETATM   10  C   UNL     1      -9.806   8.641  66.398  1.00  0.00    -0.341 C  
HETATM   11  C   UNL     1     -10.111  10.003  67.042  1.00  0.00    -0.274 C  
HETATM   12  C   UNL     1     -10.656   7.556  67.080  1.00  0.00    -0.415 C  
HETATM   13  C   UNL     1      -9.775   9.961  68.541  1.00  0.00    -0.163 C  
HETATM   14  C   UNL     1     -10.629   8.880  69.224  1.00  0.00    -0.219 C  
HETATM   15  C   UNL     1      -8.287   9.621  68.721  1.00  0.00    -0.111 C  
ENDBRANCH   2   6
TORSDOF 1
ENDMDL
MODEL      106
REMARK 921   NORMALIZED FREE ENERGY PREDICTED BY IDOCK:   -3.27 KCAL/MOL
REMARK 922        TOTAL FREE ENERGY PREDICTED BY IDOCK:   -3.59 KCAL/MOL
REMARK 923 INTER-LIGAND FREE ENERGY PREDICTED BY IDOCK:   -3.46 KCAL/MOL
REMARK 924 INTRA-LIGAND FREE ENERGY PREDICTED BY IDOCK:   -0.13 KCAL/MOL
REMARK 927      BINDING AFFINITY PREDICTED BY RF-SCORE:    0.00 PKD
ROOT
HETATM    1  C   UNL     1      -7.954   4.983  72.604  1.00  0.00    -0.098 C  
HETATM    2  C   UNL     1      -8.970   5.860  73.347  1.00  0.00    -0.129 C  
HETATM    3  N   UNL     1      -8.226   6.712  74.285  1.00  0.00    -0.127 NA 
HETATM    4  H2  UNL     1      -7.493   7.255  73.831  1.00  0.00     0.000 HD 
HETATM    5  H1  UNL     1      -8.902   7.296  74.779  1.00  0.00     0.000 HD 
ENDROOT
BRANCH   2   6
HETATM    6  C   UNL     1      -9.915   6.693  72.417  1.00  0.00    -0.180 C  
HETATM    7  C   UNL     1      -9.421   6.631  70.942  1.00  0.00    -0.169 C  
HETATM    8  C   UNL     1     -10.360   7.411  70.004  1.00  0.00    -0.224 C  
HETATM    9  C   UNL     1     -11.769   6.807  70.072  1.00  0.00    -0.330 C  
HETATM   10  C   UNL     1     -12.299   6.883  71.511  1.00  0.00    -0.420 C  
HETATM   11  C   UNL     1     -12.349   8.352  71.958  1.00  0.00    -0.413 C  
HETATM   12  C   UNL     1     -11.358   6.101  72.442  1.00  0.00    -0.340 C  
HETATM   13  C   UNL     1     -10.943   8.968  71.894  1.00  0.00    -0.423 C  
HETATM   14  C   UNL     1     -10.002   8.190  72.830  1.00  0.00    -0.361 C  
HETATM   15  C   UNL     1     -10.412   8.880  70.454  1.00  0.00    -0.245 C  
ENDBRANCH   2   6
TORSDOF 1
ENDMDL
MODEL      107
REMARK 921   NORMALIZED FREE ENERGY PREDICTED BY IDOCK:   -3.27 KCAL/MOL
REMARK 922        TOTAL FREE ENERGY PREDICTED BY IDOCK:   -3.58 KCAL/MOL
REMARK 923 INTER-LIGAND FREE ENERGY PREDICTED BY IDOCK:   -3.46 KCAL/MOL
REMARK 924 INTRA-LIGAND FREE ENERGY PREDICTED BY IDOCK:   -0.12 KCAL/MOL
REMARK 927      BINDING AFFINITY PREDICTED BY RF-SCORE:    0.00 PKD
ROOT
HETATM    1  C   UNL     1     -10.358   6.820  73.923  1.00  0.00    -0.397 C  
HETATM    2  C   UNL     1     -10.788   6.320  72.538  1.00  0.00    -0.240 C  
HETATM    3  N   UNL     1     -12.251   6.188  72.543  1.00  0.00    -0.546 NA 
HETATM    4  H2  UNL     1     -12.725   7.049  72.817  1.00  0.00     0.000 HD 
HETATM    5  H1  UNL     1     -12.538   5.856  71.622  1.00  0.00     0.000 HD 
ENDROOT
BRANCH   2   6
HETATM    6  C   UNL     1     -10.278   7.192  71.342  1.00  0.00    -0.203 C  
HETATM    7  C   UNL     1     -10.520   8.703  71.627  1.00  0.00    -0.366 C  
HETATM    8  C   UNL     1      -9.989   9.581  70.480  1.00  0.00    -0.335 C  
HETATM    9  C   UNL     1      -8.481   9.352  70.316  1.00  0.00    -0.237 C  
HETATM   10  C   UNL     1      -8.210   7.873  70.000  1.00  0.00    -0.119 C  
HETATM   11  C   UNL     1      -8.932   7.490  68.699  1.00  0.00    -0.132 C  
HETATM   12  C   UNL     1      -8.742   7.002  71.150  1.00  0.00    -0.137 C  
HETATM   13  C   UNL     1     -10.445   7.717  68.852  1.00  0.00    -0.211 C  
HETATM   14  C   UNL     1     -10.977   6.841  69.998  1.00  0.00    -0.344 C  
HETATM   15  C   UNL     1     -10.708   9.195  69.178  1.00  0.00    -0.190 C  
ENDBRANCH   2   6
TORSDOF 1
ENDMDL
MODEL      108
REMARK 921   NORMALIZED FREE ENERGY PREDICTED BY IDOCK:   -3.26 KCAL/MOL
REMARK 922        TOTAL FREE ENERGY PREDICTED BY IDOCK:   -3.58 KCAL/MOL
REMARK 923 INTER-LIGAND FREE ENERGY PREDICTED BY IDOCK:   -3.45 KCAL/MOL
REMARK 924 INTRA-LIGAND FREE ENERGY PREDICTED BY IDOCK:   -0.13 KCAL/MOL
REMARK 927      BINDING AFFINITY PREDICTED BY RF-SCORE:    0.00 PKD
ROOT
HETATM    1  C   UNL     1      -8.522   5.268  74.067  1.00  0.00    -0.112 C  
HETATM    2  C   UNL     1      -8.740   5.077  72.561  1.00  0.00    -0.120 C  
HETATM    3  N   UNL     1      -9.180   3.692  72.342  1.00  0.00    -0.111 NA 
HETATM    4  H2  UNL     1     -10.001   3.446  72.895  1.00  0.00     0.000 HD 
HETATM    5  H1  UNL     1      -9.325   3.565  71.340  1.00  0.00     0.000 HD 
ENDROOT
BRANCH   2   6
HETATM    6  C   UNL     1      -9.712   6.115  71.906  1.00  0.00    -0.169 C  
HETATM    7  C   UNL     1     -10.665   6.721  72.977  1.00  0.00    -0.315 C  
HETATM    8  C   UNL     1     -11.603   7.774  72.361  1.00  0.00    -0.410 C  
HETATM    9  C   UNL     1     -10.768   8.909  71.754  1.00  0.00    -0.432 C  
HETATM   10  C   UNL     1      -9.838   8.349  70.667  1.00  0.00    -0.208 C  
HETATM   11  C   UNL     1     -10.682   7.687  69.567  1.00  0.00    -0.211 C  
HETATM   12  C   UNL     1      -8.904   7.298  71.290  1.00  0.00    -0.135 C  
HETATM   13  C   UNL     1     -11.523   6.548  70.164  1.00  0.00    -0.477 C  
HETATM   14  C   UNL     1     -10.588   5.495  70.781  1.00  0.00    -0.320 C  
HETATM   15  C   UNL     1     -12.444   7.113  71.258  1.00  0.00    -0.425 C  
ENDBRANCH   2   6
TORSDOF 1
ENDMDL
MODEL      109
REMARK 921   NORMALIZED FREE ENERGY PREDICTED BY IDOCK:   -3.22 KCAL/MOL
REMARK 922        TOTAL FREE ENERGY PREDICTED BY IDOCK:   -3.53 KCAL/MOL
REMARK 923 INTER-LIGAND FREE ENERGY PREDICTED BY IDOCK:   -3.42 KCAL/MOL
REMARK 924 INTRA-LIGAND FREE ENERGY PREDICTED BY IDOCK:   -0.12 KCAL/MOL
REMARK 927      BINDING AFFINITY PREDICTED BY RF-SCORE:    0.00 PKD
ROOT
HETATM    1  C   UNL     1      -9.764  14.228  66.991  1.00  0.00    -0.253 C  
HETATM    2  C   UNL     1     -10.334  13.110  66.109  1.00  0.00    -0.284 C  
HETATM    3  N   UNL     1      -9.945  13.390  64.721  1.00  0.00    -0.614 NA 
HETATM    4  H2  UNL     1      -8.938  13.507  64.608  1.00  0.00     0.000 HD 
HETATM    5  H1  UNL     1     -10.323  12.645  64.134  1.00  0.00     0.000 HD 
ENDROOT
BRANCH   2   6
HETATM    6  C   UNL     1      -9.934  11.662  66.553  1.00  0.00    -0.230 C  
HETATM    7  C   UNL     1     -10.924  11.129  67.630  1.00  0.00    -0.323 C  
HETATM    8  C   UNL     1     -10.572   9.691  68.051  1.00  0.00    -0.292 C  
HETATM    9  C   UNL     1     -10.641   8.768  66.827  1.00  0.00    -0.220 C  
HETATM   10  C   UNL     1      -9.651   9.248  65.756  1.00  0.00    -0.341 C  
HETATM   11  C   UNL     1      -8.227   9.228  66.334  1.00  0.00    -0.111 C  
HETATM   12  C   UNL     1     -10.008  10.685  65.340  1.00  0.00    -0.343 C  
HETATM   13  C   UNL     1      -8.146  10.149  67.562  1.00  0.00    -0.113 C  
HETATM   14  C   UNL     1      -8.498  11.587  67.144  1.00  0.00    -0.158 C  
HETATM   15  C   UNL     1      -9.147   9.671  68.626  1.00  0.00    -0.132 C  
ENDBRANCH   2   6
TORSDOF 1
ENDMDL
MODEL      110
REMARK 921   NORMALIZED FREE ENERGY PREDICTED BY IDOCK:   -3.21 KCAL/MOL
REMARK 922        TOTAL FREE ENERGY PREDICTED BY IDOCK:   -3.52 KCAL/MOL
REMARK 923 INTER-LIGAND FREE ENERGY PREDICTED BY IDOCK:   -3.39 KCAL/MOL
REMARK 924 INTRA-LIGAND FREE ENERGY PREDICTED BY IDOCK:   -0.13 KCAL/MOL
REMARK 927      BINDING AFFINITY PREDICTED BY RF-SCORE:    0.00 PKD
ROOT
HETATM    1  C   UNL     1     -11.614  12.793  63.753  1.00  0.00    -0.548 C  
HETATM    2  C   UNL     1     -11.255  11.704  64.772  1.00  0.00    -0.234 C  
HETATM    3  N   UNL     1     -10.119  10.943  64.235  1.00  0.00    -0.325 NA 
HETATM    4  H2  UNL     1      -9.325  11.536  63.994  1.00  0.00     0.000 HD 
HETATM    5  H1  UNL     1      -9.880  10.219  64.914  1.00  0.00     0.000 HD 
ENDROOT
BRANCH   2   6
HETATM    6  C   UNL     1     -10.980  12.232  66.220  1.00  0.00    -0.327 C  
HETATM    7  C   UNL     1     -11.150  13.778  66.279  1.00  0.00    -0.302 C  
HETATM    8  C   UNL     1     -10.922  14.313  67.704  1.00  0.00    -0.286 C  
HETATM    9  C   UNL     1     -11.941  13.676  68.658  1.00  0.00    -0.395 C  
HETATM   10  C   UNL     1     -11.778  12.149  68.649  1.00  0.00    -0.382 C  
HETATM   11  C   UNL     1     -10.355  11.786  69.100  1.00  0.00    -0.008 C  
HETATM   12  C   UNL     1     -12.007  11.621  67.223  1.00  0.00     0.050 C  
HETATM   13  C   UNL     1      -9.326  12.420  68.152  1.00  0.00    -0.209 C  
HETATM   14  C   UNL     1      -9.551  11.887  66.727  1.00  0.00    -0.214 C  
HETATM   15  C   UNL     1      -9.501  13.947  68.156  1.00  0.00    -0.207 C  
ENDBRANCH   2   6
TORSDOF 1
ENDMDL
MODEL      111
REMARK 921   NORMALIZED FREE ENERGY PREDICTED BY IDOCK:   -3.20 KCAL/MOL
REMARK 922        TOTAL FREE ENERGY PREDICTED BY IDOCK:   -3.52 KCAL/MOL
REMARK 923 INTER-LIGAND FREE ENERGY PREDICTED BY IDOCK:   -3.39 KCAL/MOL
REMARK 924 INTRA-LIGAND FREE ENERGY PREDICTED BY IDOCK:   -0.13 KCAL/MOL
REMARK 927      BINDING AFFINITY PREDICTED BY RF-SCORE:    0.00 PKD
ROOT
HETATM    1  C   UNL     1      -9.688   4.490  67.251  1.00  0.00    -0.221 C  
HETATM    2  C   UNL     1      -9.908   5.971  67.586  1.00  0.00    -0.123 C  
HETATM    3  N   UNL     1     -11.122   6.414  66.888  1.00  0.00    -0.674 NA 
HETATM    4  H2  UNL     1     -11.934   5.836  67.101  1.00  0.00     0.000 HD 
HETATM    5  H1  UNL     1     -11.268   7.399  67.111  1.00  0.00     0.000 HD 
ENDROOT
BRANCH   2   6
HETATM    6  C   UNL     1      -9.958   6.292  69.118  1.00  0.00    -0.181 C  
HETATM    7  C   UNL     1      -9.173   5.219  69.927  1.00  0.00    -0.178 C  
HETATM    8  C   UNL     1      -9.177   5.538  71.433  1.00  0.00    -0.167 C  
HETATM    9  C   UNL     1      -8.517   6.903  71.667  1.00  0.00    -0.117 C  
HETATM   10  C   UNL     1      -9.289   7.992  70.908  1.00  0.00    -0.169 C  
HETATM   11  C   UNL     1     -10.741   8.031  71.410  1.00  0.00    -0.270 C  
HETATM   12  C   UNL     1      -9.281   7.668  69.405  1.00  0.00    -0.149 C  
HETATM   13  C   UNL     1     -11.412   6.668  71.180  1.00  0.00    -0.370 C  
HETATM   14  C   UNL     1     -11.409   6.346  69.676  1.00  0.00    -0.479 C  
HETATM   15  C   UNL     1     -10.629   5.580  71.933  1.00  0.00    -0.293 C  
ENDBRANCH   2   6
TORSDOF 1
ENDMDL
MODEL      112
REMARK 921   NORMALIZED FREE ENERGY PREDICTED BY IDOCK:   -3.19 KCAL/MOL
REMARK 922        TOTAL FREE ENERGY PREDICTED BY IDOCK:   -3.50 KCAL/MOL
REMARK 923 INTER-LIGAND FREE ENERGY PREDICTED BY IDOCK:   -3.37 KCAL/MOL
REMARK 924 INTRA-LIGAND FREE ENERGY PREDICTED BY IDOCK:   -0.13 KCAL/MOL
REMARK 927      BINDING AFFINITY PREDICTED BY RF-SCORE:    0.00 PKD
ROOT
HETATM    1  C   UNL     1     -10.956  11.278  66.956  1.00  0.00    -0.352 C  
HETATM    2  C   UNL     1     -10.972  10.695  68.375  1.00  0.00    -0.251 C  
HETATM    3  N   UNL     1     -12.339  10.826  68.899  1.00  0.00    -0.786 NA 
HETATM    4  H2  UNL     1     -13.038  10.402  68.290  1.00  0.00     0.000 HD 
HETATM    5  H1  UNL     1     -12.350  10.439  69.843  1.00  0.00     0.000 HD 
ENDROOT
BRANCH   2   6
HETATM    6  C   UNL     1     -10.437   9.228  68.484  1.00  0.00    -0.240 C  
HETATM    7  C   UNL     1     -11.156   8.469  69.638  1.00  0.00    -0.018 C  
HETATM    8  C   UNL     1     -10.673   7.011  69.736  1.00  0.00    -0.265 C  
HETATM    9  C   UNL     1     -10.969   6.285  68.417  1.00  0.00    -0.409 C  
HETATM   10  C   UNL     1     -10.247   6.990  67.260  1.00  0.00    -0.301 C  
HETATM   11  C   UNL     1      -8.733   6.979  67.523  1.00  0.00    -0.120 C  
HETATM   12  C   UNL     1     -10.734   8.446  67.167  1.00  0.00    -0.222 C  
HETATM   13  C   UNL     1      -8.424   7.704  68.843  1.00  0.00    -0.129 C  
HETATM   14  C   UNL     1      -8.907   9.162  68.747  1.00  0.00    -0.132 C  
HETATM   15  C   UNL     1      -9.158   7.001  69.995  1.00  0.00    -0.145 C  
ENDBRANCH   2   6
TORSDOF 1
ENDMDL
MODEL      113
REMARK 921   NORMALIZED FREE ENERGY PREDICTED BY IDOCK:   -3.16 KCAL/MOL
REMARK 922        TOTAL FREE ENERGY PREDICTED BY IDOCK:   -3.47 KCAL/MOL
REMARK 923 INTER-LIGAND FREE ENERGY PREDICTED BY IDOCK:   -3.35 KCAL/MOL
REMARK 924 INTRA-LIGAND FREE ENERGY PREDICTED BY IDOCK:   -0.12 KCAL/MOL
REMARK 927      BINDING AFFINITY PREDICTED BY RF-SCORE:    0.00 PKD
ROOT
HETATM    1  C   UNL     1      -8.035  11.516  68.558  1.00  0.00    -0.143 C  
HETATM    2  C   UNL     1      -8.353  12.386  67.335  1.00  0.00    -0.180 C  
HETATM    3  N   UNL     1      -8.622  11.489  66.203  1.00  0.00    -0.320 NA 
HETATM    4  H2  UNL     1      -9.353  10.807  66.404  1.00  0.00     0.000 HD 
HETATM    5  H1  UNL     1      -8.834  12.067  65.390  1.00  0.00     0.000 HD 
ENDROOT
BRANCH   2   6
HETATM    6  C   UNL     1      -9.507  13.422  67.554  1.00  0.00    -0.219 C  
HETATM    7  C   UNL     1      -9.177  14.361  68.750  1.00  0.00    -0.144 C  
HETATM    8  C   UNL     1     -10.281  15.413  68.957  1.00  0.00    -0.233 C  
HETATM    9  C   UNL     1     -10.418  16.268  67.689  1.00  0.00    -0.295 C  
HETATM   10  C   UNL     1     -10.776  15.373  66.494  1.00  0.00    -0.308 C  
HETATM   11  C   UNL     1     -12.106  14.656  66.775  1.00  0.00    -0.223 C  
HETATM   12  C   UNL     1      -9.669  14.325  66.292  1.00  0.00    -0.321 C  
HETATM   13  C   UNL     1     -11.981  13.797  68.043  1.00  0.00    -0.390 C  
HETATM   14  C   UNL     1     -10.878  12.746  67.839  1.00  0.00    -0.242 C  
HETATM   15  C   UNL     1     -11.612  14.696  69.234  1.00  0.00    -0.335 C  
ENDBRANCH   2   6
TORSDOF 1
ENDMDL
MODEL      114
REMARK 921   NORMALIZED FREE ENERGY PREDICTED BY IDOCK:   -3.13 KCAL/MOL
REMARK 922        TOTAL FREE ENERGY PREDICTED BY IDOCK:   -3.44 KCAL/MOL
REMARK 923 INTER-LIGAND FREE ENERGY PREDICTED BY IDOCK:   -3.32 KCAL/MOL
REMARK 924 INTRA-LIGAND FREE ENERGY PREDICTED BY IDOCK:   -0.12 KCAL/MOL
REMARK 927      BINDING AFFINITY PREDICTED BY RF-SCORE:    0.00 PKD
ROOT
HETATM    1  C   UNL     1     -11.330  14.053  67.934  1.00  0.00    -0.317 C  
HETATM    2  C   UNL     1     -10.720  14.679  69.195  1.00  0.00    -0.255 C  
HETATM    3  N   UNL     1     -10.186  15.997  68.827  1.00  0.00    -0.215 NA 
HETATM    4  H2  UNL     1     -10.882  16.597  68.385  1.00  0.00     0.000 HD 
HETATM    5  H1  UNL     1      -9.780  16.415  69.665  1.00  0.00     0.000 HD 
ENDROOT
BRANCH   2   6
HETATM    6  C   UNL     1     -11.692  14.758  70.420  1.00  0.00    -0.350 C  
HETATM    7  C   UNL     1     -12.082  13.329  70.898  1.00  0.00    -0.242 C  
HETATM    8  C   UNL     1     -13.007  13.383  72.128  1.00  0.00    -0.403 C  
HETATM    9  C   UNL     1     -12.287  14.101  73.277  1.00  0.00     0.128 C  
HETATM   10  C   UNL     1     -11.916  15.528  72.848  1.00  0.00    -0.575 C  
HETATM   11  C   UNL     1     -13.194  16.298  72.482  1.00  0.00     0.037 C  
HETATM   12  C   UNL     1     -10.992  15.467  71.620  1.00  0.00    -0.122 C  
HETATM   13  C   UNL     1     -13.924  15.588  71.332  1.00  0.00    -0.476 C  
HETATM   14  C   UNL     1     -13.002  15.532  70.102  1.00  0.00    -0.035 C  
HETATM   15  C   UNL     1     -14.283  14.157  71.763  1.00  0.00    -0.493 C  
ENDBRANCH   2   6
TORSDOF 1
ENDMDL
MODEL      115
REMARK 921   NORMALIZED FREE ENERGY PREDICTED BY IDOCK:   -3.11 KCAL/MOL
REMARK 922        TOTAL FREE ENERGY PREDICTED BY IDOCK:   -3.42 KCAL/MOL
REMARK 923 INTER-LIGAND FREE ENERGY PREDICTED BY IDOCK:   -3.30 KCAL/MOL
REMARK 924 INTRA-LIGAND FREE ENERGY PREDICTED BY IDOCK:   -0.12 KCAL/MOL
REMARK 927      BINDING AFFINITY PREDICTED BY RF-SCORE:    0.00 PKD
ROOT
HETATM    1  C   UNL     1     -10.763   7.135  69.117  1.00  0.00    -0.216 C  
HETATM    2  C   UNL     1     -11.100   7.282  70.607  1.00  0.00    -0.264 C  
HETATM    3  N   UNL     1     -12.563   7.339  70.733  1.00  0.00    -0.598 NA 
HETATM    4  H2  UNL     1     -13.029   6.542  70.299  1.00  0.00     0.000 HD 
HETATM    5  H1  UNL     1     -12.787   7.436  71.723  1.00  0.00     0.000 HD 
ENDROOT
BRANCH   2   6
HETATM    6  C   UNL     1     -10.471   6.184  71.529  1.00  0.00    -0.268 C  
HETATM    7  C   UNL     1      -9.211   6.739  72.256  1.00  0.00    -0.138 C  
HETATM    8  C   UNL     1      -8.600   5.687  73.198  1.00  0.00    -0.117 C  
HETATM    9  C   UNL     1      -9.636   5.286  74.257  1.00  0.00    -0.154 C  
HETATM   10  C   UNL     1     -10.882   4.703  73.574  1.00  0.00    -0.362 C  
HETATM   11  C   UNL     1     -10.481   3.467  72.754  1.00  0.00    -0.211 C  
HETATM   12  C   UNL     1     -11.487   5.759  72.634  1.00  0.00    -0.337 C  
HETATM   13  C   UNL     1      -9.442   3.856  71.690  1.00  0.00    -0.220 C  
HETATM   14  C   UNL     1     -10.050   4.908  70.747  1.00  0.00    -0.303 C  
HETATM   15  C   UNL     1      -8.203   4.449  72.379  1.00  0.00    -0.108 C  
ENDBRANCH   2   6
TORSDOF 1
ENDMDL
MODEL      116
REMARK 921   NORMALIZED FREE ENERGY PREDICTED BY IDOCK:   -3.09 KCAL/MOL
REMARK 922        TOTAL FREE ENERGY PREDICTED BY IDOCK:   -3.40 KCAL/MOL
REMARK 923 INTER-LIGAND FREE ENERGY PREDICTED BY IDOCK:   -3.27 KCAL/MOL
REMARK 924 INTRA-LIGAND FREE ENERGY PREDICTED BY IDOCK:   -0.13 KCAL/MOL
REMARK 927      BINDING AFFINITY PREDICTED BY RF-SCORE:    0.00 PKD
ROOT
HETATM    1  C   UNL     1     -12.420  11.075  70.849  1.00  0.00    -0.509 C  
HETATM    2  C   UNL     1     -11.418  10.007  70.392  1.00  0.00    -0.314 C  
HETATM    3  N   UNL     1     -12.124   8.720  70.342  1.00  0.00    -0.456 NA 
HETATM    4  H2  UNL     1     -12.962   8.750  69.761  1.00  0.00     0.000 HD 
HETATM    5  H1  UNL     1     -11.458   8.009  70.038  1.00  0.00     0.000 HD 
ENDROOT
BRANCH   2   6
HETATM    6  C   UNL     1     -10.688  10.331  69.044  1.00  0.00    -0.257 C  
HETATM    7  C   UNL     1     -10.592   9.056  68.156  1.00  0.00    -0.225 C  
HETATM    8  C   UNL     1      -9.913   9.363  66.809  1.00  0.00    -0.305 C  
HETATM    9  C   UNL     1     -10.729  10.421  66.055  1.00  0.00    -0.052 C  
HETATM   10  C   UNL     1     -10.817  11.706  66.891  1.00  0.00    -0.322 C  
HETATM   11  C   UNL     1      -9.400  12.240  67.153  1.00  0.00    -0.196 C  
HETATM   12  C   UNL     1     -11.496  11.393  68.235  1.00  0.00    -0.369 C  
HETATM   13  C   UNL     1      -8.573  11.188  67.908  1.00  0.00    -0.135 C  
HETATM   14  C   UNL     1      -9.249  10.880  69.254  1.00  0.00    -0.006 C  
HETATM   15  C   UNL     1      -8.498   9.901  67.071  1.00  0.00    -0.121 C  
ENDBRANCH   2   6
TORSDOF 1
ENDMDL
MODEL      117
REMARK 921   NORMALIZED FREE ENERGY PREDICTED BY IDOCK:   -3.08 KCAL/MOL
REMARK 922        TOTAL FREE ENERGY PREDICTED BY IDOCK:   -3.39 KCAL/MOL
REMARK 923 INTER-LIGAND FREE ENERGY PREDICTED BY IDOCK:   -3.26 KCAL/MOL
REMARK 924 INTRA-LIGAND FREE ENERGY PREDICTED BY IDOCK:   -0.13 KCAL/MOL
REMARK 927      BINDING AFFINITY PREDICTED BY RF-SCORE:    0.00 PKD
ROOT
HETATM    1  C   UNL     1     -10.887   9.247  71.523  1.00  0.00    -0.442 C  
HETATM    2  C   UNL     1     -11.296   7.813  71.163  1.00  0.00    -0.269 C  
HETATM    3  N   UNL     1     -12.757   7.787  71.013  1.00  0.00    -0.531 NA 
HETATM    4  H2  UNL     1     -13.099   8.475  70.344  1.00  0.00     0.000 HD 
HETATM    5  H1  UNL     1     -13.029   6.833  70.773  1.00  0.00     0.000 HD 
ENDROOT
BRANCH   2   6
HETATM    6  C   UNL     1     -10.565   7.221  69.910  1.00  0.00    -0.244 C  
HETATM    7  C   UNL     1      -9.956   8.363  69.045  1.00  0.00    -0.194 C  
HETATM    8  C   UNL     1      -9.198   7.801  67.829  1.00  0.00    -0.143 C  
HETATM    9  C   UNL     1      -8.057   6.895  68.312  1.00  0.00    -0.119 C  
HETATM   10  C   UNL     1      -8.628   5.737  69.144  1.00  0.00    -0.110 C  
HETATM   11  C   UNL     1      -9.601   4.920  68.279  1.00  0.00    -0.196 C  
HETATM   12  C   UNL     1      -9.383   6.306  70.357  1.00  0.00    -0.171 C  
HETATM   13  C   UNL     1     -10.748   5.818  67.789  1.00  0.00    -0.306 C  
HETATM   14  C   UNL     1     -11.507   6.382  69.002  1.00  0.00    -0.203 C  
HETATM   15  C   UNL     1     -10.170   6.981  66.967  1.00  0.00    -0.330 C  
ENDBRANCH   2   6
TORSDOF 1
ENDMDL
MODEL      118
REMARK 921   NORMALIZED FREE ENERGY PREDICTED BY IDOCK:   -3.05 KCAL/MOL
REMARK 922        TOTAL FREE ENERGY PREDICTED BY IDOCK:   -3.35 KCAL/MOL
REMARK 923 INTER-LIGAND FREE ENERGY PREDICTED BY IDOCK:   -3.24 KCAL/MOL
REMARK 924 INTRA-LIGAND FREE ENERGY PREDICTED BY IDOCK:   -0.12 KCAL/MOL
REMARK 927      BINDING AFFINITY PREDICTED BY RF-SCORE:    0.00 PKD
ROOT
HETATM    1  C   UNL     1     -11.717  12.837  68.791  1.00  0.00    -0.363 C  
HETATM    2  C   UNL     1     -11.365  11.378  69.106  1.00  0.00    -0.288 C  
HETATM    3  N   UNL     1     -12.622  10.628  69.227  1.00  0.00    -0.683 NA 
HETATM    4  H2  UNL     1     -13.219  10.722  68.406  1.00  0.00     0.000 HD 
HETATM    5  H1  UNL     1     -12.388   9.657  69.436  1.00  0.00     0.000 HD 
ENDROOT
BRANCH   2   6
HETATM    6  C   UNL     1     -10.376  10.712  68.090  1.00  0.00    -0.203 C  
HETATM    7  C   UNL     1      -9.027  11.488  68.054  1.00  0.00    -0.170 C  
HETATM    8  C   UNL     1      -8.027  10.826  67.089  1.00  0.00    -0.124 C  
HETATM    9  C   UNL     1      -7.749   9.388  67.548  1.00  0.00    -0.091 C  
HETATM   10  C   UNL     1      -9.058   8.584  67.564  1.00  0.00    -0.146 C  
HETATM   11  C   UNL     1      -9.660   8.565  66.150  1.00  0.00    -0.276 C  
HETATM   12  C   UNL     1     -10.053   9.251  68.529  1.00  0.00    -0.211 C  
HETATM   13  C   UNL     1      -9.942  10.001  65.680  1.00  0.00    -0.355 C  
HETATM   14  C   UNL     1     -10.941  10.665  66.642  1.00  0.00    -0.144 C  
HETATM   15  C   UNL     1      -8.631  10.803  65.677  1.00  0.00    -0.185 C  
ENDBRANCH   2   6
TORSDOF 1
ENDMDL
MODEL      119
REMARK 921   NORMALIZED FREE ENERGY PREDICTED BY IDOCK:   -3.03 KCAL/MOL
REMARK 922        TOTAL FREE ENERGY PREDICTED BY IDOCK:   -3.33 KCAL/MOL
REMARK 923 INTER-LIGAND FREE ENERGY PREDICTED BY IDOCK:   -3.21 KCAL/MOL
REMARK 924 INTRA-LIGAND FREE ENERGY PREDICTED BY IDOCK:   -0.13 KCAL/MOL
REMARK 927      BINDING AFFINITY PREDICTED BY RF-SCORE:    0.00 PKD
ROOT
HETATM    1  C   UNL     1      -8.194   4.261  73.074  1.00  0.00    -0.091 C  
HETATM    2  C   UNL     1      -8.518   4.640  71.623  1.00  0.00    -0.112 C  
HETATM    3  N   UNL     1      -8.966   3.424  70.930  1.00  0.00    -0.088 NA 
HETATM    4  H2  UNL     1      -9.745   2.964  71.402  1.00  0.00     0.000 HD 
HETATM    5  H1  UNL     1      -9.183   3.676  69.966  1.00  0.00     0.000 HD 
ENDROOT
BRANCH   2   6
HETATM    6  C   UNL     1      -9.541   5.816  71.469  1.00  0.00    -0.181 C  
HETATM    7  C   UNL     1      -8.825   7.096  70.946  1.00  0.00    -0.150 C  
HETATM    8  C   UNL     1      -9.820   8.254  70.750  1.00  0.00    -0.205 C  
HETATM    9  C   UNL     1     -10.888   7.842  69.729  1.00  0.00    -0.211 C  
HETATM   10  C   UNL     1     -11.637   6.599  70.231  1.00  0.00    -0.454 C  
HETATM   11  C   UNL     1     -12.308   6.917  71.576  1.00  0.00    -0.420 C  
HETATM   12  C   UNL     1     -10.638   5.446  70.424  1.00  0.00    -0.322 C  
HETATM   13  C   UNL     1     -11.247   7.331  72.607  1.00  0.00    -0.355 C  
HETATM   14  C   UNL     1     -10.251   6.176  72.804  1.00  0.00    -0.203 C  
HETATM   15  C   UNL     1     -10.494   8.569  72.095  1.00  0.00    -0.412 C  
ENDBRANCH   2   6
TORSDOF 1
ENDMDL
MODEL      120
REMARK 921   NORMALIZED FREE ENERGY PREDICTED BY IDOCK:   -2.98 KCAL/MOL
REMARK 922        TOTAL FREE ENERGY PREDICTED BY IDOCK:   -3.28 KCAL/MOL
REMARK 923 INTER-LIGAND FREE ENERGY PREDICTED BY IDOCK:   -3.15 KCAL/MOL
REMARK 924 INTRA-LIGAND FREE ENERGY PREDICTED BY IDOCK:   -0.13 KCAL/MOL
REMARK 927      BINDING AFFINITY PREDICTED BY RF-SCORE:    0.00 PKD
ROOT
HETATM    1  C   UNL     1     -11.344  12.422  65.866  1.00  0.00    -0.399 C  
HETATM    2  C   UNL     1     -10.384  11.268  65.544  1.00  0.00    -0.266 C  
HETATM    3  N   UNL     1      -9.172  11.845  64.949  1.00  0.00    -0.413 NA 
HETATM    4  H2  UNL     1      -8.746  12.562  65.535  1.00  0.00     0.000 HD 
HETATM    5  H1  UNL     1      -8.533  11.078  64.736  1.00  0.00     0.000 HD 
ENDROOT
BRANCH   2   6
HETATM    6  C   UNL     1     -10.058  10.334  66.759  1.00  0.00    -0.272 C  
HETATM    7  C   UNL     1      -8.677  10.704  67.374  1.00  0.00    -0.125 C  
HETATM    8  C   UNL     1      -8.355   9.823  68.595  1.00  0.00    -0.111 C  
HETATM    9  C   UNL     1      -9.434  10.021  69.667  1.00  0.00    -0.247 C  
HETATM   10  C   UNL     1     -10.808   9.633  69.101  1.00  0.00    -0.212 C  
HETATM   11  C   UNL     1     -10.782   8.160  68.664  1.00  0.00    -0.065 C  
HETATM   12  C   UNL     1     -11.124  10.517  67.882  1.00  0.00    -0.367 C  
HETATM   13  C   UNL     1      -9.703   7.950  67.590  1.00  0.00    -0.196 C  
HETATM   14  C   UNL     1     -10.022   8.830  66.370  1.00  0.00    -0.346 C  
HETATM   15  C   UNL     1      -8.332   8.350  68.159  1.00  0.00    -0.128 C  
ENDBRANCH   2   6
TORSDOF 1
ENDMDL
MODEL      121
REMARK 921   NORMALIZED FREE ENERGY PREDICTED BY IDOCK:   -2.94 KCAL/MOL
REMARK 922        TOTAL FREE ENERGY PREDICTED BY IDOCK:   -3.24 KCAL/MOL
REMARK 923 INTER-LIGAND FREE ENERGY PREDICTED BY IDOCK:   -3.11 KCAL/MOL
REMARK 924 INTRA-LIGAND FREE ENERGY PREDICTED BY IDOCK:   -0.12 KCAL/MOL
REMARK 927      BINDING AFFINITY PREDICTED BY RF-SCORE:    0.00 PKD
ROOT
HETATM    1  C   UNL     1      -9.231  11.866  68.797  1.00  0.00     0.025 C  
HETATM    2  C   UNL     1      -8.388  12.836  67.958  1.00  0.00    -0.173 C  
HETATM    3  N   UNL     1      -8.101  12.185  66.673  1.00  0.00    -0.384 NA 
HETATM    4  H2  UNL     1      -8.942  11.874  66.190  1.00  0.00     0.000 HD 
HETATM    5  H1  UNL     1      -7.541  12.831  66.115  1.00  0.00     0.000 HD 
ENDROOT
BRANCH   2   6
HETATM    6  C   UNL     1      -9.023  14.256  67.771  1.00  0.00    -0.188 C  
HETATM    7  C   UNL     1     -10.374  14.153  67.006  1.00  0.00    -0.267 C  
HETATM    8  C   UNL     1     -11.034  15.534  66.846  1.00  0.00    -0.268 C  
HETATM    9  C   UNL     1     -11.304  16.135  68.232  1.00  0.00    -0.316 C  
HETATM   10  C   UNL     1      -9.984  16.280  69.003  1.00  0.00    -0.256 C  
HETATM   11  C   UNL     1      -9.036  17.202  68.220  1.00  0.00    -0.259 C  
HETATM   12  C   UNL     1      -9.330  14.897  69.160  1.00  0.00    -0.145 C  
HETATM   13  C   UNL     1      -8.759  16.611  66.829  1.00  0.00    -0.256 C  
HETATM   14  C   UNL     1      -8.100  15.230  66.986  1.00  0.00    -0.253 C  
HETATM   15  C   UNL     1     -10.084  16.457  66.067  1.00  0.00    -0.373 C  
ENDBRANCH   2   6
TORSDOF 1
ENDMDL
MODEL      122
REMARK 921   NORMALIZED FREE ENERGY PREDICTED BY IDOCK:   -2.92 KCAL/MOL
REMARK 922        TOTAL FREE ENERGY PREDICTED BY IDOCK:   -3.22 KCAL/MOL
REMARK 923 INTER-LIGAND FREE ENERGY PREDICTED BY IDOCK:   -3.10 KCAL/MOL
REMARK 924 INTRA-LIGAND FREE ENERGY PREDICTED BY IDOCK:   -0.12 KCAL/MOL
REMARK 927      BINDING AFFINITY PREDICTED BY RF-SCORE:    0.00 PKD
ROOT
HETATM    1  C   UNL     1     -11.447  11.916  66.532  1.00  0.00    -0.381 C  
HETATM    2  C   UNL     1     -11.052  11.326  67.892  1.00  0.00    -0.267 C  
HETATM    3  N   UNL     1     -12.278  10.853  68.549  1.00  0.00    -0.809 NA 
HETATM    4  H2  UNL     1     -12.808  10.198  67.973  1.00  0.00     0.000 HD 
HETATM    5  H1  UNL     1     -12.016  10.460  69.453  1.00  0.00     0.000 HD 
ENDROOT
BRANCH   2   6
HETATM    6  C   UNL     1      -9.951  10.215  67.827  1.00  0.00    -0.198 C  
HETATM    7  C   UNL     1     -10.493   8.953  67.094  1.00  0.00    -0.344 C  
HETATM    8  C   UNL     1      -9.413   7.862  66.983  1.00  0.00    -0.222 C  
HETATM    9  C   UNL     1      -8.216   8.407  66.193  1.00  0.00    -0.113 C  
HETATM   10  C   UNL     1      -7.635   9.636  66.908  1.00  0.00    -0.095 C  
HETATM   11  C   UNL     1      -7.180   9.236  68.320  1.00  0.00    -0.077 C  
HETATM   12  C   UNL     1      -8.719  10.722  67.015  1.00  0.00    -0.136 C  
HETATM   13  C   UNL     1      -8.371   8.688  69.121  1.00  0.00    -0.119 C  
HETATM   14  C   UNL     1      -9.453   9.776  69.232  1.00  0.00    -0.201 C  
HETATM   15  C   UNL     1      -8.955   7.465  68.395  1.00  0.00    -0.134 C  
ENDBRANCH   2   6
TORSDOF 1
ENDMDL
MODEL      123
REMARK 921   NORMALIZED FREE ENERGY PREDICTED BY IDOCK:   -2.86 KCAL/MOL
REMARK 922        TOTAL FREE ENERGY PREDICTED BY IDOCK:   -3.16 KCAL/MOL
REMARK 923 INTER-LIGAND FREE ENERGY PREDICTED BY IDOCK:   -3.02 KCAL/MOL
REMARK 924 INTRA-LIGAND FREE ENERGY PREDICTED BY IDOCK:   -0.13 KCAL/MOL
REMARK 927      BINDING AFFINITY PREDICTED BY RF-SCORE:    0.00 PKD
ROOT
HETATM    1  C   UNL     1      -9.395   9.646  67.209  1.00  0.00    -0.163 C  
HETATM    2  C   UNL     1     -10.425   8.651  67.760  1.00  0.00    -0.224 C  
HETATM    3  N   UNL     1     -10.621   7.603  66.749  1.00  0.00    -0.478 NA 
HETATM    4  H2  UNL     1      -9.749   7.155  66.469  1.00  0.00     0.000 HD 
HETATM    5  H1  UNL     1     -11.306   6.941  67.115  1.00  0.00     0.000 HD 
ENDROOT
BRANCH   2   6
HETATM    6  C   UNL     1     -10.071   8.057  69.165  1.00  0.00    -0.202 C  
HETATM    7  C   UNL     1      -8.620   8.449  69.573  1.00  0.00    -0.129 C  
HETATM    8  C   UNL     1      -8.266   7.907  70.969  1.00  0.00    -0.100 C  
HETATM    9  C   UNL     1      -9.238   8.490  72.005  1.00  0.00    -0.326 C  
HETATM   10  C   UNL     1     -10.678   8.093  71.649  1.00  0.00    -0.299 C  
HETATM   11  C   UNL     1     -10.796   6.561  71.639  1.00  0.00    -0.281 C  
HETATM   12  C   UNL     1     -11.025   8.637  70.253  1.00  0.00    -0.251 C  
HETATM   13  C   UNL     1      -9.827   5.966  70.605  1.00  0.00    -0.230 C  
HETATM   14  C   UNL     1     -10.178   6.506  69.208  1.00  0.00    -0.216 C  
HETATM   15  C   UNL     1      -8.388   6.376  70.960  1.00  0.00    -0.123 C  
ENDBRANCH   2   6
TORSDOF 1
ENDMDL
MODEL      124
REMARK 921   NORMALIZED FREE ENERGY PREDICTED BY IDOCK:   -2.84 KCAL/MOL
REMARK 922        TOTAL FREE ENERGY PREDICTED BY IDOCK:   -3.13 KCAL/MOL
REMARK 923 INTER-LIGAND FREE ENERGY PREDICTED BY IDOCK:   -3.01 KCAL/MOL
REMARK 924 INTRA-LIGAND FREE ENERGY PREDICTED BY IDOCK:   -0.12 KCAL/MOL
REMARK 927      BINDING AFFINITY PREDICTED BY RF-SCORE:    0.00 PKD
ROOT
HETATM    1  C   UNL     1     -10.055   9.549  66.290  1.00  0.00    -0.327 C  
HETATM    2  C   UNL     1      -9.365   8.212  66.592  1.00  0.00    -0.197 C  
HETATM    3  N   UNL     1      -7.919   8.402  66.412  1.00  0.00    -0.098 NA 
HETATM    4  H2  UNL     1      -7.549   9.172  66.968  1.00  0.00     0.000 HD 
HETATM    5  H1  UNL     1      -7.460   7.513  66.613  1.00  0.00     0.000 HD 
ENDROOT
BRANCH   2   6
HETATM    6  C   UNL     1      -9.709   7.602  67.993  1.00  0.00    -0.173 C  
HETATM    7  C   UNL     1     -10.800   6.500  67.855  1.00  0.00    -0.383 C  
HETATM    8  C   UNL     1     -11.125   5.860  69.216  1.00  0.00    -0.352 C  
HETATM    9  C   UNL     1      -9.856   5.219  69.795  1.00  0.00    -0.282 C  
HETATM   10  C   UNL     1      -8.768   6.287  69.975  1.00  0.00    -0.141 C  
HETATM   11  C   UNL     1      -9.276   7.376  70.933  1.00  0.00    -0.154 C  
HETATM   12  C   UNL     1      -8.448   6.923  68.611  1.00  0.00    -0.121 C  
HETATM   13  C   UNL     1     -10.547   8.025  70.364  1.00  0.00    -0.224 C  
HETATM   14  C   UNL     1     -10.226   8.665  69.003  1.00  0.00    -0.218 C  
HETATM   15  C   UNL     1     -11.629   6.949  70.176  1.00  0.00    -0.340 C  
ENDBRANCH   2   6
TORSDOF 1
ENDMDL
MODEL      125
REMARK 921   NORMALIZED FREE ENERGY PREDICTED BY IDOCK:   -2.77 KCAL/MOL
REMARK 922        TOTAL FREE ENERGY PREDICTED BY IDOCK:   -3.06 KCAL/MOL
REMARK 923 INTER-LIGAND FREE ENERGY PREDICTED BY IDOCK:   -2.92 KCAL/MOL
REMARK 924 INTRA-LIGAND FREE ENERGY PREDICTED BY IDOCK:   -0.13 KCAL/MOL
REMARK 927      BINDING AFFINITY PREDICTED BY RF-SCORE:    0.00 PKD
ROOT
HETATM    1  C   UNL     1      -9.288   8.512  69.349  1.00  0.00    -0.154 C  
HETATM    2  C   UNL     1      -8.766   9.165  68.062  1.00  0.00    -0.129 C  
HETATM    3  N   UNL     1      -8.965   8.211  66.963  1.00  0.00    -0.137 NA 
HETATM    4  H2  UNL     1      -9.931   7.895  66.882  1.00  0.00     0.000 HD 
HETATM    5  H1  UNL     1      -8.618   8.645  66.107  1.00  0.00     0.000 HD 
ENDROOT
BRANCH   2   6
HETATM    6  C   UNL     1      -9.386  10.567  67.745  1.00  0.00    -0.158 C  
HETATM    7  C   UNL     1     -10.484  10.443  66.648  1.00  0.00    -0.279 C  
HETATM    8  C   UNL     1     -11.134  11.805  66.349  1.00  0.00    -0.360 C  
HETATM    9  C   UNL     1     -11.784  12.352  67.627  1.00  0.00    -0.412 C  
HETATM   10  C   UNL     1     -10.720  12.519  68.722  1.00  0.00    -0.235 C  
HETATM   11  C   UNL     1      -9.638  13.496  68.237  1.00  0.00    -0.218 C  
HETATM   12  C   UNL     1     -10.074  11.154  69.016  1.00  0.00    -0.173 C  
HETATM   13  C   UNL     1      -8.981  12.958  66.957  1.00  0.00    -0.225 C  
HETATM   14  C   UNL     1      -8.330  11.596  67.252  1.00  0.00    -0.158 C  
HETATM   15  C   UNL     1     -10.052  12.784  65.868  1.00  0.00    -0.286 C  
ENDBRANCH   2   6
TORSDOF 1
ENDMDL
MODEL      126
REMARK 921   NORMALIZED FREE ENERGY PREDICTED BY IDOCK:   -2.76 KCAL/MOL
REMARK 922        TOTAL FREE ENERGY PREDICTED BY IDOCK:   -3.05 KCAL/MOL
REMARK 923 INTER-LIGAND FREE ENERGY PREDICTED BY IDOCK:   -2.92 KCAL/MOL
REMARK 924 INTRA-LIGAND FREE ENERGY PREDICTED BY IDOCK:   -0.13 KCAL/MOL
REMARK 927      BINDING AFFINITY PREDICTED BY RF-SCORE:    0.00 PKD
ROOT
HETATM    1  C   UNL     1      -9.784  11.510  68.560  1.00  0.00    -0.191 C  
HETATM    2  C   UNL     1      -9.634  10.329  69.528  1.00  0.00    -0.202 C  
HETATM    3  N   UNL     1     -10.666  10.463  70.565  1.00  0.00    -0.423 NA 
HETATM    4  H2  UNL     1     -11.606  10.541  70.179  1.00  0.00     0.000 HD 
HETATM    5  H1  UNL     1     -10.566   9.678  71.208  1.00  0.00     0.000 HD 
ENDROOT
BRANCH   2   6
HETATM    6  C   UNL     1      -9.663   8.919  68.846  1.00  0.00    -0.173 C  
HETATM    7  C   UNL     1     -10.131   9.039  67.366  1.00  0.00    -0.291 C  
HETATM    8  C   UNL     1     -10.129   7.669  66.666  1.00  0.00    -0.278 C  
HETATM    9  C   UNL     1      -8.708   7.089  66.682  1.00  0.00    -0.131 C  
HETATM   10  C   UNL     1      -8.228   6.927  68.131  1.00  0.00    -0.119 C  
HETATM   11  C   UNL     1      -9.178   5.979  68.880  1.00  0.00    -0.125 C  
HETATM   12  C   UNL     1      -8.232   8.299  68.825  1.00  0.00    -0.117 C  
HETATM   13  C   UNL     1     -10.604   6.550  68.870  1.00  0.00    -0.280 C  
HETATM   14  C   UNL     1     -10.609   7.919  69.569  1.00  0.00    -0.220 C  
HETATM   15  C   UNL     1     -11.075   6.720  67.416  1.00  0.00    -0.366 C  
ENDBRANCH   2   6
TORSDOF 1
ENDMDL
MODEL      127
REMARK 921   NORMALIZED FREE ENERGY PREDICTED BY IDOCK:   -2.76 KCAL/MOL
REMARK 922        TOTAL FREE ENERGY PREDICTED BY IDOCK:   -3.04 KCAL/MOL
REMARK 923 INTER-LIGAND FREE ENERGY PREDICTED BY IDOCK:   -2.91 KCAL/MOL
REMARK 924 INTRA-LIGAND FREE ENERGY PREDICTED BY IDOCK:   -0.13 KCAL/MOL
REMARK 927      BINDING AFFINITY PREDICTED BY RF-SCORE:    0.00 PKD
ROOT
HETATM    1  C   UNL     1     -10.165   6.668  67.571  1.00  0.00    -0.229 C  
HETATM    2  C   UNL     1     -10.514   7.996  68.255  1.00  0.00    -0.161 C  
HETATM    3  N   UNL     1     -10.032   7.928  69.641  1.00  0.00    -0.187 NA 
HETATM    4  H2  UNL     1      -9.041   7.699  69.705  1.00  0.00     0.000 HD 
HETATM    5  H1  UNL     1     -10.264   8.811  70.096  1.00  0.00     0.000 HD 
ENDROOT
BRANCH   2   6
HETATM    6  C   UNL     1      -9.989   9.270  67.511  1.00  0.00    -0.254 C  
HETATM    7  C   UNL     1      -9.666   8.939  66.025  1.00  0.00    -0.308 C  
HETATM    8  C   UNL     1      -9.186  10.188  65.264  1.00  0.00    -0.257 C  
HETATM    9  C   UNL     1     -10.284  11.260  65.297  1.00  0.00    -0.328 C  
HETATM   10  C   UNL     1     -10.604  11.634  66.751  1.00  0.00    -0.280 C  
HETATM   11  C   UNL     1      -9.336  12.177  67.428  1.00  0.00    -0.181 C  
HETATM   12  C   UNL     1     -11.084  10.382  67.505  1.00  0.00    -0.336 C  
HETATM   13  C   UNL     1      -8.229  11.112  67.401  1.00  0.00    -0.132 C  
HETATM   14  C   UNL     1      -8.706   9.862  68.160  1.00  0.00    -0.122 C  
HETATM   15  C   UNL     1      -7.920  10.734  65.944  1.00  0.00    -0.140 C  
ENDBRANCH   2   6
TORSDOF 1
ENDMDL
MODEL      128
REMARK 921   NORMALIZED FREE ENERGY PREDICTED BY IDOCK:   -2.70 KCAL/MOL
REMARK 922        TOTAL FREE ENERGY PREDICTED BY IDOCK:   -2.98 KCAL/MOL
REMARK 923 INTER-LIGAND FREE ENERGY PREDICTED BY IDOCK:   -2.85 KCAL/MOL
REMARK 924 INTRA-LIGAND FREE ENERGY PREDICTED BY IDOCK:   -0.13 KCAL/MOL
REMARK 927      BINDING AFFINITY PREDICTED BY RF-SCORE:    0.00 PKD
ROOT
HETATM    1  C   UNL     1      -8.320  10.523  67.221  1.00  0.00    -0.122 C  
HETATM    2  C   UNL     1      -9.712   9.885  67.320  1.00  0.00    -0.171 C  
HETATM    3  N   UNL     1     -10.201   9.659  65.954  1.00  0.00    -0.221 NA 
HETATM    4  H2  UNL     1      -9.555   9.110  65.388  1.00  0.00     0.000 HD 
HETATM    5  H1  UNL     1     -11.127   9.235  66.019  1.00  0.00     0.000 HD 
ENDROOT
BRANCH   2   6
HETATM    6  C   UNL     1      -9.773   8.585  68.191  1.00  0.00    -0.175 C  
HETATM    7  C   UNL     1     -10.627   8.825  69.470  1.00  0.00    -0.224 C  
HETATM    8  C   UNL     1     -10.733   7.547  70.321  1.00  0.00    -0.247 C  
HETATM    9  C   UNL     1     -11.396   6.437  69.495  1.00  0.00    -0.460 C  
HETATM   10  C   UNL     1     -10.559   6.152  68.239  1.00  0.00    -0.324 C  
HETATM   11  C   UNL     1      -9.148   5.708  68.657  1.00  0.00    -0.124 C  
HETATM   12  C   UNL     1     -10.458   7.432  67.393  1.00  0.00    -0.366 C  
HETATM   13  C   UNL     1      -8.475   6.813  69.485  1.00  0.00    -0.133 C  
HETATM   14  C   UNL     1      -8.368   8.092  68.638  1.00  0.00    -0.127 C  
HETATM   15  C   UNL     1      -9.322   7.101  70.735  1.00  0.00    -0.160 C  
ENDBRANCH   2   6
TORSDOF 1
ENDMDL
MODEL      129
REMARK 921   NORMALIZED FREE ENERGY PREDICTED BY IDOCK:   -2.68 KCAL/MOL
REMARK 922        TOTAL FREE ENERGY PREDICTED BY IDOCK:   -2.97 KCAL/MOL
REMARK 923 INTER-LIGAND FREE ENERGY PREDICTED BY IDOCK:   -2.84 KCAL/MOL
REMARK 924 INTRA-LIGAND FREE ENERGY PREDICTED BY IDOCK:   -0.13 KCAL/MOL
REMARK 927      BINDING AFFINITY PREDICTED BY RF-SCORE:    0.00 PKD
ROOT
HETATM    1  C   UNL     1      -9.725   6.776  66.266  1.00  0.00    -0.053 C  
HETATM    2  C   UNL     1     -10.480   5.784  67.160  1.00  0.00    -0.273 C  
HETATM    3  N   UNL     1     -10.357   4.451  66.556  1.00  0.00    -0.339 NA 
HETATM    4  H2  UNL     1      -9.389   4.178  66.392  1.00  0.00     0.000 HD 
HETATM    5  H1  UNL     1     -10.858   3.791  67.151  1.00  0.00     0.000 HD 
ENDROOT
BRANCH   2   6
HETATM    6  C   UNL     1     -10.036   5.793  68.662  1.00  0.00    -0.227 C  
HETATM    7  C   UNL     1      -9.062   6.975  68.936  1.00  0.00    -0.134 C  
HETATM    8  C   UNL     1      -8.644   7.026  70.416  1.00  0.00    -0.142 C  
HETATM    9  C   UNL     1      -9.891   7.210  71.292  1.00  0.00    -0.178 C  
HETATM   10  C   UNL     1     -10.861   6.041  71.071  1.00  0.00    -0.345 C  
HETATM   11  C   UNL     1     -10.163   4.723  71.441  1.00  0.00    -0.237 C  
HETATM   12  C   UNL     1     -11.274   5.996  69.590  1.00  0.00    -0.428 C  
HETATM   13  C   UNL     1      -8.912   4.528  70.570  1.00  0.00    -0.155 C  
HETATM   14  C   UNL     1      -9.326   4.478  69.090  1.00  0.00    -0.214 C  
HETATM   15  C   UNL     1      -7.950   5.707  70.788  1.00  0.00    -0.112 C  
ENDBRANCH   2   6
TORSDOF 1
ENDMDL
MODEL      130
REMARK 921   NORMALIZED FREE ENERGY PREDICTED BY IDOCK:   -2.66 KCAL/MOL
REMARK 922        TOTAL FREE ENERGY PREDICTED BY IDOCK:   -2.94 KCAL/MOL
REMARK 923 INTER-LIGAND FREE ENERGY PREDICTED BY IDOCK:   -2.81 KCAL/MOL
REMARK 924 INTRA-LIGAND FREE ENERGY PREDICTED BY IDOCK:   -0.14 KCAL/MOL
REMARK 927      BINDING AFFINITY PREDICTED BY RF-SCORE:    0.00 PKD
ROOT
HETATM    1  C   UNL     1      -9.967   9.491  66.258  1.00  0.00    -0.344 C  
HETATM    2  C   UNL     1      -9.518   8.024  66.269  1.00  0.00    -0.172 C  
HETATM    3  N   UNL     1      -8.152   7.969  65.730  1.00  0.00    -0.114 NA 
HETATM    4  H2  UNL     1      -7.506   8.584  66.224  1.00  0.00     0.000 HD 
HETATM    5  H1  UNL     1      -7.853   6.994  65.737  1.00  0.00     0.000 HD 
ENDROOT
BRANCH   2   6
HETATM    6  C   UNL     1      -9.630   7.318  67.662  1.00  0.00    -0.160 C  
HETATM    7  C   UNL     1      -8.228   6.854  68.153  1.00  0.00    -0.119 C  
HETATM    8  C   UNL     1      -8.311   6.192  69.540  1.00  0.00    -0.120 C  
HETATM    9  C   UNL     1      -8.874   7.197  70.553  1.00  0.00    -0.154 C  
HETATM   10  C   UNL     1     -10.274   7.652  70.114  1.00  0.00    -0.204 C  
HETATM   11  C   UNL     1     -11.203   6.430  70.033  1.00  0.00    -0.475 C  
HETATM   12  C   UNL     1     -10.183   8.312  68.729  1.00  0.00    -0.226 C  
HETATM   13  C   UNL     1     -10.649   5.416  69.021  1.00  0.00    -0.217 C  
HETATM   14  C   UNL     1     -10.564   6.075  67.634  1.00  0.00    -0.336 C  
HETATM   15  C   UNL     1      -9.244   4.973  69.459  1.00  0.00    -0.167 C  
ENDBRANCH   2   6
TORSDOF 1
ENDMDL
MODEL      131
REMARK 921   NORMALIZED FREE ENERGY PREDICTED BY IDOCK:   -2.61 KCAL/MOL
REMARK 922        TOTAL FREE ENERGY PREDICTED BY IDOCK:   -2.89 KCAL/MOL
REMARK 923 INTER-LIGAND FREE ENERGY PREDICTED BY IDOCK:   -2.76 KCAL/MOL
REMARK 924 INTRA-LIGAND FREE ENERGY PREDICTED BY IDOCK:   -0.12 KCAL/MOL
REMARK 927      BINDING AFFINITY PREDICTED BY RF-SCORE:    0.00 PKD
ROOT
HETATM    1  C   UNL     1      -6.692  11.371  69.476  1.00  0.00    -0.119 C  
HETATM    2  C   UNL     1      -6.766  11.141  67.961  1.00  0.00    -0.062 C  
HETATM    3  N   UNL     1      -5.704  10.192  67.600  1.00  0.00    -0.045 NA 
HETATM    4  H2  UNL     1      -5.749   9.325  68.134  1.00  0.00     0.000 HD 
HETATM    5  H1  UNL     1      -5.753  10.038  66.592  1.00  0.00     0.000 HD 
ENDROOT
BRANCH   2   6
HETATM    6  C   UNL     1      -8.169  10.682  67.439  1.00  0.00    -0.115 C  
HETATM    7  C   UNL     1      -8.948  11.889  66.840  1.00  0.00    -0.196 C  
HETATM    8  C   UNL     1     -10.316  11.452  66.284  1.00  0.00    -0.287 C  
HETATM    9  C   UNL     1     -10.108  10.408  65.178  1.00  0.00    -0.379 C  
HETATM   10  C   UNL     1      -9.369   9.188  65.745  1.00  0.00    -0.309 C  
HETATM   11  C   UNL     1     -10.200   8.572  66.882  1.00  0.00    -0.375 C  
HETATM   12  C   UNL     1      -8.004   9.631  66.298  1.00  0.00    -0.108 C  
HETATM   13  C   UNL     1     -10.414   9.609  67.996  1.00  0.00    -0.276 C  
HETATM   14  C   UNL     1      -9.049  10.048  68.553  1.00  0.00    -0.127 C  
HETATM   15  C   UNL     1     -11.145  10.833  67.420  1.00  0.00    -0.363 C  
ENDBRANCH   2   6
TORSDOF 1
ENDMDL
MODEL      132
REMARK 921   NORMALIZED FREE ENERGY PREDICTED BY IDOCK:   -2.54 KCAL/MOL
REMARK 922        TOTAL FREE ENERGY PREDICTED BY IDOCK:   -2.81 KCAL/MOL
REMARK 923 INTER-LIGAND FREE ENERGY PREDICTED BY IDOCK:   -2.69 KCAL/MOL
REMARK 924 INTRA-LIGAND FREE ENERGY PREDICTED BY IDOCK:   -0.12 KCAL/MOL
REMARK 927      BINDING AFFINITY PREDICTED BY RF-SCORE:    0.00 PKD
ROOT
HETATM    1  C   UNL     1     -11.839   7.027  70.790  1.00  0.00    -0.401 C  
HETATM    2  C   UNL     1     -11.278   6.212  69.618  1.00  0.00    -0.418 C  
HETATM    3  N   UNL     1     -10.938   7.151  68.540  1.00  0.00    -0.444 NA 
HETATM    4  H2  UNL     1     -10.306   7.891  68.845  1.00  0.00     0.000 HD 
HETATM    5  H1  UNL     1     -10.564   6.609  67.760  1.00  0.00     0.000 HD 
ENDROOT
BRANCH   2   6
HETATM    6  C   UNL     1     -10.075   5.280  69.988  1.00  0.00    -0.336 C  
HETATM    7  C   UNL     1      -8.805   6.124  70.295  1.00  0.00    -0.149 C  
HETATM    8  C   UNL     1      -7.621   5.228  70.701  1.00  0.00    -0.076 C  
HETATM    9  C   UNL     1      -7.991   4.431  71.959  1.00  0.00    -0.098 C  
HETATM   10  C   UNL     1      -9.225   3.560  71.680  1.00  0.00    -0.188 C  
HETATM   11  C   UNL     1      -8.912   2.589  70.530  1.00  0.00    -0.160 C  
HETATM   12  C   UNL     1     -10.403   4.461  71.275  1.00  0.00    -0.060 C  
HETATM   13  C   UNL     1      -8.540   3.377  69.264  1.00  0.00    -0.112 C  
HETATM   14  C   UNL     1      -9.721   4.274  68.857  1.00  0.00    -0.195 C  
HETATM   15  C   UNL     1      -7.312   4.255  69.553  1.00  0.00    -0.050 C  
ENDBRANCH   2   6
TORSDOF 1
ENDMDL
MODEL      133
REMARK 921   NORMALIZED FREE ENERGY PREDICTED BY IDOCK:   -2.52 KCAL/MOL
REMARK 922        TOTAL FREE ENERGY PREDICTED BY IDOCK:   -2.79 KCAL/MOL
REMARK 923 INTER-LIGAND FREE ENERGY PREDICTED BY IDOCK:   -2.66 KCAL/MOL
REMARK 924 INTRA-LIGAND FREE ENERGY PREDICTED BY IDOCK:   -0.13 KCAL/MOL
REMARK 927      BINDING AFFINITY PREDICTED BY RF-SCORE:    0.00 PKD
ROOT
HETATM    1  C   UNL     1      -8.269   6.829  70.633  1.00  0.00    -0.120 C  
HETATM    2  C   UNL     1      -9.636   7.116  69.998  1.00  0.00    -0.164 C  
HETATM    3  N   UNL     1     -10.629   7.182  71.078  1.00  0.00    -0.220 NA 
HETATM    4  H2  UNL     1     -10.381   7.855  71.803  1.00  0.00     0.000 HD 
HETATM    5  H1  UNL     1     -11.538   7.373  70.656  1.00  0.00     0.000 HD 
ENDROOT
BRANCH   2   6
HETATM    6  C   UNL     1      -9.676   8.385  69.082  1.00  0.00    -0.171 C  
HETATM    7  C   UNL     1     -10.308   9.587  69.843  1.00  0.00    -0.265 C  
HETATM    8  C   UNL     1     -10.320  10.857  68.973  1.00  0.00    -0.230 C  
HETATM    9  C   UNL     1      -8.881  11.226  68.588  1.00  0.00    -0.141 C  
HETATM   10  C   UNL     1      -8.239  10.072  67.805  1.00  0.00    -0.113 C  
HETATM   11  C   UNL     1      -9.058   9.801  66.533  1.00  0.00    -0.182 C  
HETATM   12  C   UNL     1      -8.229   8.807  68.680  1.00  0.00    -0.117 C  
HETATM   13  C   UNL     1     -10.501   9.430  66.907  1.00  0.00    -0.281 C  
HETATM   14  C   UNL     1     -10.491   8.162  67.777  1.00  0.00    -0.279 C  
HETATM   15  C   UNL     1     -11.135  10.585  67.699  1.00  0.00    -0.375 C  
ENDBRANCH   2   6
TORSDOF 1
ENDMDL
MODEL      134
REMARK 921   NORMALIZED FREE ENERGY PREDICTED BY IDOCK:   -2.49 KCAL/MOL
REMARK 922        TOTAL FREE ENERGY PREDICTED BY IDOCK:   -2.76 KCAL/MOL
REMARK 923 INTER-LIGAND FREE ENERGY PREDICTED BY IDOCK:   -2.63 KCAL/MOL
REMARK 924 INTRA-LIGAND FREE ENERGY PREDICTED BY IDOCK:   -0.13 KCAL/MOL
REMARK 927      BINDING AFFINITY PREDICTED BY RF-SCORE:    0.00 PKD
ROOT
HETATM    1  C   UNL     1     -10.716   5.989  69.485  1.00  0.00    -0.405 C  
HETATM    2  C   UNL     1     -10.949   6.217  67.986  1.00  0.00    -0.305 C  
HETATM    3  N   UNL     1     -11.034   7.666  67.761  1.00  0.00    -0.501 NA 
HETATM    4  H2  UNL     1     -10.222   8.170  68.115  1.00  0.00     0.000 HD 
HETATM    5  H1  UNL     1     -11.189   7.818  66.763  1.00  0.00     0.000 HD 
ENDROOT
BRANCH   2   6
HETATM    6  C   UNL     1      -9.894   5.535  67.051  1.00  0.00    -0.176 C  
HETATM    7  C   UNL     1     -10.603   4.749  65.910  1.00  0.00    -0.290 C  
HETATM    8  C   UNL     1      -9.582   4.104  64.956  1.00  0.00    -0.180 C  
HETATM    9  C   UNL     1      -8.711   5.198  64.325  1.00  0.00    -0.071 C  
HETATM   10  C   UNL     1      -7.970   5.973  65.424  1.00  0.00    -0.118 C  
HETATM   11  C   UNL     1      -7.081   5.004  66.219  1.00  0.00    -0.072 C  
HETATM   12  C   UNL     1      -8.996   6.615  66.373  1.00  0.00    -0.161 C  
HETATM   13  C   UNL     1      -7.944   3.904  66.857  1.00  0.00    -0.096 C  
HETATM   14  C   UNL     1      -8.966   4.546  67.810  1.00  0.00    -0.131 C  
HETATM   15  C   UNL     1      -8.691   3.138  65.753  1.00  0.00    -0.128 C  
ENDBRANCH   2   6
TORSDOF 1
ENDMDL
MODEL      135
REMARK 921   NORMALIZED FREE ENERGY PREDICTED BY IDOCK:   -2.48 KCAL/MOL
REMARK 922        TOTAL FREE ENERGY PREDICTED BY IDOCK:   -2.76 KCAL/MOL
REMARK 923 INTER-LIGAND FREE ENERGY PREDICTED BY IDOCK:   -2.63 KCAL/MOL
REMARK 924 INTRA-LIGAND FREE ENERGY PREDICTED BY IDOCK:   -0.13 KCAL/MOL
REMARK 927      BINDING AFFINITY PREDICTED BY RF-SCORE:    0.00 PKD
ROOT
HETATM    1  C   UNL     1     -10.873   6.325  67.778  1.00  0.00    -0.424 C  
HETATM    2  C   UNL     1     -10.783   7.857  67.739  1.00  0.00    -0.119 C  
HETATM    3  N   UNL     1     -10.801   8.342  69.125  1.00  0.00    -0.419 NA 
HETATM    4  H2  UNL     1     -10.076   7.918  69.703  1.00  0.00     0.000 HD 
HETATM    5  H1  UNL     1     -10.742   9.361  69.100  1.00  0.00     0.000 HD 
ENDROOT
BRANCH   2   6
HETATM    6  C   UNL     1      -9.564   8.418  66.933  1.00  0.00    -0.264 C  
HETATM    7  C   UNL     1      -8.920   7.297  66.066  1.00  0.00    -0.149 C  
HETATM    8  C   UNL     1      -7.743   7.839  65.235  1.00  0.00    -0.102 C  
HETATM    9  C   UNL     1      -8.244   8.949  64.302  1.00  0.00    -0.169 C  
HETATM   10  C   UNL     1      -8.857  10.088  65.129  1.00  0.00    -0.207 C  
HETATM   11  C   UNL     1      -7.792  10.658  66.079  1.00  0.00    -0.156 C  
HETATM   12  C   UNL     1     -10.033   9.541  65.957  1.00  0.00    -0.348 C  
HETATM   13  C   UNL     1      -7.282   9.554  67.019  1.00  0.00    -0.087 C  
HETATM   14  C   UNL     1      -8.457   9.011  67.850  1.00  0.00    -0.121 C  
HETATM   15  C   UNL     1      -6.680   8.412  66.185  1.00  0.00    -0.061 C  
ENDBRANCH   2   6
TORSDOF 1
ENDMDL
MODEL      136
REMARK 921   NORMALIZED FREE ENERGY PREDICTED BY IDOCK:   -2.48 KCAL/MOL
REMARK 922        TOTAL FREE ENERGY PREDICTED BY IDOCK:   -2.75 KCAL/MOL
REMARK 923 INTER-LIGAND FREE ENERGY PREDICTED BY IDOCK:   -2.63 KCAL/MOL
REMARK 924 INTRA-LIGAND FREE ENERGY PREDICTED BY IDOCK:   -0.12 KCAL/MOL
REMARK 927      BINDING AFFINITY PREDICTED BY RF-SCORE:    0.00 PKD
ROOT
HETATM    1  C   UNL     1      -7.251   4.657  72.517  1.00  0.00    -0.081 C  
HETATM    2  C   UNL     1      -8.041   4.436  71.220  1.00  0.00    -0.082 C  
HETATM    3  N   UNL     1      -8.746   3.152  71.338  1.00  0.00    -0.071 NA 
HETATM    4  H2  UNL     1      -9.331   3.097  72.171  1.00  0.00     0.000 HD 
HETATM    5  H1  UNL     1      -9.272   3.005  70.476  1.00  0.00     0.000 HD 
ENDROOT
BRANCH   2   6
HETATM    6  C   UNL     1      -9.008   5.607  70.838  1.00  0.00    -0.151 C  
HETATM    7  C   UNL     1      -9.739   5.295  69.500  1.00  0.00    -0.246 C  
HETATM    8  C   UNL     1     -10.725   6.416  69.126  1.00  0.00    -0.339 C  
HETATM    9  C   UNL     1     -11.778   6.562  70.233  1.00  0.00    -0.430 C  
HETATM   10  C   UNL     1     -11.091   6.902  71.563  1.00  0.00    -0.276 C  
HETATM   11  C   UNL     1     -10.317   8.222  71.414  1.00  0.00    -0.270 C  
HETATM   12  C   UNL     1     -10.108   5.778  71.931  1.00  0.00    -0.228 C  
HETATM   13  C   UNL     1      -9.260   8.088  70.307  1.00  0.00    -0.155 C  
HETATM   14  C   UNL     1      -8.274   6.967  70.677  1.00  0.00    -0.119 C  
HETATM   15  C   UNL     1      -9.952   7.736  68.980  1.00  0.00    -0.182 C  
ENDBRANCH   2   6
TORSDOF 1
ENDMDL
MODEL      137
REMARK 921   NORMALIZED FREE ENERGY PREDICTED BY IDOCK:   -2.46 KCAL/MOL
REMARK 922        TOTAL FREE ENERGY PREDICTED BY IDOCK:   -2.73 KCAL/MOL
REMARK 923 INTER-LIGAND FREE ENERGY PREDICTED BY IDOCK:   -2.61 KCAL/MOL
REMARK 924 INTRA-LIGAND FREE ENERGY PREDICTED BY IDOCK:   -0.12 KCAL/MOL
REMARK 927      BINDING AFFINITY PREDICTED BY RF-SCORE:    0.00 PKD
ROOT
HETATM    1  C   UNL     1      -5.719  10.378  67.023  1.00  0.00    -0.046 C  
HETATM    2  C   UNL     1      -7.081  10.891  66.539  1.00  0.00    -0.139 C  
HETATM    3  N   UNL     1      -7.103  10.792  65.073  1.00  0.00    -0.360 NA 
HETATM    4  H2  UNL     1      -6.893   9.853  64.737  1.00  0.00     0.000 HD 
HETATM    5  H1  UNL     1      -8.009  11.133  64.751  1.00  0.00     0.000 HD 
ENDROOT
BRANCH   2   6
HETATM    6  C   UNL     1      -8.315  10.186  67.196  1.00  0.00    -0.125 C  
HETATM    7  C   UNL     1      -8.724  10.914  68.510  1.00  0.00    -0.153 C  
HETATM    8  C   UNL     1      -9.960  10.259  69.152  1.00  0.00    -0.235 C  
HETATM    9  C   UNL     1     -11.139  10.326  68.172  1.00  0.00    -0.324 C  
HETATM   10  C   UNL     1     -10.781   9.587  66.874  1.00  0.00    -0.184 C  
HETATM   11  C   UNL     1     -10.462   8.118  67.196  1.00  0.00    -0.396 C  
HETATM   12  C   UNL     1      -9.545  10.246  66.238  1.00  0.00    -0.238 C  
HETATM   13  C   UNL     1      -9.282   8.040  68.177  1.00  0.00    -0.134 C  
HETATM   14  C   UNL     1      -8.045   8.694  67.539  1.00  0.00    -0.106 C  
HETATM   15  C   UNL     1      -9.643   8.790  69.469  1.00  0.00    -0.167 C  
ENDBRANCH   2   6
TORSDOF 1
ENDMDL
MODEL      138
REMARK 921   NORMALIZED FREE ENERGY PREDICTED BY IDOCK:   -2.44 KCAL/MOL
REMARK 922        TOTAL FREE ENERGY PREDICTED BY IDOCK:   -2.71 KCAL/MOL
REMARK 923 INTER-LIGAND FREE ENERGY PREDICTED BY IDOCK:   -2.59 KCAL/MOL
REMARK 924 INTRA-LIGAND FREE ENERGY PREDICTED BY IDOCK:   -0.12 KCAL/MOL
REMARK 927      BINDING AFFINITY PREDICTED BY RF-SCORE:    0.00 PKD
ROOT
HETATM    1  C   UNL     1      -5.531  10.590  67.155  1.00  0.00    -0.041 C  
HETATM    2  C   UNL     1      -6.934  10.987  66.677  1.00  0.00    -0.140 C  
HETATM    3  N   UNL     1      -6.984  10.793  65.222  1.00  0.00    -0.361 NA 
HETATM    4  H2  UNL     1      -6.722   9.849  64.939  1.00  0.00     0.000 HD 
HETATM    5  H1  UNL     1      -7.917  11.056  64.904  1.00  0.00     0.000 HD 
ENDROOT
BRANCH   2   6
HETATM    6  C   UNL     1      -8.105  10.250  67.411  1.00  0.00    -0.110 C  
HETATM    7  C   UNL     1      -9.472  10.620  66.765  1.00  0.00    -0.189 C  
HETATM    8  C   UNL     1     -10.633   9.875  67.446  1.00  0.00    -0.338 C  
HETATM    9  C   UNL     1     -10.423   8.362  67.305  1.00  0.00    -0.373 C  
HETATM   10  C   UNL     1      -9.095   7.957  67.963  1.00  0.00    -0.132 C  
HETATM   11  C   UNL     1      -9.129   8.334  69.452  1.00  0.00    -0.154 C  
HETATM   12  C   UNL     1      -7.939   8.705  67.277  1.00  0.00    -0.101 C  
HETATM   13  C   UNL     1      -9.340   9.849  69.605  1.00  0.00    -0.247 C  
HETATM   14  C   UNL     1      -8.181  10.596  68.925  1.00  0.00    -0.145 C  
HETATM   15  C   UNL     1     -10.665  10.249  68.936  1.00  0.00    -0.256 C  
ENDBRANCH   2   6
TORSDOF 1
ENDMDL
MODEL      139
REMARK 921   NORMALIZED FREE ENERGY PREDICTED BY IDOCK:   -2.42 KCAL/MOL
REMARK 922        TOTAL FREE ENERGY PREDICTED BY IDOCK:   -2.69 KCAL/MOL
REMARK 923 INTER-LIGAND FREE ENERGY PREDICTED BY IDOCK:   -2.57 KCAL/MOL
REMARK 924 INTRA-LIGAND FREE ENERGY PREDICTED BY IDOCK:   -0.13 KCAL/MOL
REMARK 927      BINDING AFFINITY PREDICTED BY RF-SCORE:    0.00 PKD
ROOT
HETATM    1  C   UNL     1      -6.465  11.611  69.780  1.00  0.00    -0.111 C  
HETATM    2  C   UNL     1      -6.976  11.406  68.347  1.00  0.00    -0.075 C  
HETATM    3  N   UNL     1      -6.277  10.244  67.783  1.00  0.00    -0.056 NA 
HETATM    4  H2  UNL     1      -6.370   9.408  68.359  1.00  0.00     0.000 HD 
HETATM    5  H1  UNL     1      -6.617  10.108  66.830  1.00  0.00     0.000 HD 
ENDROOT
BRANCH   2   6
HETATM    6  C   UNL     1      -8.532  11.276  68.222  1.00  0.00    -0.152 C  
HETATM    7  C   UNL     1      -9.109  10.465  69.418  1.00  0.00    -0.170 C  
HETATM    8  C   UNL     1     -10.642  10.360  69.335  1.00  0.00    -0.267 C  
HETATM    9  C   UNL     1     -11.254  11.767  69.362  1.00  0.00    -0.300 C  
HETATM   10  C   UNL     1     -10.729  12.585  68.173  1.00  0.00    -0.246 C  
HETATM   11  C   UNL     1     -11.114  11.883  66.862  1.00  0.00    -0.356 C  
HETATM   12  C   UNL     1      -9.196  12.687  68.262  1.00  0.00    -0.184 C  
HETATM   13  C   UNL     1     -10.507  10.471  66.825  1.00  0.00    -0.302 C  
HETATM   14  C   UNL     1      -8.974  10.574  66.908  1.00  0.00    -0.151 C  
HETATM   15  C   UNL     1     -11.027   9.661  68.022  1.00  0.00    -0.197 C  
ENDBRANCH   2   6
TORSDOF 1
ENDMDL
MODEL      140
REMARK 921   NORMALIZED FREE ENERGY PREDICTED BY IDOCK:   -2.41 KCAL/MOL
REMARK 922        TOTAL FREE ENERGY PREDICTED BY IDOCK:   -2.68 KCAL/MOL
REMARK 923 INTER-LIGAND FREE ENERGY PREDICTED BY IDOCK:   -2.56 KCAL/MOL
REMARK 924 INTRA-LIGAND FREE ENERGY PREDICTED BY IDOCK:   -0.12 KCAL/MOL
REMARK 927      BINDING AFFINITY PREDICTED BY RF-SCORE:    0.00 PKD
ROOT
HETATM    1  C   UNL     1     -10.205  12.824  65.437  1.00  0.00    -0.299 C  
HETATM    2  C   UNL     1     -10.475  11.316  65.354  1.00  0.00    -0.268 C  
HETATM    3  N   UNL     1     -10.623  10.964  63.936  1.00  0.00    -0.510 NA 
HETATM    4  H2  UNL     1      -9.826  11.254  63.370  1.00  0.00     0.000 HD 
HETATM    5  H1  UNL     1     -10.802   9.960  63.880  1.00  0.00     0.000 HD 
ENDROOT
BRANCH   2   6
HETATM    6  C   UNL     1      -9.410  10.423  66.075  1.00  0.00    -0.219 C  
HETATM    7  C   UNL     1      -9.890   8.943  66.136  1.00  0.00    -0.326 C  
HETATM    8  C   UNL     1      -8.839   8.041  66.806  1.00  0.00    -0.157 C  
HETATM    9  C   UNL     1      -7.532   8.096  66.005  1.00  0.00    -0.080 C  
HETATM   10  C   UNL     1      -7.012   9.540  65.953  1.00  0.00    -0.091 C  
HETATM   11  C   UNL     1      -6.759  10.041  67.383  1.00  0.00    -0.073 C  
HETATM   12  C   UNL     1      -8.067  10.436  65.282  1.00  0.00    -0.152 C  
HETATM   13  C   UNL     1      -8.062   9.990  68.196  1.00  0.00    -0.108 C  
HETATM   14  C   UNL     1      -9.114  10.891  67.528  1.00  0.00    -0.142 C  
HETATM   15  C   UNL     1      -8.582   8.544  68.235  1.00  0.00    -0.139 C  
ENDBRANCH   2   6
TORSDOF 1
ENDMDL
MODEL      141
REMARK 921   NORMALIZED FREE ENERGY PREDICTED BY IDOCK:   -2.39 KCAL/MOL
REMARK 922        TOTAL FREE ENERGY PREDICTED BY IDOCK:   -2.66 KCAL/MOL
REMARK 923 INTER-LIGAND FREE ENERGY PREDICTED BY IDOCK:   -2.54 KCAL/MOL
REMARK 924 INTRA-LIGAND FREE ENERGY PREDICTED BY IDOCK:   -0.12 KCAL/MOL
REMARK 927      BINDING AFFINITY PREDICTED BY RF-SCORE:    0.00 PKD
ROOT
HETATM    1  C   UNL     1      -7.240   9.844  65.840  1.00  0.00    -0.108 C  
HETATM    2  C   UNL     1      -8.723   9.706  66.208  1.00  0.00    -0.142 C  
HETATM    3  N   UNL     1      -9.374   8.910  65.159  1.00  0.00    -0.442 NA 
HETATM    4  H2  UNL     1      -8.920   8.010  65.006  1.00  0.00     0.000 HD 
HETATM    5  H1  UNL     1     -10.360   8.818  65.404  1.00  0.00     0.000 HD 
ENDROOT
BRANCH   2   6
HETATM    6  C   UNL     1      -8.989   9.127  67.638  1.00  0.00    -0.130 C  
HETATM    7  C   UNL     1      -8.196   9.933  68.709  1.00  0.00    -0.114 C  
HETATM    8  C   UNL     1      -8.474   9.404  70.127  1.00  0.00    -0.224 C  
HETATM    9  C   UNL     1      -9.972   9.530  70.434  1.00  0.00    -0.325 C  
HETATM   10  C   UNL     1     -10.784   8.718  69.414  1.00  0.00    -0.180 C  
HETATM   11  C   UNL     1     -10.366   7.241  69.491  1.00  0.00    -0.230 C  
HETATM   12  C   UNL     1     -10.501   9.252  67.999  1.00  0.00    -0.275 C  
HETATM   13  C   UNL     1      -8.866   7.103  69.185  1.00  0.00    -0.135 C  
HETATM   14  C   UNL     1      -8.585   7.631  67.768  1.00  0.00    -0.121 C  
HETATM   15  C   UNL     1      -8.060   7.926  70.202  1.00  0.00    -0.116 C  
ENDBRANCH   2   6
TORSDOF 1
ENDMDL
MODEL      142
REMARK 921   NORMALIZED FREE ENERGY PREDICTED BY IDOCK:   -2.38 KCAL/MOL
REMARK 922        TOTAL FREE ENERGY PREDICTED BY IDOCK:   -2.65 KCAL/MOL
REMARK 923 INTER-LIGAND FREE ENERGY PREDICTED BY IDOCK:   -2.52 KCAL/MOL
REMARK 924 INTRA-LIGAND FREE ENERGY PREDICTED BY IDOCK:   -0.13 KCAL/MOL
REMARK 927      BINDING AFFINITY PREDICTED BY RF-SCORE:    0.00 PKD
ROOT
HETATM    1  C   UNL     1      -6.307   9.154  70.821  1.00  0.00    -0.064 C  
HETATM    2  C   UNL     1      -6.881   7.740  70.660  1.00  0.00    -0.042 C  
HETATM    3  N   UNL     1      -6.431   6.940  71.807  1.00  0.00    -0.048 NA 
HETATM    4  H2  UNL     1      -6.670   7.364  72.703  1.00  0.00     0.000 HD 
HETATM    5  H1  UNL     1      -6.814   6.000  71.701  1.00  0.00     0.000 HD 
ENDROOT
BRANCH   2   6
HETATM    6  C   UNL     1      -8.435   7.685  70.476  1.00  0.00    -0.128 C  
HETATM    7  C   UNL     1      -9.023   6.423  71.174  1.00  0.00    -0.146 C  
HETATM    8  C   UNL     1     -10.555   6.371  71.039  1.00  0.00    -0.282 C  
HETATM    9  C   UNL     1     -11.168   7.618  71.690  1.00  0.00    -0.282 C  
HETATM   10  C   UNL     1     -10.634   8.882  71.002  1.00  0.00    -0.315 C  
HETATM   11  C   UNL     1     -11.005   8.846  69.511  1.00  0.00    -0.097 C  
HETATM   12  C   UNL     1      -9.102   8.928  71.141  1.00  0.00    -0.315 C  
HETATM   13  C   UNL     1     -10.396   7.601  68.848  1.00  0.00    -0.222 C  
HETATM   14  C   UNL     1      -8.865   7.650  68.982  1.00  0.00    -0.135 C  
HETATM   15  C   UNL     1     -10.926   6.339  69.548  1.00  0.00    -0.445 C  
ENDBRANCH   2   6
TORSDOF 1
ENDMDL
MODEL      143
REMARK 921   NORMALIZED FREE ENERGY PREDICTED BY IDOCK:   -2.34 KCAL/MOL
REMARK 922        TOTAL FREE ENERGY PREDICTED BY IDOCK:   -2.60 KCAL/MOL
REMARK 923 INTER-LIGAND FREE ENERGY PREDICTED BY IDOCK:   -2.48 KCAL/MOL
REMARK 924 INTRA-LIGAND FREE ENERGY PREDICTED BY IDOCK:   -0.12 KCAL/MOL
REMARK 927      BINDING AFFINITY PREDICTED BY RF-SCORE:    0.00 PKD
ROOT
HETATM    1  C   UNL     1      -6.763  10.050  64.769  1.00  0.00    -0.127 C  
HETATM    2  C   UNL     1      -8.271   9.800  64.897  1.00  0.00    -0.142 C  
HETATM    3  N   UNL     1      -8.749   9.269  63.613  1.00  0.00    -0.335 NA 
HETATM    4  H2  UNL     1      -8.236   8.441  63.312  1.00  0.00     0.000 HD 
HETATM    5  H1  UNL     1      -9.752   9.102  63.698  1.00  0.00     0.000 HD 
ENDROOT
BRANCH   2   6
HETATM    6  C   UNL     1      -8.682   8.888  66.102  1.00  0.00    -0.177 C  
HETATM    7  C   UNL     1     -10.204   9.024  66.396  1.00  0.00    -0.297 C  
HETATM    8  C   UNL     1     -10.636   8.104  67.552  1.00  0.00    -0.291 C  
HETATM    9  C   UNL     1     -10.340   6.645  67.182  1.00  0.00    -0.319 C  
HETATM   10  C   UNL     1      -8.838   6.468  66.917  1.00  0.00    -0.120 C  
HETATM   11  C   UNL     1      -8.051   6.847  68.181  1.00  0.00    -0.119 C  
HETATM   12  C   UNL     1      -8.413   7.389  65.761  1.00  0.00    -0.149 C  
HETATM   13  C   UNL     1      -8.339   8.308  68.561  1.00  0.00    -0.129 C  
HETATM   14  C   UNL     1      -7.909   9.229  67.407  1.00  0.00    -0.099 C  
HETATM   15  C   UNL     1      -9.845   8.480  68.814  1.00  0.00    -0.180 C  
ENDBRANCH   2   6
TORSDOF 1
ENDMDL
MODEL      144
REMARK 921   NORMALIZED FREE ENERGY PREDICTED BY IDOCK:   -2.33 KCAL/MOL
REMARK 922        TOTAL FREE ENERGY PREDICTED BY IDOCK:   -2.60 KCAL/MOL
REMARK 923 INTER-LIGAND FREE ENERGY PREDICTED BY IDOCK:   -2.48 KCAL/MOL
REMARK 924 INTRA-LIGAND FREE ENERGY PREDICTED BY IDOCK:   -0.12 KCAL/MOL
REMARK 927      BINDING AFFINITY PREDICTED BY RF-SCORE:    0.00 PKD
ROOT
HETATM    1  C   UNL     1      -6.313  11.257  69.889  1.00  0.00    -0.142 C  
HETATM    2  C   UNL     1      -6.719  10.762  68.495  1.00  0.00    -0.057 C  
HETATM    3  N   UNL     1      -6.222   9.387  68.345  1.00  0.00    -0.052 NA 
HETATM    4  H2  UNL     1      -6.538   8.769  69.091  1.00  0.00     0.000 HD 
HETATM    5  H1  UNL     1      -6.492   9.057  67.418  1.00  0.00     0.000 HD 
ENDROOT
BRANCH   2   6
HETATM    6  C   UNL     1      -8.250  10.873  68.184  1.00  0.00    -0.121 C  
HETATM    7  C   UNL     1      -8.594  10.119  66.866  1.00  0.00    -0.127 C  
HETATM    8  C   UNL     1     -10.101  10.183  66.562  1.00  0.00    -0.296 C  
HETATM    9  C   UNL     1     -10.882   9.534  67.712  1.00  0.00    -0.258 C  
HETATM   10  C   UNL     1     -10.590  10.275  69.025  1.00  0.00    -0.247 C  
HETATM   11  C   UNL     1     -11.012  11.746  68.883  1.00  0.00    -0.288 C  
HETATM   12  C   UNL     1      -9.082  10.208  69.322  1.00  0.00    -0.208 C  
HETATM   13  C   UNL     1     -10.236  12.407  67.733  1.00  0.00    -0.212 C  
HETATM   14  C   UNL     1      -8.729  12.344  68.034  1.00  0.00    -0.186 C  
HETATM   15  C   UNL     1     -10.524  11.654  66.425  1.00  0.00    -0.283 C  
ENDBRANCH   2   6
TORSDOF 1
ENDMDL
MODEL      145
REMARK 921   NORMALIZED FREE ENERGY PREDICTED BY IDOCK:   -2.32 KCAL/MOL
REMARK 922        TOTAL FREE ENERGY PREDICTED BY IDOCK:   -2.58 KCAL/MOL
REMARK 923 INTER-LIGAND FREE ENERGY PREDICTED BY IDOCK:   -2.46 KCAL/MOL
REMARK 924 INTRA-LIGAND FREE ENERGY PREDICTED BY IDOCK:   -0.12 KCAL/MOL
REMARK 927      BINDING AFFINITY PREDICTED BY RF-SCORE:    0.00 PKD
ROOT
HETATM    1  C   UNL     1      -5.547  10.139  66.992  1.00  0.00    -0.045 C  
HETATM    2  C   UNL     1      -6.933  10.650  66.577  1.00  0.00    -0.125 C  
HETATM    3  N   UNL     1      -7.013  10.593  65.111  1.00  0.00    -0.347 NA 
HETATM    4  H2  UNL     1      -6.805   9.666  64.739  1.00  0.00     0.000 HD 
HETATM    5  H1  UNL     1      -7.935  10.932  64.835  1.00  0.00     0.000 HD 
ENDROOT
BRANCH   2   6
HETATM    6  C   UNL     1      -8.132   9.911  67.261  1.00  0.00    -0.113 C  
HETATM    7  C   UNL     1      -8.044   8.377  67.007  1.00  0.00    -0.104 C  
HETATM    8  C   UNL     1      -9.193   7.627  67.705  1.00  0.00    -0.141 C  
HETATM    9  C   UNL     1      -9.120   7.875  69.218  1.00  0.00    -0.148 C  
HETATM   10  C   UNL     1      -9.237   9.379  69.506  1.00  0.00    -0.182 C  
HETATM   11  C   UNL     1     -10.578   9.898  68.965  1.00  0.00    -0.240 C  
HETATM   12  C   UNL     1      -8.087  10.122  68.806  1.00  0.00    -0.111 C  
HETATM   13  C   UNL     1     -10.663   9.655  67.450  1.00  0.00    -0.308 C  
HETATM   14  C   UNL     1      -9.516  10.403  66.749  1.00  0.00    -0.198 C  
HETATM   15  C   UNL     1     -10.534   8.149  67.167  1.00  0.00    -0.396 C  
ENDBRANCH   2   6
TORSDOF 1
ENDMDL
MODEL      146
REMARK 921   NORMALIZED FREE ENERGY PREDICTED BY IDOCK:   -2.31 KCAL/MOL
REMARK 922        TOTAL FREE ENERGY PREDICTED BY IDOCK:   -2.58 KCAL/MOL
REMARK 923 INTER-LIGAND FREE ENERGY PREDICTED BY IDOCK:   -2.46 KCAL/MOL
REMARK 924 INTRA-LIGAND FREE ENERGY PREDICTED BY IDOCK:   -0.12 KCAL/MOL
REMARK 927      BINDING AFFINITY PREDICTED BY RF-SCORE:    0.00 PKD
ROOT
HETATM    1  C   UNL     1      -9.978   6.360  68.725  1.00  0.00    -0.165 C  
HETATM    2  C   UNL     1     -10.639   5.604  67.565  1.00  0.00    -0.221 C  
HETATM    3  N   UNL     1     -11.483   6.556  66.832  1.00  0.00    -0.780 NA 
HETATM    4  H2  UNL     1     -10.973   7.383  66.525  1.00  0.00     0.000 HD 
HETATM    5  H1  UNL     1     -11.922   6.053  66.059  1.00  0.00     0.000 HD 
ENDROOT
BRANCH   2   6
HETATM    6  C   UNL     1      -9.638   4.855  66.621  1.00  0.00    -0.171 C  
HETATM    7  C   UNL     1      -8.970   3.665  67.369  1.00  0.00    -0.162 C  
HETATM    8  C   UNL     1      -8.011   2.891  66.446  1.00  0.00    -0.081 C  
HETATM    9  C   UNL     1      -8.792   2.336  65.247  1.00  0.00    -0.122 C  
HETATM   10  C   UNL     1      -9.438   3.491  64.467  1.00  0.00    -0.154 C  
HETATM   11  C   UNL     1      -8.342   4.445  63.968  1.00  0.00    -0.107 C  
HETATM   12  C   UNL     1     -10.395   4.259  65.395  1.00  0.00    -0.217 C  
HETATM   13  C   UNL     1      -7.552   5.006  65.161  1.00  0.00    -0.081 C  
HETATM   14  C   UNL     1      -8.508   5.779  66.085  1.00  0.00    -0.130 C  
HETATM   15  C   UNL     1      -6.917   3.846  65.944  1.00  0.00    -0.065 C  
ENDBRANCH   2   6
TORSDOF 1
ENDMDL
MODEL      147
REMARK 921   NORMALIZED FREE ENERGY PREDICTED BY IDOCK:   -2.16 KCAL/MOL
REMARK 922        TOTAL FREE ENERGY PREDICTED BY IDOCK:   -2.42 KCAL/MOL
REMARK 923 INTER-LIGAND FREE ENERGY PREDICTED BY IDOCK:   -2.30 KCAL/MOL
REMARK 924 INTRA-LIGAND FREE ENERGY PREDICTED BY IDOCK:   -0.12 KCAL/MOL
REMARK 927      BINDING AFFINITY PREDICTED BY RF-SCORE:    0.00 PKD
ROOT
HETATM    1  C   UNL     1      -9.250   9.890  64.131  1.00  0.00    -0.312 C  
HETATM    2  C   UNL     1      -8.371   9.041  65.060  1.00  0.00    -0.166 C  
HETATM    3  N   UNL     1      -6.974   9.443  64.847  1.00  0.00    -0.094 NA 
HETATM    4  H2  UNL     1      -6.827  10.444  64.969  1.00  0.00     0.000 HD 
HETATM    5  H1  UNL     1      -6.389   8.879  65.464  1.00  0.00     0.000 HD 
ENDROOT
BRANCH   2   6
HETATM    6  C   UNL     1      -8.776   9.097  66.571  1.00  0.00    -0.142 C  
HETATM    7  C   UNL     1      -7.787   8.258  67.432  1.00  0.00    -0.106 C  
HETATM    8  C   UNL     1      -8.145   8.332  68.927  1.00  0.00    -0.115 C  
HETATM    9  C   UNL     1      -8.081   9.791  69.397  1.00  0.00    -0.129 C  
HETATM   10  C   UNL     1      -9.071  10.642  68.588  1.00  0.00    -0.170 C  
HETATM   11  C   UNL     1     -10.494  10.099  68.791  1.00  0.00    -0.223 C  
HETATM   12  C   UNL     1      -8.708  10.565  67.095  1.00  0.00    -0.130 C  
HETATM   13  C   UNL     1     -10.570   8.637  68.325  1.00  0.00    -0.181 C  
HETATM   14  C   UNL     1     -10.212   8.560  66.831  1.00  0.00    -0.375 C  
HETATM   15  C   UNL     1      -9.570   7.792  69.130  1.00  0.00    -0.155 C  
ENDBRANCH   2   6
TORSDOF 1
ENDMDL
MODEL      148
REMARK 921   NORMALIZED FREE ENERGY PREDICTED BY IDOCK:   -2.11 KCAL/MOL
REMARK 922        TOTAL FREE ENERGY PREDICTED BY IDOCK:   -2.36 KCAL/MOL
REMARK 923 INTER-LIGAND FREE ENERGY PREDICTED BY IDOCK:   -2.24 KCAL/MOL
REMARK 924 INTRA-LIGAND FREE ENERGY PREDICTED BY IDOCK:   -0.12 KCAL/MOL
REMARK 927      BINDING AFFINITY PREDICTED BY RF-SCORE:    0.00 PKD
ROOT
HETATM    1  C   UNL     1     -11.211   8.337  72.307  1.00  0.00    -0.443 C  
HETATM    2  C   UNL     1     -10.987   7.052  71.498  1.00  0.00    -0.234 C  
HETATM    3  N   UNL     1     -11.712   7.190  70.228  1.00  0.00    -0.525 NA 
HETATM    4  H2  UNL     1     -11.453   8.031  69.713  1.00  0.00     0.000 HD 
HETATM    5  H1  UNL     1     -11.563   6.336  69.690  1.00  0.00     0.000 HD 
ENDROOT
BRANCH   2   6
HETATM    6  C   UNL     1      -9.484   6.671  71.281  1.00  0.00    -0.166 C  
HETATM    7  C   UNL     1      -8.770   6.466  72.649  1.00  0.00    -0.126 C  
HETATM    8  C   UNL     1      -7.300   6.052  72.458  1.00  0.00    -0.090 C  
HETATM    9  C   UNL     1      -7.239   4.735  71.674  1.00  0.00    -0.065 C  
HETATM   10  C   UNL     1      -7.907   4.912  70.303  1.00  0.00    -0.062 C  
HETATM   11  C   UNL     1      -7.174   6.011  69.518  1.00  0.00    -0.070 C  
HETATM   12  C   UNL     1      -9.375   5.325  70.501  1.00  0.00    -0.205 C  
HETATM   13  C   UNL     1      -7.229   7.336  70.294  1.00  0.00    -0.067 C  
HETATM   14  C   UNL     1      -8.697   7.752  70.487  1.00  0.00    -0.140 C  
HETATM   15  C   UNL     1      -6.569   7.150  71.669  1.00  0.00    -0.048 C  
ENDBRANCH   2   6
TORSDOF 1
ENDMDL
MODEL      149
REMARK 921   NORMALIZED FREE ENERGY PREDICTED BY IDOCK:   -2.07 KCAL/MOL
REMARK 922        TOTAL FREE ENERGY PREDICTED BY IDOCK:   -2.32 KCAL/MOL
REMARK 923 INTER-LIGAND FREE ENERGY PREDICTED BY IDOCK:   -2.18 KCAL/MOL
REMARK 924 INTRA-LIGAND FREE ENERGY PREDICTED BY IDOCK:   -0.14 KCAL/MOL
REMARK 927      BINDING AFFINITY PREDICTED BY RF-SCORE:    0.00 PKD
ROOT
HETATM    1  C   UNL     1     -10.488   9.676  66.621  1.00  0.00    -0.233 C  
HETATM    2  C   UNL     1     -10.533   8.816  67.890  1.00  0.00    -0.216 C  
HETATM    3  N   UNL     1     -11.043   7.490  67.516  1.00  0.00    -0.532 NA 
HETATM    4  H2  UNL     1     -10.507   7.057  66.764  1.00  0.00     0.000 HD 
HETATM    5  H1  UNL     1     -11.072   6.917  68.360  1.00  0.00     0.000 HD 
ENDROOT
BRANCH   2   6
HETATM    6  C   UNL     1      -9.175   8.728  68.666  1.00  0.00    -0.141 C  
HETATM    7  C   UNL     1      -8.613   7.277  68.618  1.00  0.00    -0.128 C  
HETATM    8  C   UNL     1      -7.258   7.178  69.342  1.00  0.00    -0.084 C  
HETATM    9  C   UNL     1      -6.248   8.114  68.666  1.00  0.00    -0.045 C  
HETATM   10  C   UNL     1      -6.758   9.561  68.726  1.00  0.00    -0.052 C  
HETATM   11  C   UNL     1      -6.941   9.977  70.194  1.00  0.00    -0.148 C  
HETATM   12  C   UNL     1      -8.111   9.654  68.000  1.00  0.00    -0.105 C  
HETATM   13  C   UNL     1      -7.951   9.045  70.881  1.00  0.00    -0.194 C  
HETATM   14  C   UNL     1      -9.306   9.142  70.159  1.00  0.00    -0.235 C  
HETATM   15  C   UNL     1      -7.441   7.597  70.809  1.00  0.00    -0.071 C  
ENDBRANCH   2   6
TORSDOF 1
ENDMDL
MODEL      150
REMARK 921   NORMALIZED FREE ENERGY PREDICTED BY IDOCK:   -2.05 KCAL/MOL
REMARK 922        TOTAL FREE ENERGY PREDICTED BY IDOCK:   -2.29 KCAL/MOL
REMARK 923 INTER-LIGAND FREE ENERGY PREDICTED BY IDOCK:   -2.17 KCAL/MOL
REMARK 924 INTRA-LIGAND FREE ENERGY PREDICTED BY IDOCK:   -0.12 KCAL/MOL
REMARK 927      BINDING AFFINITY PREDICTED BY RF-SCORE:    0.00 PKD
ROOT
HETATM    1  C   UNL     1     -10.007   9.341  67.073  1.00  0.00    -0.286 C  
HETATM    2  C   UNL     1     -10.692   8.268  67.930  1.00  0.00    -0.070 C  
HETATM    3  N   UNL     1     -11.377   7.338  67.023  1.00  0.00    -0.373 NA 
HETATM    4  H2  UNL     1     -10.756   6.943  66.317  1.00  0.00     0.000 HD 
HETATM    5  H1  UNL     1     -11.832   6.624  67.593  1.00  0.00     0.000 HD 
ENDROOT
BRANCH   2   6
HETATM    6  C   UNL     1      -9.739   7.525  68.927  1.00  0.00    -0.151 C  
HETATM    7  C   UNL     1     -10.465   6.305  69.567  1.00  0.00    -0.293 C  
HETATM    8  C   UNL     1      -9.533   5.536  70.520  1.00  0.00    -0.209 C  
HETATM    9  C   UNL     1      -8.314   5.025  69.742  1.00  0.00    -0.088 C  
HETATM   10  C   UNL     1      -7.555   6.208  69.124  1.00  0.00    -0.095 C  
HETATM   11  C   UNL     1      -7.090   7.154  70.242  1.00  0.00    -0.066 C  
HETATM   12  C   UNL     1      -8.492   6.971  68.171  1.00  0.00    -0.129 C  
HETATM   13  C   UNL     1      -8.303   7.673  71.029  1.00  0.00    -0.112 C  
HETATM   14  C   UNL     1      -9.237   8.441  70.078  1.00  0.00    -0.158 C  
HETATM   15  C   UNL     1      -9.064   6.484  71.636  1.00  0.00    -0.143 C  
ENDBRANCH   2   6
TORSDOF 1
ENDMDL
MODEL      151
REMARK 921   NORMALIZED FREE ENERGY PREDICTED BY IDOCK:   -2.03 KCAL/MOL
REMARK 922        TOTAL FREE ENERGY PREDICTED BY IDOCK:   -2.27 KCAL/MOL
REMARK 923 INTER-LIGAND FREE ENERGY PREDICTED BY IDOCK:   -2.16 KCAL/MOL
REMARK 924 INTRA-LIGAND FREE ENERGY PREDICTED BY IDOCK:   -0.12 KCAL/MOL
REMARK 927      BINDING AFFINITY PREDICTED BY RF-SCORE:    0.00 PKD
ROOT
HETATM    1  C   UNL     1      -6.829   6.692  70.589  1.00  0.00    -0.062 C  
HETATM    2  C   UNL     1      -8.337   6.792  70.856  1.00  0.00    -0.128 C  
HETATM    3  N   UNL     1      -9.034   6.565  69.583  1.00  0.00    -0.141 NA 
HETATM    4  H2  UNL     1      -8.769   5.687  69.138  1.00  0.00     0.000 HD 
HETATM    5  H1  UNL     1     -10.037   6.631  69.760  1.00  0.00     0.000 HD 
ENDROOT
BRANCH   2   6
HETATM    6  C   UNL     1      -8.861   5.850  71.992  1.00  0.00    -0.137 C  
HETATM    7  C   UNL     1      -8.447   6.399  73.389  1.00  0.00    -0.123 C  
HETATM    8  C   UNL     1      -8.988   5.508  74.522  1.00  0.00    -0.121 C  
HETATM    9  C   UNL     1     -10.520   5.464  74.451  1.00  0.00    -0.255 C  
HETATM   10  C   UNL     1     -10.962   4.896  73.094  1.00  0.00    -0.376 C  
HETATM   11  C   UNL     1     -10.400   3.476  72.929  1.00  0.00    -0.246 C  
HETATM   12  C   UNL     1     -10.420   5.790  71.967  1.00  0.00    -0.267 C  
HETATM   13  C   UNL     1      -8.865   3.508  72.999  1.00  0.00    -0.099 C  
HETATM   14  C   UNL     1      -8.322   4.397  71.868  1.00  0.00    -0.107 C  
HETATM   15  C   UNL     1      -8.428   4.087  74.354  1.00  0.00    -0.092 C  
ENDBRANCH   2   6
TORSDOF 1
ENDMDL
MODEL      152
REMARK 921   NORMALIZED FREE ENERGY PREDICTED BY IDOCK:   -2.01 KCAL/MOL
REMARK 922        TOTAL FREE ENERGY PREDICTED BY IDOCK:   -2.26 KCAL/MOL
REMARK 923 INTER-LIGAND FREE ENERGY PREDICTED BY IDOCK:   -2.13 KCAL/MOL
REMARK 924 INTRA-LIGAND FREE ENERGY PREDICTED BY IDOCK:   -0.12 KCAL/MOL
REMARK 927      BINDING AFFINITY PREDICTED BY RF-SCORE:    0.00 PKD
ROOT
HETATM    1  C   UNL     1      -6.829   6.692  70.589  1.00  0.00    -0.062 C  
HETATM    2  C   UNL     1      -8.337   6.792  70.856  1.00  0.00    -0.128 C  
HETATM    3  N   UNL     1      -9.034   6.565  69.583  1.00  0.00    -0.141 NA 
HETATM    4  H2  UNL     1      -8.769   5.687  69.138  1.00  0.00     0.000 HD 
HETATM    5  H1  UNL     1     -10.037   6.631  69.760  1.00  0.00     0.000 HD 
ENDROOT
BRANCH   2   6
HETATM    6  C   UNL     1      -8.861   5.850  71.992  1.00  0.00    -0.137 C  
HETATM    7  C   UNL     1     -10.413   5.738  71.934  1.00  0.00    -0.272 C  
HETATM    8  C   UNL     1     -10.946   4.785  73.018  1.00  0.00    -0.346 C  
HETATM    9  C   UNL     1     -10.349   3.387  72.809  1.00  0.00    -0.240 C  
HETATM   10  C   UNL     1      -8.817   3.457  72.893  1.00  0.00    -0.094 C  
HETATM   11  C   UNL     1      -8.407   3.989  74.275  1.00  0.00    -0.090 C  
HETATM   12  C   UNL     1      -8.291   4.410  71.807  1.00  0.00    -0.107 C  
HETATM   13  C   UNL     1      -9.000   5.389  74.496  1.00  0.00    -0.117 C  
HETATM   14  C   UNL     1      -8.469   6.344  73.413  1.00  0.00    -0.123 C  
HETATM   15  C   UNL     1     -10.532   5.315  74.400  1.00  0.00    -0.277 C  
ENDBRANCH   2   6
TORSDOF 1
ENDMDL
MODEL      153
REMARK 921   NORMALIZED FREE ENERGY PREDICTED BY IDOCK:   -1.81 KCAL/MOL
REMARK 922        TOTAL FREE ENERGY PREDICTED BY IDOCK:   -2.04 KCAL/MOL
REMARK 923 INTER-LIGAND FREE ENERGY PREDICTED BY IDOCK:   -1.92 KCAL/MOL
REMARK 924 INTRA-LIGAND FREE ENERGY PREDICTED BY IDOCK:   -0.13 KCAL/MOL
REMARK 927      BINDING AFFINITY PREDICTED BY RF-SCORE:    0.00 PKD
ROOT
HETATM    1  C   UNL     1      -6.625   6.136  70.887  1.00  0.00    -0.053 C  
HETATM    2  C   UNL     1      -8.142   6.312  71.025  1.00  0.00    -0.121 C  
HETATM    3  N   UNL     1      -8.732   6.194  69.685  1.00  0.00    -0.133 NA 
HETATM    4  H2  UNL     1      -8.477   5.327  69.215  1.00  0.00     0.000 HD 
HETATM    5  H1  UNL     1      -9.742   6.311  69.777  1.00  0.00     0.000 HD 
ENDROOT
BRANCH   2   6
HETATM    6  C   UNL     1      -8.820   5.345  72.054  1.00  0.00    -0.139 C  
HETATM    7  C   UNL     1      -8.214   3.916  71.940  1.00  0.00    -0.083 C  
HETATM    8  C   UNL     1      -8.838   2.958  72.970  1.00  0.00    -0.086 C  
HETATM    9  C   UNL     1      -8.572   3.488  74.386  1.00  0.00    -0.087 C  
HETATM   10  C   UNL     1      -9.187   4.886  74.543  1.00  0.00    -0.120 C  
HETATM   11  C   UNL     1     -10.702   4.807  74.301  1.00  0.00    -0.268 C  
HETATM   12  C   UNL     1      -8.558   5.837  73.511  1.00  0.00    -0.120 C  
HETATM   13  C   UNL     1     -10.981   4.277  72.886  1.00  0.00    -0.200 C  
HETATM   14  C   UNL     1     -10.357   5.231  71.854  1.00  0.00    -0.275 C  
HETATM   15  C   UNL     1     -10.354   2.882  72.731  1.00  0.00    -0.232 C  
ENDBRANCH   2   6
TORSDOF 1
ENDMDL
MODEL      154
REMARK 921   NORMALIZED FREE ENERGY PREDICTED BY IDOCK:   -1.77 KCAL/MOL
REMARK 922        TOTAL FREE ENERGY PREDICTED BY IDOCK:   -2.00 KCAL/MOL
REMARK 923 INTER-LIGAND FREE ENERGY PREDICTED BY IDOCK:   -1.89 KCAL/MOL
REMARK 924 INTRA-LIGAND FREE ENERGY PREDICTED BY IDOCK:   -0.12 KCAL/MOL
REMARK 927      BINDING AFFINITY PREDICTED BY RF-SCORE:    0.00 PKD
ROOT
HETATM    1  C   UNL     1      -9.759   6.957  74.065  1.00  0.00    -0.326 C  
HETATM    2  C   UNL     1      -9.825   6.350  72.658  1.00  0.00    -0.166 C  
HETATM    3  N   UNL     1     -11.210   6.470  72.182  1.00  0.00    -0.258 NA 
HETATM    4  H2  UNL     1     -11.558   7.427  72.216  1.00  0.00     0.000 HD 
HETATM    5  H1  UNL     1     -11.254   6.067  71.245  1.00  0.00     0.000 HD 
ENDROOT
BRANCH   2   6
HETATM    6  C   UNL     1      -8.798   6.950  71.640  1.00  0.00    -0.128 C  
HETATM    7  C   UNL     1      -7.362   6.431  71.945  1.00  0.00    -0.092 C  
HETATM    8  C   UNL     1      -6.342   6.978  70.930  1.00  0.00    -0.040 C  
HETATM    9  C   UNL     1      -6.733   6.526  69.517  1.00  0.00    -0.053 C  
HETATM   10  C   UNL     1      -8.135   7.049  69.172  1.00  0.00    -0.121 C  
HETATM   11  C   UNL     1      -8.135   8.585  69.237  1.00  0.00    -0.113 C  
HETATM   12  C   UNL     1      -9.149   6.499  70.188  1.00  0.00    -0.155 C  
HETATM   13  C   UNL     1      -7.744   9.050  70.649  1.00  0.00    -0.131 C  
HETATM   14  C   UNL     1      -8.761   8.504  71.664  1.00  0.00    -0.262 C  
HETATM   15  C   UNL     1      -6.345   8.514  70.993  1.00  0.00    -0.043 C  
ENDBRANCH   2   6
TORSDOF 1
ENDMDL
MODEL      155
REMARK 921   NORMALIZED FREE ENERGY PREDICTED BY IDOCK:   -1.76 KCAL/MOL
REMARK 922        TOTAL FREE ENERGY PREDICTED BY IDOCK:   -1.99 KCAL/MOL
REMARK 923 INTER-LIGAND FREE ENERGY PREDICTED BY IDOCK:   -1.87 KCAL/MOL
REMARK 924 INTRA-LIGAND FREE ENERGY PREDICTED BY IDOCK:   -0.12 KCAL/MOL
REMARK 927      BINDING AFFINITY PREDICTED BY RF-SCORE:    0.00 PKD
ROOT
HETATM    1  C   UNL     1      -7.302   5.390  74.106  1.00  0.00    -0.090 C  
HETATM    2  C   UNL     1      -7.965   6.699  73.657  1.00  0.00    -0.099 C  
HETATM    3  N   UNL     1      -7.033   7.797  73.947  1.00  0.00    -0.095 NA 
HETATM    4  H2  UNL     1      -6.114   7.657  73.530  1.00  0.00     0.000 HD 
HETATM    5  H1  UNL     1      -7.474   8.667  73.648  1.00  0.00     0.000 HD 
ENDROOT
BRANCH   2   6
HETATM    6  C   UNL     1      -8.443   6.709  72.165  1.00  0.00    -0.112 C  
HETATM    7  C   UNL     1      -7.220   6.697  71.202  1.00  0.00    -0.078 C  
HETATM    8  C   UNL     1      -7.669   6.667  69.729  1.00  0.00    -0.113 C  
HETATM    9  C   UNL     1      -8.502   5.404  69.475  1.00  0.00    -0.100 C  
HETATM   10  C   UNL     1      -9.736   5.401  70.389  1.00  0.00    -0.254 C  
HETATM   11  C   UNL     1     -10.588   6.646  70.098  1.00  0.00    -0.264 C  
HETATM   12  C   UNL     1      -9.281   5.431  71.858  1.00  0.00    -0.155 C  
HETATM   13  C   UNL     1      -9.763   7.918  70.349  1.00  0.00    -0.179 C  
HETATM   14  C   UNL     1      -9.313   7.950  71.820  1.00  0.00    -0.196 C  
HETATM   15  C   UNL     1      -8.524   7.910  69.440  1.00  0.00    -0.133 C  
ENDBRANCH   2   6
TORSDOF 1
ENDMDL
MODEL      156
REMARK 921   NORMALIZED FREE ENERGY PREDICTED BY IDOCK:   -1.74 KCAL/MOL
REMARK 922        TOTAL FREE ENERGY PREDICTED BY IDOCK:   -1.97 KCAL/MOL
REMARK 923 INTER-LIGAND FREE ENERGY PREDICTED BY IDOCK:   -1.84 KCAL/MOL
REMARK 924 INTRA-LIGAND FREE ENERGY PREDICTED BY IDOCK:   -0.13 KCAL/MOL
REMARK 927      BINDING AFFINITY PREDICTED BY RF-SCORE:    0.00 PKD
ROOT
HETATM    1  C   UNL     1      -9.183   9.938  64.235  1.00  0.00    -0.317 C  
HETATM    2  C   UNL     1      -8.221   9.337  65.269  1.00  0.00    -0.134 C  
HETATM    3  N   UNL     1      -6.864   9.792  64.938  1.00  0.00    -0.110 NA 
HETATM    4  H2  UNL     1      -6.792  10.807  64.874  1.00  0.00     0.000 HD 
HETATM    5  H1  UNL     1      -6.225   9.393  65.626  1.00  0.00     0.000 HD 
ENDROOT
BRANCH   2   6
HETATM    6  C   UNL     1      -8.597   9.636  66.759  1.00  0.00    -0.140 C  
HETATM    7  C   UNL     1      -9.591  10.831  66.842  1.00  0.00    -0.198 C  
HETATM    8  C   UNL     1     -10.004  11.116  68.297  1.00  0.00    -0.196 C  
HETATM    9  C   UNL     1     -10.685   9.874  68.887  1.00  0.00    -0.244 C  
HETATM   10  C   UNL     1      -9.717   8.682  68.851  1.00  0.00    -0.171 C  
HETATM   11  C   UNL     1      -8.463   9.020  69.672  1.00  0.00    -0.128 C  
HETATM   12  C   UNL     1      -9.309   8.403  67.395  1.00  0.00    -0.178 C  
HETATM   13  C   UNL     1      -7.773  10.263  69.090  1.00  0.00    -0.119 C  
HETATM   14  C   UNL     1      -7.360   9.981  67.635  1.00  0.00    -0.089 C  
HETATM   15  C   UNL     1      -8.750  11.449  69.119  1.00  0.00     0.186 C  
ENDBRANCH   2   6
TORSDOF 1
ENDMDL
MODEL      157
REMARK 921   NORMALIZED FREE ENERGY PREDICTED BY IDOCK:   -0.81 KCAL/MOL
REMARK 922        TOTAL FREE ENERGY PREDICTED BY IDOCK:   -0.98 KCAL/MOL
REMARK 923 INTER-LIGAND FREE ENERGY PREDICTED BY IDOCK:   -0.85 KCAL/MOL
REMARK 924 INTRA-LIGAND FREE ENERGY PREDICTED BY IDOCK:   -0.13 KCAL/MOL
REMARK 927      BINDING AFFINITY PREDICTED BY RF-SCORE:    0.00 PKD
ROOT
HETATM    1  C   UNL     1      -8.020   6.245  74.172  1.00  0.00    -0.104 C  
HETATM    2  C   UNL     1      -7.258   5.002  73.694  1.00  0.00    -0.082 C  
HETATM    3  N   UNL     1      -7.828   3.835  74.380  1.00  0.00    -0.073 NA 
HETATM    4  H2  UNL     1      -8.836   3.754  74.253  1.00  0.00     0.000 HD 
HETATM    5  H1  UNL     1      -7.322   3.008  74.062  1.00  0.00     0.000 HD 
ENDROOT
BRANCH   2   6
HETATM    6  C   UNL     1      -7.227   4.815  72.139  1.00  0.00    -0.079 C  
HETATM    7  C   UNL     1      -5.761   4.672  71.636  1.00  0.00    -0.012 C  
HETATM    8  C   UNL     1      -5.711   4.447  70.114  1.00  0.00    -0.013 C  
HETATM    9  C   UNL     1      -6.473   3.163  69.762  1.00  0.00    -0.033 C  
HETATM   10  C   UNL     1      -7.935   3.284  70.217  1.00  0.00    -0.053 C  
HETATM   11  C   UNL     1      -8.591   4.481  69.510  1.00  0.00    -0.105 C  
HETATM   12  C   UNL     1      -7.978   3.508  71.738  1.00  0.00    -0.062 C  
HETATM   13  C   UNL     1      -7.834   5.773  69.855  1.00  0.00    -0.088 C  
HETATM   14  C   UNL     1      -7.883   6.000  71.376  1.00  0.00    -0.112 C  
HETATM   15  C   UNL     1      -6.370   5.642  69.408  1.00  0.00    -0.037 C  
ENDBRANCH   2   6
TORSDOF 1
ENDMDL
MODEL      158
REMARK 921   NORMALIZED FREE ENERGY PREDICTED BY IDOCK:   10.73 KCAL/MOL
REMARK 922        TOTAL FREE ENERGY PREDICTED BY IDOCK:   11.24 KCAL/MOL
REMARK 923 INTER-LIGAND FREE ENERGY PREDICTED BY IDOCK:   11.35 KCAL/MOL
REMARK 924 INTRA-LIGAND FREE ENERGY PREDICTED BY IDOCK:   -0.12 KCAL/MOL
REMARK 927      BINDING AFFINITY PREDICTED BY RF-SCORE:    0.00 PKD
ROOT
HETATM    1  C   UNL     1     -10.243  19.086  66.002  1.00  0.00    -0.462 C  
HETATM    2  C   UNL     1     -10.388  20.081  67.160  1.00  0.00    -0.416 C  
HETATM    3  N   UNL     1     -11.783  20.038  67.618  1.00  0.00     1.027 NA 
HETATM    4  H2  UNL     1     -12.090  19.098  67.864  1.00  0.00     0.000 HD 
HETATM    5  H1  UNL     1     -11.880  20.700  68.389  1.00  0.00     0.000 HD 
ENDROOT
BRANCH   2   6
HETATM    6  C   UNL     1      -9.375  19.865  68.336  1.00  0.00    -0.338 C  
HETATM    7  C   UNL     1      -9.630  20.899  69.471  1.00  0.00     1.528 C  
HETATM    8  C   UNL     1      -8.670  20.678  70.654  1.00  0.00     2.325 C  
HETATM    9  C   UNL     1      -8.877  19.268  71.224  1.00  0.00     4.278 C  
HETATM   10  C   UNL     1      -8.601  18.221  70.135  1.00  0.00     2.401 C  
HETATM   11  C   UNL     1      -7.153  18.369  69.642  1.00  0.00     0.163 C  
HETATM   12  C   UNL     1      -9.563  18.447  68.957  1.00  0.00    -0.206 C  
HETATM   13  C   UNL     1      -6.935  19.778  69.070  1.00  0.00    -0.372 C  
HETATM   14  C   UNL     1      -7.893  20.001  67.887  1.00  0.00    -0.307 C  
HETATM   15  C   UNL     1      -7.223  20.822  70.160  1.00  0.00     1.734 C  
ENDBRANCH   2   6
TORSDOF 1
ENDMDL
