MODEL        1
REMARK 921   NORMALIZED FREE ENERGY PREDICTED BY IDOCK:   -6.82 KCAL/MOL
REMARK 922        TOTAL FREE ENERGY PREDICTED BY IDOCK:   -6.56 KCAL/MOL
REMARK 923 INTER-LIGAND FREE ENERGY PREDICTED BY IDOCK:   -7.61 KCAL/MOL
REMARK 924 INTRA-LIGAND FREE ENERGY PREDICTED BY IDOCK:    1.05 KCAL/MOL
REMARK 927      BINDING AFFINITY PREDICTED BY RF-SCORE:    0.00 PKD
ROOT
HETATM    1  C   UNL     1      -9.664  13.867  68.563  1.00  0.00    -0.202 C  
HETATM    2  C   UNL     1     -10.435  14.138  69.699  1.00  0.00     0.182 C  
HETATM    3  C   UNL     1     -10.940  14.657  68.407  1.00  0.00    -0.260 C  
HETATM    4  C   UNL     1     -10.041  13.768  66.736  1.00  0.00    -0.265 C  
HETATM    5  C   UNL     1     -12.089  15.548  69.340  1.00  0.00    -0.302 C  
HETATM    6  C   UNL     1      -7.768  17.622  65.999  1.00  0.00    -0.228 C  
HETATM    7  C   UNL     1      -8.880  12.533  66.820  1.00  0.00    -0.177 C  
HETATM    8  C   UNL     1     -11.193  13.519  67.430  1.00  0.00    -0.317 C  
HETATM    9  C   UNL     1     -11.879  12.208  67.711  1.00  0.00    -0.327 C  
HETATM   10  C   UNL     1     -11.823  14.913  66.352  1.00  0.00    -0.137 C  
HETATM   11  C   UNL     1      -8.729  17.888  67.167  1.00  0.00    -0.248 C  
HETATM   12  C   UNL     1      -9.770  19.125  67.033  1.00  0.00    -0.389 C  
HETATM   13  C   UNL     1      -9.808  20.252  67.757  1.00  0.00    -0.534 C  
HETATM   14  C   UNL     1     -10.590  16.151  66.132  1.00  0.00    -0.283 C  
HETATM   15  C   UNL     1      -9.578  16.604  67.411  1.00  0.00    -0.242 C  
HETATM   16  O   UNL     1      -9.790  15.740  65.016  1.00  0.00    -0.336 OA 
HETATM   17  C   UNL     1      -8.718  15.348  68.093  1.00  0.00    -0.161 C  
HETATM   18  H   UNL     1      -9.125  16.407  64.898  1.00  0.00     0.000 HD 
HETATM   19  C   UNL     1      -7.930  15.844  69.317  1.00  0.00    -0.229 C  
HETATM   20  C   UNL     1      -7.073  17.064  69.031  1.00  0.00    -0.233 C  
HETATM   21  C   UNL     1      -7.830  18.187  68.390  1.00  0.00    -0.306 C  
HETATM   22  C   UNL     1      -7.653  19.464  68.772  1.00  0.00    -0.398 C  
HETATM   23  C   UNL     1      -8.277  20.397  67.825  1.00  0.00    -0.175 C  
HETATM   24  O   UNL     1      -7.639  21.161  67.112  1.00  0.00    -0.347 OA 
ENDROOT
BRANCH   4  25
HETATM   25  C   UNL     1     -10.597  13.026  65.176  1.00  0.00    -0.312 C  
HETATM   26  O   UNL     1     -10.055  13.295  64.091  1.00  0.00    -0.347 OA 
BRANCH  25  27
HETATM   27  C   UNL     1     -11.894  12.145  64.989  1.00  0.00    -0.357 C  
HETATM   28  C   UNL     1     -12.375  12.148  63.501  1.00  0.00    -0.682 C  
ENDBRANCH  25  27
ENDBRANCH   4  25
TORSDOF 2
ENDMDL
MODEL        2
REMARK 921   NORMALIZED FREE ENERGY PREDICTED BY IDOCK:   -6.48 KCAL/MOL
REMARK 922        TOTAL FREE ENERGY PREDICTED BY IDOCK:   -6.18 KCAL/MOL
REMARK 923 INTER-LIGAND FREE ENERGY PREDICTED BY IDOCK:   -7.30 KCAL/MOL
REMARK 924 INTRA-LIGAND FREE ENERGY PREDICTED BY IDOCK:    1.13 KCAL/MOL
REMARK 927      BINDING AFFINITY PREDICTED BY RF-SCORE:    0.00 PKD
ROOT
HETATM    1  C   UNL     1      -9.065  16.223  69.177  1.00  0.00    -0.230 C  
HETATM    2  C   UNL     1      -8.135  15.235  69.517  1.00  0.00    -0.196 C  
HETATM    3  C   UNL     1      -8.026  15.820  68.161  1.00  0.00    -0.136 C  
HETATM    4  C   UNL     1      -9.075  17.620  67.936  1.00  0.00    -0.260 C  
HETATM    5  C   UNL     1      -6.895  14.558  67.826  1.00  0.00    -0.193 C  
HETATM    6  C   UNL     1     -12.143  15.434  65.413  1.00  0.00     0.398 C  
HETATM    7  C   UNL     1      -9.935  18.386  69.183  1.00  0.00    -0.206 C  
HETATM    8  C   UNL     1      -7.776  17.319  68.238  1.00  0.00    -0.234 C  
HETATM    9  C   UNL     1      -6.809  18.039  69.142  1.00  0.00    -0.226 C  
HETATM   10  C   UNL     1      -7.667  17.149  66.378  1.00  0.00    -0.345 C  
HETATM   11  C   UNL     1     -11.023  14.430  65.722  1.00  0.00    -0.314 C  
HETATM   12  C   UNL     1     -10.289  13.695  64.476  1.00  0.00    -0.355 C  
HETATM   13  C   UNL     1     -10.313  12.394  64.155  1.00  0.00    -0.409 C  
HETATM   14  C   UNL     1      -9.131  16.422  65.722  1.00  0.00    -0.043 C  
HETATM   15  C   UNL     1      -9.914  15.161  66.536  1.00  0.00    -0.279 C  
HETATM   16  O   UNL     1     -10.058  17.493  65.502  1.00  0.00    -0.576 OA 
HETATM   17  C   UNL     1     -10.353  15.517  68.105  1.00  0.00    -0.237 C  
HETATM   18  H   UNL     1     -10.847  17.101  65.149  1.00  0.00     0.000 HD 
HETATM   19  C   UNL     1     -10.941  14.271  68.789  1.00  0.00    -0.271 C  
HETATM   20  C   UNL     1     -12.056  13.614  67.995  1.00  0.00    -0.309 C  
HETATM   21  C   UNL     1     -11.681  13.318  66.574  1.00  0.00    -0.423 C  
HETATM   22  C   UNL     1     -12.011  12.155  65.987  1.00  0.00    -0.236 C  
HETATM   23  C   UNL     1     -11.793  12.209  64.536  1.00  0.00    -0.343 C  
HETATM   24  O   UNL     1     -12.702  12.180  63.716  1.00  0.00    -0.661 OA 
ENDROOT
BRANCH   4  25
HETATM   25  C   UNL     1      -8.735  19.273  67.269  1.00  0.00    -0.292 C  
HETATM   26  O   UNL     1      -9.476  19.807  66.428  1.00  0.00    -0.360 OA 
BRANCH  25  27
HETATM   27  C   UNL     1      -7.417  20.110  67.515  1.00  0.00    -0.332 C  
HETATM   28  C   UNL     1      -6.814  20.630  66.170  1.00  0.00    -0.236 C  
ENDBRANCH  25  27
ENDBRANCH   4  25
TORSDOF 2
ENDMDL
MODEL        3
REMARK 921   NORMALIZED FREE ENERGY PREDICTED BY IDOCK:   -6.15 KCAL/MOL
REMARK 922        TOTAL FREE ENERGY PREDICTED BY IDOCK:   -5.82 KCAL/MOL
REMARK 923 INTER-LIGAND FREE ENERGY PREDICTED BY IDOCK:   -6.81 KCAL/MOL
REMARK 924 INTRA-LIGAND FREE ENERGY PREDICTED BY IDOCK:    0.99 KCAL/MOL
REMARK 927      BINDING AFFINITY PREDICTED BY RF-SCORE:    0.00 PKD
ROOT
HETATM    1  C   UNL     1     -11.416  12.031  67.480  1.00  0.00    -0.403 C  
HETATM    2  C   UNL     1     -11.873  12.229  66.172  1.00  0.00    -0.398 C  
HETATM    3  C   UNL     1     -10.406  12.152  66.365  1.00  0.00    -0.246 C  
HETATM    4  C   UNL     1      -9.845  11.334  68.211  1.00  0.00    -0.201 C  
HETATM    5  C   UNL     1     -10.273  12.685  64.727  1.00  0.00    -0.307 C  
HETATM    6  C   UNL     1      -8.577  15.469  69.576  1.00  0.00    -0.218 C  
HETATM    7  C   UNL     1     -10.939  10.758  69.373  1.00  0.00    -0.305 C  
HETATM    8  C   UNL     1     -10.009  10.809  66.959  1.00  0.00    -0.236 C  
HETATM    9  C   UNL     1     -10.502   9.446  66.548  1.00  0.00    -0.199 C  
HETATM   10  C   UNL     1      -8.284  11.498  66.738  1.00  0.00    -0.164 C  
HETATM   11  C   UNL     1      -8.980  15.591  68.100  1.00  0.00    -0.179 C  
HETATM   12  C   UNL     1      -7.897  16.206  67.061  1.00  0.00    -0.258 C  
HETATM   13  C   UNL     1      -7.972  17.356  66.377  1.00  0.00    -0.325 C  
HETATM   14  C   UNL     1      -8.106  13.040  67.570  1.00  0.00    -0.179 C  
HETATM   15  C   UNL     1      -9.362  14.175  67.572  1.00  0.00    -0.204 C  
HETATM   16  O   UNL     1      -7.738  12.737  68.922  1.00  0.00    -0.297 OA 
HETATM   17  C   UNL     1     -10.811  13.603  68.166  1.00  0.00    -0.262 C  
HETATM   18  H   UNL     1      -7.643  13.568  69.370  1.00  0.00     0.000 HD 
HETATM   19  C   UNL     1     -11.909  14.669  68.009  1.00  0.00    -0.343 C  
HETATM   20  C   UNL     1     -11.525  16.022  68.581  1.00  0.00    -0.377 C  
HETATM   21  C   UNL     1     -10.209  16.530  68.077  1.00  0.00    -0.271 C  
HETATM   22  C   UNL     1     -10.041  17.816  67.720  1.00  0.00    -0.345 C  
HETATM   23  C   UNL     1      -8.620  18.137  67.535  1.00  0.00    -0.249 C  
HETATM   24  O   UNL     1      -7.998  18.894  68.269  1.00  0.00    -0.287 OA 
ENDROOT
BRANCH   4  25
HETATM   25  C   UNL     1      -8.685  10.067  68.795  1.00  0.00    -0.136 C  
HETATM   26  O   UNL     1      -8.037  10.204  69.846  1.00  0.00    -0.174 OA 
BRANCH  25  27
HETATM   27  C   UNL     1      -8.234   8.789  67.983  1.00  0.00    -0.118 C  
HETATM   28  C   UNL     1      -8.333   7.496  68.855  1.00  0.00    -0.129 C  
ENDBRANCH  25  27
ENDBRANCH   4  25
TORSDOF 2
ENDMDL
MODEL        4
REMARK 921   NORMALIZED FREE ENERGY PREDICTED BY IDOCK:   -5.97 KCAL/MOL
REMARK 922        TOTAL FREE ENERGY PREDICTED BY IDOCK:   -5.61 KCAL/MOL
REMARK 923 INTER-LIGAND FREE ENERGY PREDICTED BY IDOCK:   -7.34 KCAL/MOL
REMARK 924 INTRA-LIGAND FREE ENERGY PREDICTED BY IDOCK:    1.73 KCAL/MOL
REMARK 927      BINDING AFFINITY PREDICTED BY RF-SCORE:    0.00 PKD
ROOT
HETATM    1  C   UNL     1     -11.669  14.125  68.361  1.00  0.00    -0.380 C  
HETATM    2  C   UNL     1     -11.116  14.884  69.398  1.00  0.00    -0.296 C  
HETATM    3  C   UNL     1     -10.168  14.257  68.448  1.00  0.00    -0.245 C  
HETATM    4  C   UNL     1     -11.068  13.614  66.667  1.00  0.00    -0.312 C  
HETATM    5  C   UNL     1      -8.923  14.721  69.552  1.00  0.00     0.115 C  
HETATM    6  C   UNL     1     -10.599   9.325  68.064  1.00  0.00    -0.262 C  
HETATM    7  C   UNL     1     -12.711  13.823  66.298  1.00  0.00    -0.258 C  
HETATM    8  C   UNL     1     -10.413  14.758  67.032  1.00  0.00    -0.270 C  
HETATM    9  C   UNL     1     -10.649  16.180  66.593  1.00  0.00    -0.274 C  
HETATM   10  C   UNL     1      -8.917  13.696  66.661  1.00  0.00    -0.138 C  
HETATM   11  C   UNL     1      -9.902  10.212  69.105  1.00  0.00    -0.225 C  
HETATM   12  C   UNL     1      -8.345   9.910  69.446  1.00  0.00    -0.158 C  
HETATM   13  C   UNL     1      -7.822   9.474  70.601  1.00  0.00    -0.149 C  
HETATM   14  C   UNL     1      -9.175  12.034  67.181  1.00  0.00    -0.190 C  
HETATM   15  C   UNL     1      -9.984  11.693  68.629  1.00  0.00    -0.192 C  
HETATM   16  O   UNL     1      -9.835  11.363  66.100  1.00  0.00    -0.208 OA 
HETATM   17  C   UNL     1     -11.511  12.353  68.741  1.00  0.00    -0.350 C  
HETATM   18  H   UNL     1      -9.974  10.467  66.380  1.00  0.00     0.000 HD 
HETATM   19  C   UNL     1     -12.105  12.089  70.135  1.00  0.00    -0.377 C  
HETATM   20  C   UNL     1     -12.058  10.628  70.547  1.00  0.00    -0.448 C  
HETATM   21  C   UNL     1     -10.695  10.018  70.420  1.00  0.00    -0.369 C  
HETATM   22  C   UNL     1     -10.197   9.206  71.368  1.00  0.00    -0.402 C  
HETATM   23  C   UNL     1      -8.989   8.514  70.900  1.00  0.00    -0.172 C  
HETATM   24  O   UNL     1      -8.938   7.308  70.699  1.00  0.00    -0.154 OA 
ENDROOT
BRANCH   4  25
HETATM   25  C   UNL     1     -10.734  13.764  64.890  1.00  0.00    -0.399 C  
HETATM   26  O   UNL     1     -10.571  14.868  64.344  1.00  0.00    -0.133 OA 
BRANCH  25  27
HETATM   27  C   UNL     1     -10.802  12.586  63.839  1.00  0.00    -0.472 C  
HETATM   28  C   UNL     1     -12.263  12.360  63.332  1.00  0.00    -0.623 C  
ENDBRANCH  25  27
ENDBRANCH   4  25
TORSDOF 2
ENDMDL
MODEL        5
REMARK 921   NORMALIZED FREE ENERGY PREDICTED BY IDOCK:   -5.92 KCAL/MOL
REMARK 922        TOTAL FREE ENERGY PREDICTED BY IDOCK:   -5.55 KCAL/MOL
REMARK 923 INTER-LIGAND FREE ENERGY PREDICTED BY IDOCK:   -6.56 KCAL/MOL
REMARK 924 INTRA-LIGAND FREE ENERGY PREDICTED BY IDOCK:    1.01 KCAL/MOL
REMARK 927      BINDING AFFINITY PREDICTED BY RF-SCORE:    0.00 PKD
ROOT
HETATM    1  C   UNL     1      -9.216   8.455  65.998  1.00  0.00    -0.247 C  
HETATM    2  C   UNL     1      -7.965   8.597  65.388  1.00  0.00    -0.111 C  
HETATM    3  C   UNL     1      -8.111   9.151  66.754  1.00  0.00    -0.111 C  
HETATM    4  C   UNL     1      -9.796   8.434  67.774  1.00  0.00    -0.218 C  
HETATM    5  C   UNL     1      -6.572   9.893  66.500  1.00  0.00    -0.072 C  
HETATM    6  C   UNL     1     -11.752  12.491  67.243  1.00  0.00    -0.431 C  
HETATM    7  C   UNL     1     -10.880   7.291  67.142  1.00  0.00    -0.378 C  
HETATM    8  C   UNL     1      -8.482   8.056  67.743  1.00  0.00    -0.128 C  
HETATM    9  C   UNL     1      -7.877   6.681  67.854  1.00  0.00    -0.112 C  
HETATM   10  C   UNL     1      -8.331   9.457  68.974  1.00  0.00    -0.124 C  
HETATM   11  C   UNL     1     -10.321  12.611  66.699  1.00  0.00    -0.249 C  
HETATM   12  C   UNL     1      -9.365  13.769  67.315  1.00  0.00    -0.239 C  
HETATM   13  C   UNL     1      -8.868  14.846  66.690  1.00  0.00    -0.287 C  
HETATM   14  C   UNL     1      -9.386  10.798  68.540  1.00  0.00    -0.174 C  
HETATM   15  C   UNL     1      -9.591  11.253  66.922  1.00  0.00    -0.210 C  
HETATM   16  O   UNL     1     -10.666  10.517  69.120  1.00  0.00    -0.201 OA 
HETATM   17  C   UNL     1     -10.122  10.031  65.921  1.00  0.00    -0.319 C  
HETATM   18  H   UNL     1     -11.235  11.240  68.886  1.00  0.00     0.000 HD 
HETATM   19  C   UNL     1     -10.156  10.514  64.461  1.00  0.00    -0.402 C  
HETATM   20  C   UNL     1     -10.921  11.812  64.271  1.00  0.00    -0.419 C  
HETATM   21  C   UNL     1     -10.471  12.908  65.188  1.00  0.00    -0.326 C  
HETATM   22  C   UNL     1     -10.312  14.170  64.752  1.00  0.00    -0.387 C  
HETATM   23  C   UNL     1     -10.147  15.105  65.872  1.00  0.00    -0.325 C  
HETATM   24  O   UNL     1     -10.975  15.957  66.167  1.00  0.00    -0.254 OA 
ENDROOT
BRANCH   4  25
HETATM   25  C   UNL     1     -10.152   7.744  69.413  1.00  0.00    -0.195 C  
HETATM   26  O   UNL     1     -11.160   8.074  70.060  1.00  0.00    -0.238 OA 
BRANCH  25  27
HETATM   27  C   UNL     1      -9.176   6.835  70.260  1.00  0.00    -0.156 C  
HETATM   28  C   UNL     1      -9.895   5.543  70.765  1.00  0.00    -0.247 C  
ENDBRANCH  25  27
ENDBRANCH   4  25
TORSDOF 2
ENDMDL
MODEL        6
REMARK 921   NORMALIZED FREE ENERGY PREDICTED BY IDOCK:   -5.86 KCAL/MOL
REMARK 922        TOTAL FREE ENERGY PREDICTED BY IDOCK:   -5.49 KCAL/MOL
REMARK 923 INTER-LIGAND FREE ENERGY PREDICTED BY IDOCK:   -6.51 KCAL/MOL
REMARK 924 INTRA-LIGAND FREE ENERGY PREDICTED BY IDOCK:    1.02 KCAL/MOL
REMARK 927      BINDING AFFINITY PREDICTED BY RF-SCORE:    0.00 PKD
ROOT
HETATM    1  C   UNL     1     -11.129  16.026  67.677  1.00  0.00    -0.243 C  
HETATM    2  C   UNL     1     -11.896  15.957  68.846  1.00  0.00    -0.314 C  
HETATM    3  C   UNL     1     -10.436  15.748  68.988  1.00  0.00    -0.225 C  
HETATM    4  C   UNL     1      -9.331  16.391  67.327  1.00  0.00    -0.227 C  
HETATM    5  C   UNL     1     -10.776  15.248  70.606  1.00  0.00    -0.214 C  
HETATM    6  C   UNL     1      -8.606  12.053  66.222  1.00  0.00     0.030 C  
HETATM    7  C   UNL     1     -10.008  17.130  65.958  1.00  0.00    -0.270 C  
HETATM    8  C   UNL     1      -9.667  16.974  68.518  1.00  0.00    -0.282 C  
HETATM    9  C   UNL     1      -9.969  18.417  68.827  1.00  0.00    -0.404 C  
HETATM   10  C   UNL     1      -8.199  15.976  69.111  1.00  0.00    -0.241 C  
HETATM   11  C   UNL     1      -9.344  12.052  67.568  1.00  0.00    -0.179 C  
HETATM   12  C   UNL     1      -8.658  11.273  68.815  1.00  0.00    -0.109 C  
HETATM   13  C   UNL     1      -9.102  10.179  69.449  1.00  0.00    -0.217 C  
HETATM   14  C   UNL     1      -8.139  14.406  68.318  1.00  0.00    -0.139 C  
HETATM   15  C   UNL     1      -9.556  13.530  68.017  1.00  0.00    -0.221 C  
HETATM   16  O   UNL     1      -7.427  14.594  67.087  1.00  0.00    -0.274 OA 
HETATM   17  C   UNL     1     -10.699  14.348  67.121  1.00  0.00    -0.283 C  
HETATM   18  H   UNL     1      -7.395  13.747  66.660  1.00  0.00     0.000 HD 
HETATM   19  C   UNL     1     -11.987  13.515  67.012  1.00  0.00    -0.440 C  
HETATM   20  C   UNL     1     -11.752  12.098  66.521  1.00  0.00    -0.392 C  
HETATM   21  C   UNL     1     -10.703  11.364  67.302  1.00  0.00    -0.283 C  
HETATM   22  C   UNL     1     -10.868  10.081  67.668  1.00  0.00    -0.336 C  
HETATM   23  C   UNL     1      -9.613   9.501  68.163  1.00  0.00    -0.137 C  
HETATM   24  O   UNL     1      -9.000   8.619  67.576  1.00  0.00    -0.133 OA 
ENDROOT
BRANCH   4  25
HETATM   25  C   UNL     1      -7.849  17.397  67.036  1.00  0.00    -0.210 C  
HETATM   26  O   UNL     1      -7.012  17.098  66.170  1.00  0.00    -0.246 OA 
BRANCH  25  27
HETATM   27  C   UNL     1      -7.369  18.605  67.934  1.00  0.00    -0.251 C  
HETATM   28  C   UNL     1      -7.242  19.920  67.098  1.00  0.00    -0.272 C  
ENDBRANCH  25  27
ENDBRANCH   4  25
TORSDOF 2
ENDMDL
MODEL        7
REMARK 921   NORMALIZED FREE ENERGY PREDICTED BY IDOCK:   -5.86 KCAL/MOL
REMARK 922        TOTAL FREE ENERGY PREDICTED BY IDOCK:   -5.49 KCAL/MOL
REMARK 923 INTER-LIGAND FREE ENERGY PREDICTED BY IDOCK:   -6.68 KCAL/MOL
REMARK 924 INTRA-LIGAND FREE ENERGY PREDICTED BY IDOCK:    1.19 KCAL/MOL
REMARK 927      BINDING AFFINITY PREDICTED BY RF-SCORE:    0.00 PKD
ROOT
HETATM    1  C   UNL     1      -9.002  18.401  65.955  1.00  0.00     0.025 C  
HETATM    2  C   UNL     1     -10.184  19.129  66.129  1.00  0.00    -0.535 C  
HETATM    3  C   UNL     1      -9.539  18.598  67.352  1.00  0.00    -0.317 C  
HETATM    4  C   UNL     1      -7.549  18.008  67.062  1.00  0.00    -0.237 C  
HETATM    5  C   UNL     1     -10.982  19.061  68.182  1.00  0.00     0.103 C  
HETATM    6  C   UNL     1      -8.866  13.678  67.352  1.00  0.00    -0.221 C  
HETATM    7  C   UNL     1      -6.713  18.159  65.593  1.00  0.00    -0.265 C  
HETATM    8  C   UNL     1      -8.134  19.161  67.509  1.00  0.00    -0.301 C  
HETATM    9  C   UNL     1      -7.697  20.591  67.329  1.00  0.00    -0.375 C  
HETATM   10  C   UNL     1      -8.190  18.191  69.108  1.00  0.00     0.074 C  
HETATM   11  C   UNL     1     -10.100  14.541  67.653  1.00  0.00    -0.228 C  
HETATM   12  C   UNL     1     -10.880  14.294  69.055  1.00  0.00    -0.274 C  
HETATM   13  C   UNL     1     -12.122  13.824  69.235  1.00  0.00    -0.374 C  
HETATM   14  C   UNL     1      -8.549  16.494  68.808  1.00  0.00    -0.262 C  
HETATM   15  C   UNL     1      -9.675  16.040  67.628  1.00  0.00    -0.224 C  
HETATM   16  O   UNL     1      -7.296  15.850  68.541  1.00  0.00    -0.119 OA 
HETATM   17  C   UNL     1      -9.348  16.621  66.100  1.00  0.00    -0.318 C  
HETATM   18  H   UNL     1      -7.490  14.935  68.379  1.00  0.00     0.000 HD 
HETATM   19  C   UNL     1     -10.490  16.257  65.136  1.00  0.00    -0.254 C  
HETATM   20  C   UNL     1     -10.843  14.780  65.146  1.00  0.00    -0.417 C  
HETATM   21  C   UNL     1     -11.109  14.241  66.519  1.00  0.00    -0.323 C  
HETATM   22  C   UNL     1     -12.133  13.405  66.761  1.00  0.00    -0.419 C  
HETATM   23  C   UNL     1     -12.023  12.796  68.093  1.00  0.00    -0.246 C  
HETATM   24  O   UNL     1     -11.804  11.605  68.274  1.00  0.00    -0.445 OA 
ENDROOT
BRANCH   4  25
HETATM   25  C   UNL     1      -5.960  18.267  67.898  1.00  0.00    -0.167 C  
HETATM   26  O   UNL     1      -5.179  17.330  68.129  1.00  0.00    -0.118 OA 
BRANCH  25  27
HETATM   27  C   UNL     1      -5.487  19.614  68.576  1.00  0.00    -0.222 C  
HETATM   28  C   UNL     1      -5.219  19.419  70.104  1.00  0.00    -0.218 C  
ENDBRANCH  25  27
ENDBRANCH   4  25
TORSDOF 2
ENDMDL
MODEL        8
REMARK 921   NORMALIZED FREE ENERGY PREDICTED BY IDOCK:   -5.85 KCAL/MOL
REMARK 922        TOTAL FREE ENERGY PREDICTED BY IDOCK:   -5.48 KCAL/MOL
REMARK 923 INTER-LIGAND FREE ENERGY PREDICTED BY IDOCK:   -6.49 KCAL/MOL
REMARK 924 INTRA-LIGAND FREE ENERGY PREDICTED BY IDOCK:    1.01 KCAL/MOL
REMARK 927      BINDING AFFINITY PREDICTED BY RF-SCORE:    0.00 PKD
ROOT
HETATM    1  C   UNL     1      -9.164   7.656  66.402  1.00  0.00    -0.223 C  
HETATM    2  C   UNL     1      -7.816   7.845  66.077  1.00  0.00    -0.095 C  
HETATM    3  C   UNL     1      -8.226   8.182  67.460  1.00  0.00    -0.123 C  
HETATM    4  C   UNL     1     -10.083   7.378  68.005  1.00  0.00    -0.216 C  
HETATM    5  C   UNL     1      -6.663   8.898  67.633  1.00  0.00    -0.066 C  
HETATM    6  C   UNL     1     -11.874  11.537  67.767  1.00  0.00    -0.228 C  
HETATM    7  C   UNL     1     -11.027   6.389  67.000  1.00  0.00    -0.463 C  
HETATM    8  C   UNL     1      -8.791   6.960  68.169  1.00  0.00    -0.125 C  
HETATM    9  C   UNL     1      -8.227   5.563  68.172  1.00  0.00    -0.096 C  
HETATM   10  C   UNL     1      -8.878   8.144  69.615  1.00  0.00    -0.143 C  
HETATM   11  C   UNL     1     -10.363  11.688  67.538  1.00  0.00    -0.220 C  
HETATM   12  C   UNL     1      -9.541  12.699  68.505  1.00  0.00    -0.112 C  
HETATM   13  C   UNL     1      -8.924  13.841  68.171  1.00  0.00    -0.190 C  
HETATM   14  C   UNL     1      -9.819   9.575  69.208  1.00  0.00    -0.181 C  
HETATM   15  C   UNL     1      -9.699  10.286  67.676  1.00  0.00    -0.189 C  
HETATM   16  O   UNL     1     -11.190   9.254  69.475  1.00  0.00    -0.416 OA 
HETATM   17  C   UNL     1     -10.029   9.256  66.407  1.00  0.00    -0.356 C  
HETATM   18  H   UNL     1     -11.698  10.025  69.255  1.00  0.00     0.000 HD 
HETATM   19  C   UNL     1      -9.771   9.964  65.065  1.00  0.00    -0.359 C  
HETATM   20  C   UNL     1     -10.476  11.303  64.942  1.00  0.00    -0.375 C  
HETATM   21  C   UNL     1     -10.210  12.224  66.094  1.00  0.00    -0.263 C  
HETATM   22  C   UNL     1      -9.962  13.532  65.906  1.00  0.00    -0.295 C  
HETATM   23  C   UNL     1     -10.015  14.273  67.173  1.00  0.00    -0.255 C  
HETATM   24  O   UNL     1     -10.881  15.098  67.436  1.00  0.00    -0.288 OA 
ENDROOT
BRANCH   4  25
HETATM   25  C   UNL     1     -10.759   6.452  69.412  1.00  0.00    -0.289 C  
HETATM   26  O   UNL     1     -11.889   6.689  69.871  1.00  0.00    -0.340 OA 
BRANCH  25  27
HETATM   27  C   UNL     1      -9.961   5.420  70.302  1.00  0.00    -0.298 C  
HETATM   28  C   UNL     1     -10.455   5.446  71.785  1.00  0.00    -0.288 C  
ENDBRANCH  25  27
ENDBRANCH   4  25
TORSDOF 2
ENDMDL
MODEL        9
REMARK 921   NORMALIZED FREE ENERGY PREDICTED BY IDOCK:   -5.83 KCAL/MOL
REMARK 922        TOTAL FREE ENERGY PREDICTED BY IDOCK:   -5.46 KCAL/MOL
REMARK 923 INTER-LIGAND FREE ENERGY PREDICTED BY IDOCK:   -6.47 KCAL/MOL
REMARK 924 INTRA-LIGAND FREE ENERGY PREDICTED BY IDOCK:    1.00 KCAL/MOL
REMARK 927      BINDING AFFINITY PREDICTED BY RF-SCORE:    0.00 PKD
ROOT
HETATM    1  C   UNL     1      -9.347   9.066  65.808  1.00  0.00    -0.302 C  
HETATM    2  C   UNL     1      -8.239   9.188  64.962  1.00  0.00    -0.150 C  
HETATM    3  C   UNL     1      -8.098   9.730  66.333  1.00  0.00    -0.116 C  
HETATM    4  C   UNL     1      -9.562   9.038  67.664  1.00  0.00    -0.183 C  
HETATM    5  C   UNL     1      -6.624  10.442  65.783  1.00  0.00    -0.126 C  
HETATM    6  C   UNL     1     -11.492  13.140  67.559  1.00  0.00    -0.371 C  
HETATM    7  C   UNL     1     -10.776   7.925  67.254  1.00  0.00    -0.299 C  
HETATM    8  C   UNL     1      -8.290   8.632  67.370  1.00  0.00    -0.116 C  
HETATM    9  C   UNL     1      -7.706   7.244  67.349  1.00  0.00    -0.110 C  
HETATM   10  C   UNL     1      -7.865  10.017  68.555  1.00  0.00    -0.093 C  
HETATM   11  C   UNL     1     -10.196  13.236  66.742  1.00  0.00    -0.254 C  
HETATM   12  C   UNL     1      -9.111  14.367  67.162  1.00  0.00    -0.238 C  
HETATM   13  C   UNL     1      -8.723  15.440  66.458  1.00  0.00    -0.335 C  
HETATM   14  C   UNL     1      -8.954  11.384  68.348  1.00  0.00    -0.172 C  
HETATM   15  C   UNL     1      -9.467  11.861  66.807  1.00  0.00    -0.207 C  
HETATM   16  O   UNL     1     -10.100  11.124  69.170  1.00  0.00    -0.332 OA 
HETATM   17  C   UNL     1     -10.214  10.660  65.924  1.00  0.00    -0.314 C  
HETATM   18  H   UNL     1     -10.688  11.861  69.058  1.00  0.00     0.000 HD 
HETATM   19  C   UNL     1     -10.527  11.160  64.503  1.00  0.00    -0.415 C  
HETATM   20  C   UNL     1     -11.285  12.476  64.477  1.00  0.00    -0.370 C  
HETATM   21  C   UNL     1     -10.636  13.552  65.293  1.00  0.00    -0.335 C  
HETATM   22  C   UNL     1     -10.539  14.815  64.842  1.00  0.00    -0.431 C  
HETATM   23  C   UNL     1     -10.133  15.735  65.913  1.00  0.00    -0.356 C  
HETATM   24  O   UNL     1     -10.866  16.601  66.372  1.00  0.00    -0.174 OA 
ENDROOT
BRANCH   4  25
HETATM   25  C   UNL     1      -9.601   8.338  69.337  1.00  0.00    -0.171 C  
HETATM   26  O   UNL     1     -10.485   8.640  70.155  1.00  0.00    -0.206 OA 
BRANCH  25  27
HETATM   27  C   UNL     1      -8.464   7.456  69.991  1.00  0.00    -0.138 C  
HETATM   28  C   UNL     1      -9.052   6.454  71.037  1.00  0.00    -0.154 C  
ENDBRANCH  25  27
ENDBRANCH   4  25
TORSDOF 2
ENDMDL
MODEL       10
REMARK 921   NORMALIZED FREE ENERGY PREDICTED BY IDOCK:   -5.55 KCAL/MOL
REMARK 922        TOTAL FREE ENERGY PREDICTED BY IDOCK:   -5.15 KCAL/MOL
REMARK 923 INTER-LIGAND FREE ENERGY PREDICTED BY IDOCK:   -6.16 KCAL/MOL
REMARK 924 INTRA-LIGAND FREE ENERGY PREDICTED BY IDOCK:    1.01 KCAL/MOL
REMARK 927      BINDING AFFINITY PREDICTED BY RF-SCORE:    0.00 PKD
ROOT
HETATM    1  C   UNL     1      -9.494   9.168  66.024  1.00  0.00    -0.321 C  
HETATM    2  C   UNL     1      -8.483   9.600  65.157  1.00  0.00    -0.159 C  
HETATM    3  C   UNL     1      -8.258   9.808  66.607  1.00  0.00    -0.120 C  
HETATM    4  C   UNL     1      -9.532   8.675  67.825  1.00  0.00    -0.165 C  
HETATM    5  C   UNL     1      -6.903  10.775  66.146  1.00  0.00    -0.126 C  
HETATM    6  C   UNL     1     -11.783  12.468  68.877  1.00  0.00    -0.367 C  
HETATM    7  C   UNL     1     -10.686   7.577  67.240  1.00  0.00    -0.365 C  
HETATM    8  C   UNL     1      -8.264   8.480  67.350  1.00  0.00    -0.109 C  
HETATM    9  C   UNL     1      -7.577   7.203  66.945  1.00  0.00    -0.101 C  
HETATM   10  C   UNL     1      -7.842   9.575  68.807  1.00  0.00    -0.084 C  
HETATM   11  C   UNL     1     -10.580  12.887  68.019  1.00  0.00    -0.238 C  
HETATM   12  C   UNL     1      -9.554  13.986  68.627  1.00  0.00    -0.159 C  
HETATM   13  C   UNL     1      -9.320  15.230  68.185  1.00  0.00    -0.198 C  
HETATM   14  C   UNL     1      -9.051  10.837  69.024  1.00  0.00    -0.143 C  
HETATM   15  C   UNL     1      -9.741  11.616  67.689  1.00  0.00    -0.186 C  
HETATM   16  O   UNL     1     -10.091  10.274  69.835  1.00  0.00    -0.326 OA 
HETATM   17  C   UNL     1     -10.471  10.594  66.592  1.00  0.00    -0.296 C  
HETATM   18  H   UNL     1     -10.743  10.954  69.951  1.00  0.00     0.000 HD 
HETATM   19  C   UNL     1     -10.953  11.386  65.365  1.00  0.00    -0.249 C  
HETATM   20  C   UNL     1     -11.812  12.587  65.719  1.00  0.00    -0.494 C  
HETATM   21  C   UNL     1     -11.177  13.496  66.728  1.00  0.00    -0.327 C  
HETATM   22  C   UNL     1     -11.224  14.833  66.598  1.00  0.00    -0.346 C  
HETATM   23  C   UNL     1     -10.793  15.505  67.831  1.00  0.00    -0.307 C  
HETATM   24  O   UNL     1     -11.547  16.157  68.542  1.00  0.00    -0.377 OA 
ENDROOT
BRANCH   4  25
HETATM   25  C   UNL     1      -9.359   7.593  69.272  1.00  0.00    -0.148 C  
HETATM   26  O   UNL     1     -10.183   7.601  70.200  1.00  0.00    -0.198 OA 
BRANCH  25  27
HETATM   27  C   UNL     1      -8.100   6.697  69.604  1.00  0.00    -0.126 C  
HETATM   28  C   UNL     1      -8.499   5.449  70.455  1.00  0.00    -0.122 C  
ENDBRANCH  25  27
ENDBRANCH   4  25
TORSDOF 2
ENDMDL
MODEL       11
REMARK 921   NORMALIZED FREE ENERGY PREDICTED BY IDOCK:   -5.50 KCAL/MOL
REMARK 922        TOTAL FREE ENERGY PREDICTED BY IDOCK:   -5.09 KCAL/MOL
REMARK 923 INTER-LIGAND FREE ENERGY PREDICTED BY IDOCK:   -6.12 KCAL/MOL
REMARK 924 INTRA-LIGAND FREE ENERGY PREDICTED BY IDOCK:    1.03 KCAL/MOL
REMARK 927      BINDING AFFINITY PREDICTED BY RF-SCORE:    0.00 PKD
ROOT
HETATM    1  C   UNL     1     -11.064  14.305  66.661  1.00  0.00    -0.321 C  
HETATM    2  C   UNL     1     -12.143  13.999  67.498  1.00  0.00    -0.361 C  
HETATM    3  C   UNL     1     -10.798  14.021  68.118  1.00  0.00    -0.260 C  
HETATM    4  C   UNL     1      -9.352  14.994  66.954  1.00  0.00    -0.258 C  
HETATM    5  C   UNL     1     -11.547  13.319  69.508  1.00  0.00    -0.349 C  
HETATM    6  C   UNL     1      -7.507  10.960  66.008  1.00  0.00    -0.086 C  
HETATM    7  C   UNL     1      -9.671  15.738  65.462  1.00  0.00    -0.255 C  
HETATM    8  C   UNL     1     -10.162  15.397  67.980  1.00  0.00    -0.235 C  
HETATM    9  C   UNL     1     -10.813  16.734  68.219  1.00  0.00    -0.366 C  
HETATM   10  C   UNL     1      -8.809  14.603  68.999  1.00  0.00    -0.090 C  
HETATM   11  C   UNL     1      -8.630  10.710  67.025  1.00  0.00    -0.128 C  
HETATM   12  C   UNL     1      -8.255   9.938  68.402  1.00  0.00    -0.106 C  
HETATM   13  C   UNL     1      -8.669   8.730  68.809  1.00  0.00    -0.137 C  
HETATM   14  C   UNL     1      -8.199  13.147  68.219  1.00  0.00    -0.154 C  
HETATM   15  C   UNL     1      -9.250  12.082  67.426  1.00  0.00    -0.180 C  
HETATM   16  O   UNL     1      -7.174  13.566  67.310  1.00  0.00    -0.316 OA 
HETATM   17  C   UNL     1     -10.170  12.783  66.226  1.00  0.00    -0.264 C  
HETATM   18  H   UNL     1      -6.845  12.781  66.889  1.00  0.00     0.000 HD 
HETATM   19  C   UNL     1     -11.172  11.763  65.658  1.00  0.00    -0.324 C  
HETATM   20  C   UNL     1     -10.527  10.457  65.227  1.00  0.00    -0.178 C  
HETATM   21  C   UNL     1      -9.673   9.835  66.290  1.00  0.00    -0.295 C  
HETATM   22  C   UNL     1      -9.705   8.514  66.534  1.00  0.00    -0.330 C  
HETATM   23  C   UNL     1      -8.595   8.104  67.404  1.00  0.00    -0.125 C  
HETATM   24  O   UNL     1      -7.670   7.396  67.029  1.00  0.00    -0.106 OA 
ENDROOT
BRANCH   4  25
HETATM   25  C   UNL     1      -8.074  16.254  67.217  1.00  0.00    -0.176 C  
HETATM   26  O   UNL     1      -6.995  16.233  66.602  1.00  0.00    -0.189 OA 
BRANCH  25  27
HETATM   27  C   UNL     1      -8.094  17.362  68.343  1.00  0.00    -0.264 C  
HETATM   28  C   UNL     1      -7.838  18.784  67.747  1.00  0.00    -0.262 C  
ENDBRANCH  25  27
ENDBRANCH   4  25
TORSDOF 2
ENDMDL
MODEL       12
REMARK 921   NORMALIZED FREE ENERGY PREDICTED BY IDOCK:   -5.45 KCAL/MOL
REMARK 922        TOTAL FREE ENERGY PREDICTED BY IDOCK:   -5.03 KCAL/MOL
REMARK 923 INTER-LIGAND FREE ENERGY PREDICTED BY IDOCK:   -6.05 KCAL/MOL
REMARK 924 INTRA-LIGAND FREE ENERGY PREDICTED BY IDOCK:    1.01 KCAL/MOL
REMARK 927      BINDING AFFINITY PREDICTED BY RF-SCORE:    0.00 PKD
ROOT
HETATM    1  C   UNL     1      -9.444  16.896  66.464  1.00  0.00    -0.296 C  
HETATM    2  C   UNL     1     -10.751  17.224  66.843  1.00  0.00    -0.126 C  
HETATM    3  C   UNL     1      -9.902  16.567  67.863  1.00  0.00    -0.240 C  
HETATM    4  C   UNL     1      -7.857  16.606  67.406  1.00  0.00    -0.188 C  
HETATM    5  C   UNL     1     -11.344  16.405  68.801  1.00  0.00    -0.277 C  
HETATM    6  C   UNL     1      -8.053  12.170  66.483  1.00  0.00     0.102 C  
HETATM    7  C   UNL     1      -7.201  17.355  66.032  1.00  0.00    -0.269 C  
HETATM    8  C   UNL     1      -8.669  17.407  68.162  1.00  0.00    -0.256 C  
HETATM    9  C   UNL     1      -8.609  18.895  68.386  1.00  0.00    -0.381 C  
HETATM   10  C   UNL     1      -8.362  16.062  69.427  1.00  0.00    -0.139 C  
HETATM   11  C   UNL     1      -9.432  12.575  67.023  1.00  0.00    -0.217 C  
HETATM   12  C   UNL     1     -10.016  11.770  68.305  1.00  0.00    -0.200 C  
HETATM   13  C   UNL     1     -11.088  10.967  68.356  1.00  0.00    -0.320 C  
HETATM   14  C   UNL     1      -8.318  14.475  68.666  1.00  0.00    -0.164 C  
HETATM   15  C   UNL     1      -9.388  14.082  67.414  1.00  0.00    -0.220 C  
HETATM   16  O   UNL     1      -6.971  14.269  68.221  1.00  0.00    -0.088 OA 
HETATM   17  C   UNL     1      -9.334  15.116  66.107  1.00  0.00    -0.346 C  
HETATM   18  H   UNL     1      -6.948  13.414  67.811  1.00  0.00     0.000 HD 
HETATM   19  C   UNL     1     -10.424  14.744  65.088  1.00  0.00    -0.443 C  
HETATM   20  C   UNL     1     -10.405  13.280  64.688  1.00  0.00    -0.394 C  
HETATM   21  C   UNL     1     -10.423  12.343  65.858  1.00  0.00    -0.284 C  
HETATM   22  C   UNL     1     -11.191  11.239  65.863  1.00  0.00    -0.096 C  
HETATM   23  C   UNL     1     -10.831  10.344  66.971  1.00  0.00    -0.203 C  
HETATM   24  O   UNL     1     -10.315   9.246  66.810  1.00  0.00    -0.246 OA 
ENDROOT
BRANCH   4  25
HETATM   25  C   UNL     1      -6.319  17.028  68.270  1.00  0.00    -0.143 C  
HETATM   26  O   UNL     1      -5.282  16.360  68.129  1.00  0.00    -0.101 OA 
BRANCH  25  27
HETATM   27  C   UNL     1      -6.170  18.124  69.399  1.00  0.00    -0.251 C  
HETATM   28  C   UNL     1      -5.244  17.626  70.556  1.00  0.00    -0.264 C  
ENDBRANCH  25  27
ENDBRANCH   4  25
TORSDOF 2
ENDMDL
MODEL       13
REMARK 921   NORMALIZED FREE ENERGY PREDICTED BY IDOCK:   -5.41 KCAL/MOL
REMARK 922        TOTAL FREE ENERGY PREDICTED BY IDOCK:   -4.99 KCAL/MOL
REMARK 923 INTER-LIGAND FREE ENERGY PREDICTED BY IDOCK:   -6.06 KCAL/MOL
REMARK 924 INTRA-LIGAND FREE ENERGY PREDICTED BY IDOCK:    1.06 KCAL/MOL
REMARK 927      BINDING AFFINITY PREDICTED BY RF-SCORE:    0.00 PKD
ROOT
HETATM    1  C   UNL     1      -8.078   8.880  69.411  1.00  0.00    -0.105 C  
HETATM    2  C   UNL     1      -8.662   9.390  70.576  1.00  0.00    -0.276 C  
HETATM    3  C   UNL     1      -9.581   8.859  69.542  1.00  0.00    -0.171 C  
HETATM    4  C   UNL     1      -8.631   7.654  68.114  1.00  0.00    -0.123 C  
HETATM    5  C   UNL     1     -10.857   9.560  70.472  1.00  0.00    -0.352 C  
HETATM    6  C   UNL     1      -9.112  10.992  65.083  1.00  0.00    -0.199 C  
HETATM    7  C   UNL     1      -6.979   7.263  68.141  1.00  0.00    -0.076 C  
HETATM    8  C   UNL     1      -9.301   7.387  69.276  1.00  0.00    -0.154 C  
HETATM    9  C   UNL     1      -9.062   6.303  70.294  1.00  0.00    -0.156 C  
HETATM   10  C   UNL     1     -10.781   7.564  68.144  1.00  0.00    -0.145 C  
HETATM   11  C   UNL     1      -9.842  11.439  66.357  1.00  0.00    -0.242 C  
HETATM   12  C   UNL     1     -11.406  11.853  66.237  1.00  0.00    -0.394 C  
HETATM   13  C   UNL     1     -11.956  13.060  66.425  1.00  0.00    -0.466 C  
HETATM   14  C   UNL     1     -10.528   8.848  66.966  1.00  0.00    -0.256 C  
HETATM   15  C   UNL     1      -9.755  10.289  67.406  1.00  0.00    -0.189 C  
HETATM   16  O   UNL     1      -9.836   8.259  65.858  1.00  0.00    -0.466 OA 
HETATM   17  C   UNL     1      -8.236  10.089  68.061  1.00  0.00    -0.116 C  
HETATM   18  H   UNL     1      -9.699   8.951  65.223  1.00  0.00     0.000 HD 
HETATM   19  C   UNL     1      -7.678  11.441  68.537  1.00  0.00    -0.133 C  
HETATM   20  C   UNL     1      -7.727  12.524  67.475  1.00  0.00    -0.165 C  
HETATM   21  C   UNL     1      -9.083  12.691  66.858  1.00  0.00    -0.218 C  
HETATM   22  C   UNL     1      -9.602  13.908  66.617  1.00  0.00    -0.297 C  
HETATM   23  C   UNL     1     -10.793  13.821  65.762  1.00  0.00    -0.277 C  
HETATM   24  O   UNL     1     -10.832  14.248  64.615  1.00  0.00    -0.401 OA 
ENDROOT
BRANCH   4  25
HETATM   25  C   UNL     1      -8.918   6.032  67.354  1.00  0.00    -0.108 C  
HETATM   26  O   UNL     1      -8.557   5.777  66.193  1.00  0.00    -0.125 OA 
BRANCH  25  27
HETATM   27  C   UNL     1      -9.791   4.869  67.972  1.00  0.00    -0.197 C  
HETATM   28  C   UNL     1      -9.295   3.467  67.490  1.00  0.00    -0.249 C  
ENDBRANCH  25  27
ENDBRANCH   4  25
TORSDOF 2
ENDMDL
MODEL       14
REMARK 921   NORMALIZED FREE ENERGY PREDICTED BY IDOCK:   -5.40 KCAL/MOL
REMARK 922        TOTAL FREE ENERGY PREDICTED BY IDOCK:   -4.98 KCAL/MOL
REMARK 923 INTER-LIGAND FREE ENERGY PREDICTED BY IDOCK:   -6.04 KCAL/MOL
REMARK 924 INTRA-LIGAND FREE ENERGY PREDICTED BY IDOCK:    1.06 KCAL/MOL
REMARK 927      BINDING AFFINITY PREDICTED BY RF-SCORE:    0.00 PKD
ROOT
HETATM    1  C   UNL     1      -7.689  10.313  68.122  1.00  0.00    -0.092 C  
HETATM    2  C   UNL     1      -6.687   9.403  67.768  1.00  0.00    -0.067 C  
HETATM    3  C   UNL     1      -8.057   9.113  67.284  1.00  0.00    -0.106 C  
HETATM    4  C   UNL     1      -9.350  10.759  67.392  1.00  0.00    -0.163 C  
HETATM    5  C   UNL     1      -7.446   7.568  66.812  1.00  0.00    -0.093 C  
HETATM    6  C   UNL     1     -11.475   8.769  70.868  1.00  0.00    -0.330 C  
HETATM    7  C   UNL     1      -8.889  12.302  67.929  1.00  0.00    -0.178 C  
HETATM    8  C   UNL     1      -8.566  10.241  66.398  1.00  0.00    -0.138 C  
HETATM    9  C   UNL     1      -7.817  10.949  65.299  1.00  0.00     0.129 C  
HETATM   10  C   UNL     1     -10.034   9.097  66.208  1.00  0.00    -0.352 C  
HETATM   11  C   UNL     1     -10.434   7.767  70.350  1.00  0.00    -0.221 C  
HETATM   12  C   UNL     1     -10.947   6.291  69.911  1.00  0.00    -0.435 C  
HETATM   13  C   UNL     1     -10.660   5.114  70.484  1.00  0.00    -0.221 C  
HETATM   14  C   UNL     1     -10.722   8.682  67.774  1.00  0.00    -0.110 C  
HETATM   15  C   UNL     1      -9.723   8.388  69.110  1.00  0.00    -0.171 C  
HETATM   16  O   UNL     1     -11.657   9.718  68.100  1.00  0.00    -0.527 OA 
HETATM   17  C   UNL     1      -8.684   9.636  69.485  1.00  0.00    -0.191 C  
HETATM   18  H   UNL     1     -12.027   9.495  68.945  1.00  0.00     0.000 HD 
HETATM   19  C   UNL     1      -7.743   9.221  70.628  1.00  0.00    -0.170 C  
HETATM   20  C   UNL     1      -8.471   8.669  71.842  1.00  0.00    -0.210 C  
HETATM   21  C   UNL     1      -9.431   7.567  71.510  1.00  0.00    -0.166 C  
HETATM   22  C   UNL     1      -9.524   6.463  72.270  1.00  0.00    -0.149 C  
HETATM   23  C   UNL     1     -10.710   5.671  71.919  1.00  0.00    -0.241 C  
HETATM   24  O   UNL     1     -11.670   5.527  72.665  1.00  0.00    -0.293 OA 
ENDROOT
BRANCH   4  25
HETATM   25  C   UNL     1     -10.529  11.586  66.289  1.00  0.00    -0.251 C  
HETATM   26  O   UNL     1     -11.675  11.890  66.661  1.00  0.00    -0.546 OA 
BRANCH  25  27
HETATM   27  C   UNL     1     -10.324  11.831  64.741  1.00  0.00    -0.333 C  
HETATM   28  C   UNL     1     -10.787  13.265  64.326  1.00  0.00    -0.414 C  
ENDBRANCH  25  27
ENDBRANCH   4  25
TORSDOF 2
ENDMDL
MODEL       15
REMARK 921   NORMALIZED FREE ENERGY PREDICTED BY IDOCK:   -5.39 KCAL/MOL
REMARK 922        TOTAL FREE ENERGY PREDICTED BY IDOCK:   -4.97 KCAL/MOL
REMARK 923 INTER-LIGAND FREE ENERGY PREDICTED BY IDOCK:   -5.98 KCAL/MOL
REMARK 924 INTRA-LIGAND FREE ENERGY PREDICTED BY IDOCK:    1.01 KCAL/MOL
REMARK 927      BINDING AFFINITY PREDICTED BY RF-SCORE:    0.00 PKD
ROOT
HETATM    1  C   UNL     1      -8.301   8.298  67.226  1.00  0.00    -0.124 C  
HETATM    2  C   UNL     1      -8.830   7.186  66.561  1.00  0.00    -0.154 C  
HETATM    3  C   UNL     1      -9.798   8.117  67.186  1.00  0.00    -0.281 C  
HETATM    4  C   UNL     1      -8.976   9.982  67.671  1.00  0.00    -0.135 C  
HETATM    5  C   UNL     1     -10.997   6.916  66.859  1.00  0.00    -0.328 C  
HETATM    6  C   UNL     1      -9.125   8.826  72.054  1.00  0.00    -0.259 C  
HETATM    7  C   UNL     1      -7.372  10.433  67.347  1.00  0.00    -0.093 C  
HETATM    8  C   UNL     1      -9.669   9.511  66.590  1.00  0.00    -0.270 C  
HETATM    9  C   UNL     1      -9.538   9.875  65.134  1.00  0.00    -0.367 C  
HETATM   10  C   UNL     1     -11.125   9.859  67.713  1.00  0.00    -0.196 C  
HETATM   11  C   UNL     1      -9.805   7.694  71.271  1.00  0.00    -0.187 C  
HETATM   12  C   UNL     1     -11.320   7.283  71.681  1.00  0.00    -0.285 C  
HETATM   13  C   UNL     1     -11.746   6.128  72.212  1.00  0.00    -0.352 C  
HETATM   14  C   UNL     1     -10.746   9.457  69.385  1.00  0.00    -0.217 C  
HETATM   15  C   UNL     1      -9.832   8.082  69.762  1.00  0.00    -0.183 C  
HETATM   16  O   UNL     1     -10.118  10.614  69.953  1.00  0.00    -0.435 OA 
HETATM   17  C   UNL     1      -8.339   8.019  69.023  1.00  0.00    -0.129 C  
HETATM   18  H   UNL     1      -9.914  10.397  70.854  1.00  0.00     0.000 HD 
HETATM   19  C   UNL     1      -7.648   6.680  69.332  1.00  0.00    -0.096 C  
HETATM   20  C   UNL     1      -7.590   6.357  70.815  1.00  0.00    -0.096 C  
HETATM   21  C   UNL     1      -8.923   6.442  71.494  1.00  0.00    -0.144 C  
HETATM   22  C   UNL     1      -9.318   5.517  72.387  1.00  0.00    -0.156 C  
HETATM   23  C   UNL     1     -10.513   5.957  73.119  1.00  0.00    -0.228 C  
HETATM   24  O   UNL     1     -10.511   6.227  74.313  1.00  0.00    -0.305 OA 
ENDROOT
BRANCH   4  25
HETATM   25  C   UNL     1      -9.426  11.724  67.438  1.00  0.00    -0.173 C  
HETATM   26  O   UNL     1      -9.263  12.570  68.332  1.00  0.00    -0.196 OA 
BRANCH  25  27
HETATM   27  C   UNL     1     -10.219  12.311  66.203  1.00  0.00    -0.263 C  
HETATM   28  C   UNL     1     -11.257  13.389  66.654  1.00  0.00    -0.330 C  
ENDBRANCH  25  27
ENDBRANCH   4  25
TORSDOF 2
ENDMDL
MODEL       16
REMARK 921   NORMALIZED FREE ENERGY PREDICTED BY IDOCK:   -5.38 KCAL/MOL
REMARK 922        TOTAL FREE ENERGY PREDICTED BY IDOCK:   -4.96 KCAL/MOL
REMARK 923 INTER-LIGAND FREE ENERGY PREDICTED BY IDOCK:   -6.07 KCAL/MOL
REMARK 924 INTRA-LIGAND FREE ENERGY PREDICTED BY IDOCK:    1.11 KCAL/MOL
REMARK 927      BINDING AFFINITY PREDICTED BY RF-SCORE:    0.00 PKD
ROOT
HETATM    1  C   UNL     1      -8.394  11.622  67.417  1.00  0.00    -0.152 C  
HETATM    2  C   UNL     1      -8.295  10.935  66.202  1.00  0.00    -0.168 C  
HETATM    3  C   UNL     1      -9.641  11.022  66.815  1.00  0.00    -0.216 C  
HETATM    4  C   UNL     1      -9.791  12.489  68.305  1.00  0.00    -0.227 C  
HETATM    5  C   UNL     1     -10.137   9.872  65.626  1.00  0.00    -0.307 C  
HETATM    6  C   UNL     1      -9.922   9.201  71.426  1.00  0.00    -0.373 C  
HETATM    7  C   UNL     1      -8.526  13.527  68.753  1.00  0.00     0.079 C  
HETATM    8  C   UNL     1     -10.072  12.473  66.967  1.00  0.00    -0.222 C  
HETATM    9  C   UNL     1      -9.947  13.575  65.947  1.00  0.00    -0.295 C  
HETATM   10  C   UNL     1     -11.652  11.682  67.584  1.00  0.00    -0.349 C  
HETATM   11  C   UNL     1      -9.934   8.514  70.053  1.00  0.00    -0.191 C  
HETATM   12  C   UNL     1     -11.148   7.488  69.724  1.00  0.00    -0.143 C  
HETATM   13  C   UNL     1     -11.078   6.164  69.526  1.00  0.00    -0.490 C  
HETATM   14  C   UNL     1     -11.331  10.598  68.934  1.00  0.00    -0.274 C  
HETATM   15  C   UNL     1      -9.955   9.613  68.949  1.00  0.00    -0.186 C  
HETATM   16  O   UNL     1     -11.351  11.403  70.120  1.00  0.00    -0.463 OA 
HETATM   17  C   UNL     1      -8.513  10.434  68.789  1.00  0.00    -0.132 C  
HETATM   18  H   UNL     1     -11.178  10.819  70.848  1.00  0.00     0.000 HD 
HETATM   19  C   UNL     1      -7.342   9.442  68.690  1.00  0.00    -0.075 C  
HETATM   20  C   UNL     1      -7.321   8.417  69.811  1.00  0.00    -0.060 C  
HETATM   21  C   UNL     1      -8.623   7.695  69.983  1.00  0.00    -0.138 C  
HETATM   22  C   UNL     1      -8.669   6.369  70.199  1.00  0.00    -0.139 C  
HETATM   23  C   UNL     1     -10.011   5.942  70.614  1.00  0.00    -0.189 C  
HETATM   24  O   UNL     1     -10.268   5.519  71.734  1.00  0.00    -0.189 OA 
ENDROOT
BRANCH   4  25
HETATM   25  C   UNL     1     -10.934  13.834  68.722  1.00  0.00    -0.264 C  
HETATM   26  O   UNL     1     -11.426  13.950  69.857  1.00  0.00    -0.248 OA 
BRANCH  25  27
HETATM   27  C   UNL     1     -11.563  14.857  67.695  1.00  0.00    -0.357 C  
HETATM   28  C   UNL     1     -11.102  16.320  67.994  1.00  0.00    -0.299 C  
ENDBRANCH  25  27
ENDBRANCH   4  25
TORSDOF 2
ENDMDL
MODEL       17
REMARK 921   NORMALIZED FREE ENERGY PREDICTED BY IDOCK:   -5.34 KCAL/MOL
REMARK 922        TOTAL FREE ENERGY PREDICTED BY IDOCK:   -4.91 KCAL/MOL
REMARK 923 INTER-LIGAND FREE ENERGY PREDICTED BY IDOCK:   -5.92 KCAL/MOL
REMARK 924 INTRA-LIGAND FREE ENERGY PREDICTED BY IDOCK:    1.01 KCAL/MOL
REMARK 927      BINDING AFFINITY PREDICTED BY RF-SCORE:    0.00 PKD
ROOT
HETATM    1  C   UNL     1     -12.237  13.240  66.663  1.00  0.00    -0.359 C  
HETATM    2  C   UNL     1     -13.160  14.004  65.940  1.00  0.00    -0.010 C  
HETATM    3  C   UNL     1     -11.774  13.956  65.419  1.00  0.00    -0.347 C  
HETATM    4  C   UNL     1     -10.627  12.400  66.227  1.00  0.00    -0.277 C  
HETATM    5  C   UNL     1     -12.253  15.216  64.338  1.00  0.00    -0.289 C  
HETATM    6  C   UNL     1      -8.309  15.459  68.642  1.00  0.00    -0.168 C  
HETATM    7  C   UNL     1     -11.214  11.257  67.336  1.00  0.00    -0.370 C  
HETATM    8  C   UNL     1     -11.372  12.527  65.087  1.00  0.00    -0.352 C  
HETATM    9  C   UNL     1     -12.187  11.494  64.354  1.00  0.00     0.151 C  
HETATM   10  C   UNL     1      -9.811  13.367  64.486  1.00  0.00     0.108 C  
HETATM   11  C   UNL     1      -9.264  16.242  67.729  1.00  0.00    -0.203 C  
HETATM   12  C   UNL     1      -8.630  17.360  66.739  1.00  0.00    -0.284 C  
HETATM   13  C   UNL     1      -8.809  18.688  66.772  1.00  0.00    -0.297 C  
HETATM   14  C   UNL     1      -9.078  14.330  65.764  1.00  0.00     0.427 C  
HETATM   15  C   UNL     1     -10.036  15.227  66.833  1.00  0.00    -0.257 C  
HETATM   16  O   UNL     1      -8.233  13.446  66.511  1.00  0.00    -0.365 OA 
HETATM   17  C   UNL     1     -11.176  14.333  67.658  1.00  0.00    -0.321 C  
HETATM   18  H   UNL     1      -7.838  13.966  67.201  1.00  0.00     0.000 HD 
HETATM   19  C   UNL     1     -12.069  15.257  68.503  1.00  0.00    -0.115 C  
HETATM   20  C   UNL     1     -11.286  16.196  69.404  1.00  0.00    -0.323 C  
HETATM   21  C   UNL     1     -10.237  16.982  68.677  1.00  0.00    -0.321 C  
HETATM   22  C   UNL     1     -10.043  18.290  68.921  1.00  0.00    -0.358 C  
HETATM   23  C   UNL     1      -8.796  18.768  68.310  1.00  0.00    -0.333 C  
HETATM   24  O   UNL     1      -7.821  19.125  68.958  1.00  0.00    -0.331 OA 
ENDROOT
BRANCH   4  25
HETATM   25  C   UNL     1      -9.532  11.099  65.593  1.00  0.00    -0.224 C  
HETATM   26  O   UNL     1      -8.492  10.769  66.186  1.00  0.00    -0.156 OA 
BRANCH  25  27
HETATM   27  C   UNL     1      -9.657  10.400  64.182  1.00  0.00    -0.381 C  
HETATM   28  C   UNL     1      -8.254  10.174  63.532  1.00  0.00    -0.165 C  
ENDBRANCH  25  27
ENDBRANCH   4  25
TORSDOF 2
ENDMDL
MODEL       18
REMARK 921   NORMALIZED FREE ENERGY PREDICTED BY IDOCK:   -5.32 KCAL/MOL
REMARK 922        TOTAL FREE ENERGY PREDICTED BY IDOCK:   -4.89 KCAL/MOL
REMARK 923 INTER-LIGAND FREE ENERGY PREDICTED BY IDOCK:   -6.00 KCAL/MOL
REMARK 924 INTRA-LIGAND FREE ENERGY PREDICTED BY IDOCK:    1.11 KCAL/MOL
REMARK 927      BINDING AFFINITY PREDICTED BY RF-SCORE:    0.00 PKD
ROOT
HETATM    1  C   UNL     1      -9.044   6.999  68.583  1.00  0.00    -0.132 C  
HETATM    2  C   UNL     1      -7.667   7.101  68.358  1.00  0.00    -0.120 C  
HETATM    3  C   UNL     1      -8.232   7.932  69.445  1.00  0.00    -0.130 C  
HETATM    4  C   UNL     1     -10.144   7.329  70.057  1.00  0.00    -0.192 C  
HETATM    5  C   UNL     1      -6.695   8.720  69.493  1.00  0.00    -0.047 C  
HETATM    6  C   UNL     1     -11.871  10.993  68.018  1.00  0.00    -0.152 C  
HETATM    7  C   UNL     1     -10.971   5.991  69.422  1.00  0.00    -0.455 C  
HETATM    8  C   UNL     1      -8.881   7.061  70.510  1.00  0.00    -0.154 C  
HETATM    9  C   UNL     1      -8.330   5.798  71.120  1.00  0.00    -0.123 C  
HETATM   10  C   UNL     1      -9.128   8.709  71.359  1.00  0.00    -0.295 C  
HETATM   11  C   UNL     1     -10.344  11.104  67.913  1.00  0.00    -0.211 C  
HETATM   12  C   UNL     1      -9.633  12.443  68.491  1.00  0.00    -0.121 C  
HETATM   13  C   UNL     1      -8.975  13.388  67.806  1.00  0.00    -0.205 C  
HETATM   14  C   UNL     1     -10.008   9.830  70.325  1.00  0.00    -0.253 C  
HETATM   15  C   UNL     1      -9.707   9.893  68.660  1.00  0.00    -0.163 C  
HETATM   16  O   UNL     1     -11.403   9.584  70.546  1.00  0.00    -0.255 OA 
HETATM   17  C   UNL     1      -9.895   8.439  67.867  1.00  0.00    -0.208 C  
HETATM   18  H   UNL     1     -11.877  10.188  69.988  1.00  0.00     0.000 HD 
HETATM   19  C   UNL     1      -9.480   8.578  66.392  1.00  0.00    -0.297 C  
HETATM   20  C   UNL     1     -10.158   9.735  65.680  1.00  0.00    -0.282 C  
HETATM   21  C   UNL     1     -10.022  11.041  66.401  1.00  0.00    -0.264 C  
HETATM   22  C   UNL     1      -9.746  12.182  65.745  1.00  0.00    -0.245 C  
HETATM   23  C   UNL     1      -9.941  13.354  66.607  1.00  0.00    -0.277 C  
HETATM   24  O   UNL     1     -10.826  14.182  66.430  1.00  0.00    -0.299 OA 
ENDROOT
BRANCH   4  25
HETATM   25  C   UNL     1     -10.983   6.998  71.630  1.00  0.00    -0.230 C  
HETATM   26  O   UNL     1     -12.205   7.170  71.772  1.00  0.00    -0.312 OA 
BRANCH  25  27
HETATM   27  C   UNL     1     -10.270   6.655  72.998  1.00  0.00    -0.225 C  
HETATM   28  C   UNL     1     -10.798   5.310  73.593  1.00  0.00    -0.347 C  
ENDBRANCH  25  27
ENDBRANCH   4  25
TORSDOF 2
ENDMDL
MODEL       19
REMARK 921   NORMALIZED FREE ENERGY PREDICTED BY IDOCK:   -5.28 KCAL/MOL
REMARK 922        TOTAL FREE ENERGY PREDICTED BY IDOCK:   -4.84 KCAL/MOL
REMARK 923 INTER-LIGAND FREE ENERGY PREDICTED BY IDOCK:   -5.83 KCAL/MOL
REMARK 924 INTRA-LIGAND FREE ENERGY PREDICTED BY IDOCK:    0.99 KCAL/MOL
REMARK 927      BINDING AFFINITY PREDICTED BY RF-SCORE:    0.00 PKD
ROOT
HETATM    1  C   UNL     1     -10.802   7.921  71.502  1.00  0.00    -0.268 C  
HETATM    2  C   UNL     1     -11.860   7.188  70.954  1.00  0.00    -0.379 C  
HETATM    3  C   UNL     1     -10.555   7.104  70.258  1.00  0.00    -0.245 C  
HETATM    4  C   UNL     1      -8.942   7.771  71.417  1.00  0.00    -0.151 C  
HETATM    5  C   UNL     1     -11.408   6.304  68.986  1.00  0.00    -0.319 C  
HETATM    6  C   UNL     1      -8.703  11.480  68.818  1.00  0.00    -0.048 C  
HETATM    7  C   UNL     1      -9.077   8.314  73.019  1.00  0.00    -0.319 C  
HETATM    8  C   UNL     1      -9.486   6.539  71.182  1.00  0.00    -0.173 C  
HETATM    9  C   UNL     1      -9.608   5.352  72.102  1.00  0.00    -0.181 C  
HETATM   10  C   UNL     1      -8.434   6.668  69.641  1.00  0.00    -0.132 C  
HETATM   11  C   UNL     1      -9.771  10.568  68.198  1.00  0.00    -0.166 C  
HETATM   12  C   UNL     1      -9.600  10.141  66.642  1.00  0.00    -0.230 C  
HETATM   13  C   UNL     1     -10.384  10.470  65.605  1.00  0.00    -0.274 C  
HETATM   14  C   UNL     1      -8.430   8.312  69.011  1.00  0.00    -0.131 C  
HETATM   15  C   UNL     1      -9.839   9.250  69.026  1.00  0.00    -0.168 C  
HETATM   16  O   UNL     1      -7.387   9.013  69.700  1.00  0.00    -0.060 OA 
HETATM   17  C   UNL     1     -10.532   9.436  70.531  1.00  0.00    -0.335 C  
HETATM   18  H   UNL     1      -7.385   9.899  69.361  1.00  0.00     0.000 HD 
HETATM   19  C   UNL     1     -11.865  10.195  70.414  1.00  0.00    -0.373 C  
HETATM   20  C   UNL     1     -11.753  11.501  69.647  1.00  0.00    -0.419 C  
HETATM   21  C   UNL     1     -11.102  11.349  68.305  1.00  0.00    -0.300 C  
HETATM   22  C   UNL     1     -11.581  11.976  67.217  1.00  0.00    -0.383 C  
HETATM   23  C   UNL     1     -10.631  11.908  66.100  1.00  0.00    -0.258 C  
HETATM   24  O   UNL     1     -10.042  12.884  65.654  1.00  0.00    -0.279 OA 
ENDROOT
BRANCH   4  25
HETATM   25  C   UNL     1      -7.287   7.166  71.849  1.00  0.00    -0.081 C  
HETATM   26  O   UNL     1      -6.308   7.927  71.924  1.00  0.00    -0.039 OA 
BRANCH  25  27
HETATM   27  C   UNL     1      -6.870   5.648  71.985  1.00  0.00    -0.071 C  
HETATM   28  C   UNL     1      -6.144   5.376  73.343  1.00  0.00    -0.051 C  
ENDBRANCH  25  27
ENDBRANCH   4  25
TORSDOF 2
ENDMDL
MODEL       20
REMARK 921   NORMALIZED FREE ENERGY PREDICTED BY IDOCK:   -5.27 KCAL/MOL
REMARK 922        TOTAL FREE ENERGY PREDICTED BY IDOCK:   -4.83 KCAL/MOL
REMARK 923 INTER-LIGAND FREE ENERGY PREDICTED BY IDOCK:   -5.89 KCAL/MOL
REMARK 924 INTRA-LIGAND FREE ENERGY PREDICTED BY IDOCK:    1.06 KCAL/MOL
REMARK 927      BINDING AFFINITY PREDICTED BY RF-SCORE:    0.00 PKD
ROOT
HETATM    1  C   UNL     1     -11.559  13.822  67.547  1.00  0.00    -0.387 C  
HETATM    2  C   UNL     1     -12.018  14.327  66.325  1.00  0.00    -0.428 C  
HETATM    3  C   UNL     1     -10.662  13.729  66.337  1.00  0.00    -0.281 C  
HETATM    4  C   UNL     1     -10.283  12.542  68.022  1.00  0.00    -0.225 C  
HETATM    5  C   UNL     1     -10.478  14.386  64.750  1.00  0.00    -0.394 C  
HETATM    6  C   UNL     1      -7.533  15.786  69.598  1.00  0.00    -0.100 C  
HETATM    7  C   UNL     1     -11.415  12.234  69.248  1.00  0.00    -0.352 C  
HETATM    8  C   UNL     1     -10.720  12.268  66.756  1.00  0.00    -0.272 C  
HETATM    9  C   UNL     1     -11.693  11.219  66.283  1.00  0.00     0.475 C  
HETATM   10  C   UNL     1      -8.886  12.347  66.396  1.00  0.00    -0.048 C  
HETATM   11  C   UNL     1      -7.982  16.224  68.196  1.00  0.00    -0.157 C  
HETATM   12  C   UNL     1      -6.836  16.557  67.097  1.00  0.00    -0.230 C  
HETATM   13  C   UNL     1      -6.553  17.740  66.534  1.00  0.00    -0.256 C  
HETATM   14  C   UNL     1      -8.110  13.617  67.338  1.00  0.00    -0.175 C  
HETATM   15  C   UNL     1      -8.880  15.103  67.591  1.00  0.00    -0.178 C  
HETATM   16  O   UNL     1      -7.768  13.038  68.604  1.00  0.00    -0.187 OA 
HETATM   17  C   UNL     1     -10.386  14.992  68.297  1.00  0.00    -0.236 C  
HETATM   18  H   UNL     1      -7.350  13.722  69.112  1.00  0.00     0.000 HD 
HETATM   19  C   UNL     1     -11.045  16.380  68.368  1.00  0.00    -0.351 C  
HETATM   20  C   UNL     1     -10.164  17.436  69.011  1.00  0.00    -0.317 C  
HETATM   21  C   UNL     1      -8.797  17.522  68.403  1.00  0.00    -0.276 C  
HETATM   22  C   UNL     1      -8.215  18.707  68.148  1.00  0.00    -0.327 C  
HETATM   23  C   UNL     1      -6.791  18.543  67.826  1.00  0.00    -0.213 C  
HETATM   24  O   UNL     1      -5.886  18.942  68.548  1.00  0.00    -0.200 OA 
ENDROOT
BRANCH   4  25
HETATM   25  C   UNL     1      -9.603  10.892  68.348  1.00  0.00    -0.177 C  
HETATM   26  O   UNL     1      -8.727  10.701  69.207  1.00  0.00    -0.149 OA 
BRANCH  25  27
HETATM   27  C   UNL     1      -9.887   9.595  67.491  1.00  0.00    -0.213 C  
HETATM   28  C   UNL     1     -10.255   8.380  68.402  1.00  0.00    -0.239 C  
ENDBRANCH  25  27
ENDBRANCH   4  25
TORSDOF 2
ENDMDL
MODEL       21
REMARK 921   NORMALIZED FREE ENERGY PREDICTED BY IDOCK:   -5.25 KCAL/MOL
REMARK 922        TOTAL FREE ENERGY PREDICTED BY IDOCK:   -4.81 KCAL/MOL
REMARK 923 INTER-LIGAND FREE ENERGY PREDICTED BY IDOCK:   -5.80 KCAL/MOL
REMARK 924 INTRA-LIGAND FREE ENERGY PREDICTED BY IDOCK:    0.99 KCAL/MOL
REMARK 927      BINDING AFFINITY PREDICTED BY RF-SCORE:    0.00 PKD
ROOT
HETATM    1  C   UNL     1     -11.082  13.726  66.452  1.00  0.00    -0.309 C  
HETATM    2  C   UNL     1     -12.116  13.283  67.285  1.00  0.00    -0.341 C  
HETATM    3  C   UNL     1     -10.795  13.506  67.917  1.00  0.00    -0.262 C  
HETATM    4  C   UNL     1      -9.489  14.656  66.749  1.00  0.00    -0.275 C  
HETATM    5  C   UNL     1     -11.453  12.727  69.311  1.00  0.00    -0.349 C  
HETATM    6  C   UNL     1      -7.077  10.913  65.891  1.00  0.00    -0.029 C  
HETATM    7  C   UNL     1      -9.893  15.324  65.242  1.00  0.00    -0.250 C  
HETATM    8  C   UNL     1     -10.360  14.956  67.760  1.00  0.00    -0.244 C  
HETATM    9  C   UNL     1     -11.198  16.190  67.970  1.00  0.00    -0.291 C  
HETATM   10  C   UNL     1      -8.919  14.379  68.806  1.00  0.00    -0.131 C  
HETATM   11  C   UNL     1      -8.165  10.520  66.901  1.00  0.00    -0.123 C  
HETATM   12  C   UNL     1      -7.701   9.832  68.295  1.00  0.00    -0.085 C  
HETATM   13  C   UNL     1      -7.943   8.584  68.719  1.00  0.00    -0.119 C  
HETATM   14  C   UNL     1      -8.100  13.013  68.057  1.00  0.00    -0.157 C  
HETATM   15  C   UNL     1      -8.979  11.797  67.273  1.00  0.00    -0.172 C  
HETATM   16  O   UNL     1      -7.134  13.560  67.150  1.00  0.00    -0.341 OA 
HETATM   17  C   UNL     1      -9.975  12.340  66.052  1.00  0.00    -0.270 C  
HETATM   18  H   UNL     1      -6.692  12.823  66.746  1.00  0.00     0.000 HD 
HETATM   19  C   UNL     1     -10.814  11.179  65.493  1.00  0.00    -0.205 C  
HETATM   20  C   UNL     1      -9.986   9.971  65.090  1.00  0.00    -0.350 C  
HETATM   21  C   UNL     1      -9.065   9.495  66.172  1.00  0.00    -0.207 C  
HETATM   22  C   UNL     1      -8.911   8.186  66.439  1.00  0.00    -0.207 C  
HETATM   23  C   UNL     1      -7.764   7.953  67.326  1.00  0.00    -0.105 C  
HETATM   24  O   UNL     1      -6.743   7.377  66.972  1.00  0.00    -0.064 OA 
ENDROOT
BRANCH   4  25
HETATM   25  C   UNL     1      -8.406  16.090  67.002  1.00  0.00    -0.219 C  
HETATM   26  O   UNL     1      -7.292  16.174  66.460  1.00  0.00    -0.187 OA 
BRANCH  25  27
HETATM   27  C   UNL     1      -8.651  17.254  68.042  1.00  0.00    -0.234 C  
HETATM   28  C   UNL     1      -8.393  18.655  67.398  1.00  0.00    -0.272 C  
ENDBRANCH  25  27
ENDBRANCH   4  25
TORSDOF 2
ENDMDL
MODEL       22
REMARK 921   NORMALIZED FREE ENERGY PREDICTED BY IDOCK:   -5.25 KCAL/MOL
REMARK 922        TOTAL FREE ENERGY PREDICTED BY IDOCK:   -4.81 KCAL/MOL
REMARK 923 INTER-LIGAND FREE ENERGY PREDICTED BY IDOCK:   -6.27 KCAL/MOL
REMARK 924 INTRA-LIGAND FREE ENERGY PREDICTED BY IDOCK:    1.47 KCAL/MOL
REMARK 927      BINDING AFFINITY PREDICTED BY RF-SCORE:    0.00 PKD
ROOT
HETATM    1  C   UNL     1      -9.017  14.755  67.647  1.00  0.00    -0.183 C  
HETATM    2  C   UNL     1      -8.960  14.876  66.254  1.00  0.00    -0.193 C  
HETATM    3  C   UNL     1     -10.186  14.271  66.824  1.00  0.00    -0.272 C  
HETATM    4  C   UNL     1     -10.416  14.619  68.878  1.00  0.00    -0.248 C  
HETATM    5  C   UNL     1     -10.602  13.851  65.201  1.00  0.00    -0.391 C  
HETATM    6  C   UNL     1      -9.384  10.272  69.656  1.00  0.00    -0.167 C  
HETATM    7  C   UNL     1      -9.345  15.543  69.816  1.00  0.00    -0.136 C  
HETATM    8  C   UNL     1     -10.885  15.248  67.758  1.00  0.00    -0.295 C  
HETATM    9  C   UNL     1     -11.149  16.712  67.519  1.00  0.00    -0.055 C  
HETATM   10  C   UNL     1     -12.152  13.874  67.847  1.00  0.00    -0.318 C  
HETATM   11  C   UNL     1      -9.457  10.447  68.132  1.00  0.00    -0.152 C  
HETATM   12  C   UNL     1     -10.464   9.484  67.300  1.00  0.00    -0.328 C  
HETATM   13  C   UNL     1     -10.148   8.541  66.401  1.00  0.00    -0.271 C  
HETATM   14  C   UNL     1     -11.413  12.363  68.368  1.00  0.00    -0.310 C  
HETATM   15  C   UNL     1      -9.874  11.916  67.822  1.00  0.00    -0.187 C  
HETATM   16  O   UNL     1     -11.423  12.374  69.801  1.00  0.00    -0.437 OA 
HETATM   17  C   UNL     1      -8.677  13.035  68.132  1.00  0.00    -0.190 C  
HETATM   18  H   UNL     1     -11.025  11.559  70.082  1.00  0.00     0.000 HD 
HETATM   19  C   UNL     1      -7.353  12.590  67.490  1.00  0.00    -0.151 C  
HETATM   20  C   UNL     1      -6.949  11.173  67.855  1.00  0.00    -0.069 C  
HETATM   21  C   UNL     1      -8.029  10.164  67.609  1.00  0.00    -0.102 C  
HETATM   22  C   UNL     1      -7.762   8.969  67.055  1.00  0.00    -0.098 C  
HETATM   23  C   UNL     1      -8.907   8.057  67.175  1.00  0.00    -0.131 C  
HETATM   24  O   UNL     1      -8.899   7.052  67.874  1.00  0.00    -0.125 OA 
ENDROOT
BRANCH   4  25
HETATM   25  C   UNL     1     -11.740  15.186  69.981  1.00  0.00    -0.307 C  
HETATM   26  O   UNL     1     -12.591  16.013  69.615  1.00  0.00    -0.107 OA 
BRANCH  25  27
HETATM   27  C   UNL     1     -11.853  14.861  71.523  1.00  0.00    -0.419 C  
HETATM   28  C   UNL     1     -12.059  16.162  72.365  1.00  0.00    -0.630 C  
ENDBRANCH  25  27
ENDBRANCH   4  25
TORSDOF 2
ENDMDL
MODEL       23
REMARK 921   NORMALIZED FREE ENERGY PREDICTED BY IDOCK:   -5.13 KCAL/MOL
REMARK 922        TOTAL FREE ENERGY PREDICTED BY IDOCK:   -4.67 KCAL/MOL
REMARK 923 INTER-LIGAND FREE ENERGY PREDICTED BY IDOCK:   -5.69 KCAL/MOL
REMARK 924 INTRA-LIGAND FREE ENERGY PREDICTED BY IDOCK:    1.02 KCAL/MOL
REMARK 927      BINDING AFFINITY PREDICTED BY RF-SCORE:    0.00 PKD
ROOT
HETATM    1  C   UNL     1      -7.920  10.610  68.020  1.00  0.00    -0.107 C  
HETATM    2  C   UNL     1      -8.484  10.880  69.272  1.00  0.00    -0.006 C  
HETATM    3  C   UNL     1      -9.330  10.151  68.300  1.00  0.00    -0.136 C  
HETATM    4  C   UNL     1      -8.254   9.331  66.699  1.00  0.00    -0.115 C  
HETATM    5  C   UNL     1     -10.634  10.414  69.403  1.00  0.00    -0.267 C  
HETATM    6  C   UNL     1     -10.010  12.511  63.985  1.00  0.00    -0.225 C  
HETATM    7  C   UNL     1      -6.568   9.433  66.531  1.00  0.00    -0.067 C  
HETATM    8  C   UNL     1      -8.680   8.834  67.900  1.00  0.00    -0.136 C  
HETATM    9  C   UNL     1      -8.027   7.825  68.807  1.00  0.00    -0.125 C  
HETATM   10  C   UNL     1     -10.272   8.624  66.939  1.00  0.00    -0.367 C  
HETATM   11  C   UNL     1     -10.681  12.675  65.356  1.00  0.00    -0.308 C  
HETATM   12  C   UNL     1     -12.302  12.624  65.424  1.00  0.00    -0.499 C  
HETATM   13  C   UNL     1     -13.144  13.613  65.755  1.00  0.00    -0.053 C  
HETATM   14  C   UNL     1     -10.532   9.974  65.839  1.00  0.00    -0.045 C  
HETATM   15  C   UNL     1     -10.151  11.557  66.304  1.00  0.00    -0.261 C  
HETATM   16  O   UNL     1      -9.837   9.655  64.627  1.00  0.00    -0.415 OA 
HETATM   17  C   UNL     1      -8.571  11.776  66.786  1.00  0.00    -0.185 C  
HETATM   18  H   UNL     1      -9.977  10.383  64.034  1.00  0.00     0.000 HD 
HETATM   19  C   UNL     1      -8.365  13.211  67.301  1.00  0.00    -0.182 C  
HETATM   20  C   UNL     1      -8.843  14.277  66.331  1.00  0.00    -0.001 C  
HETATM   21  C   UNL     1     -10.253  14.071  65.868  1.00  0.00    -0.332 C  
HETATM   22  C   UNL     1     -11.119  15.095  65.771  1.00  0.00    -0.330 C  
HETATM   23  C   UNL     1     -12.329  14.704  65.036  1.00  0.00    -0.286 C  
HETATM   24  O   UNL     1     -12.621  15.148  63.934  1.00  0.00    -0.794 OA 
ENDROOT
BRANCH   4  25
HETATM   25  C   UNL     1      -8.159   7.728  65.855  1.00  0.00    -0.121 C  
HETATM   26  O   UNL     1      -8.118   7.639  64.617  1.00  0.00    -0.142 OA 
BRANCH  25  27
HETATM   27  C   UNL     1      -8.306   6.315  66.547  1.00  0.00    -0.114 C  
HETATM   28  C   UNL     1      -7.128   5.365  66.156  1.00  0.00    -0.072 C  
ENDBRANCH  25  27
ENDBRANCH   4  25
TORSDOF 2
ENDMDL
MODEL       24
REMARK 921   NORMALIZED FREE ENERGY PREDICTED BY IDOCK:   -5.07 KCAL/MOL
REMARK 922        TOTAL FREE ENERGY PREDICTED BY IDOCK:   -4.60 KCAL/MOL
REMARK 923 INTER-LIGAND FREE ENERGY PREDICTED BY IDOCK:   -5.61 KCAL/MOL
REMARK 924 INTRA-LIGAND FREE ENERGY PREDICTED BY IDOCK:    1.01 KCAL/MOL
REMARK 927      BINDING AFFINITY PREDICTED BY RF-SCORE:    0.00 PKD
ROOT
HETATM    1  C   UNL     1      -9.742  14.740  65.472  1.00  0.00    -0.261 C  
HETATM    2  C   UNL     1     -10.908  14.455  64.753  1.00  0.00    -0.415 C  
HETATM    3  C   UNL     1     -11.062  14.722  66.202  1.00  0.00    -0.339 C  
HETATM    4  C   UNL     1      -9.394  15.649  67.067  1.00  0.00    -0.241 C  
HETATM    5  C   UNL     1     -12.689  14.171  66.018  1.00  0.00    -0.325 C  
HETATM    6  C   UNL     1      -8.389  11.743  69.140  1.00  0.00     0.312 C  
HETATM    7  C   UNL     1      -8.004  16.109  66.207  1.00  0.00    -0.138 C  
HETATM    8  C   UNL     1     -10.569  16.119  66.548  1.00  0.00    -0.268 C  
HETATM    9  C   UNL     1     -10.845  17.397  65.801  1.00  0.00     0.000 C  
HETATM   10  C   UNL     1     -11.192  15.649  68.249  1.00  0.00    -0.353 C  
HETATM   11  C   UNL     1      -9.731  11.536  68.425  1.00  0.00    -0.202 C  
HETATM   12  C   UNL     1     -10.999  11.038  69.307  1.00  0.00    -0.305 C  
HETATM   13  C   UNL     1     -11.654   9.872  69.224  1.00  0.00     0.034 C  
HETATM   14  C   UNL     1     -10.435  14.163  68.814  1.00  0.00    -0.247 C  
HETATM   15  C   UNL     1     -10.146  12.878  67.750  1.00  0.00    -0.229 C  
HETATM   16  O   UNL     1      -9.204  14.543  69.444  1.00  0.00    -0.398 OA 
HETATM   17  C   UNL     1      -9.226  13.275  66.418  1.00  0.00    -0.133 C  
HETATM   18  H   UNL     1      -8.796  13.742  69.748  1.00  0.00     0.000 HD 
HETATM   19  C   UNL     1      -9.129  12.074  65.461  1.00  0.00     0.136 C  
HETATM   20  C   UNL     1      -8.671  10.795  66.139  1.00  0.00    -0.186 C  
HETATM   21  C   UNL     1      -9.473  10.447  67.356  1.00  0.00    -0.170 C  
HETATM   22  C   UNL     1      -9.867   9.185  67.601  1.00  0.00    -0.217 C  
HETATM   23  C   UNL     1     -10.381   9.043  68.969  1.00  0.00    -0.219 C  
HETATM   24  O   UNL     1      -9.817   8.389  69.838  1.00  0.00    -0.182 OA 
ENDROOT
BRANCH   4  25
HETATM   25  C   UNL     1      -9.089  17.067  68.156  1.00  0.00    -0.237 C  
HETATM   26  O   UNL     1      -8.185  17.058  69.008  1.00  0.00    -0.225 OA 
BRANCH  25  27
HETATM   27  C   UNL     1     -10.011  18.344  68.283  1.00  0.00    -0.394 C  
HETATM   28  C   UNL     1      -9.168  19.660  68.249  1.00  0.00    -0.412 C  
ENDBRANCH  25  27
ENDBRANCH   4  25
TORSDOF 2
ENDMDL
MODEL       25
REMARK 921   NORMALIZED FREE ENERGY PREDICTED BY IDOCK:   -5.01 KCAL/MOL
REMARK 922        TOTAL FREE ENERGY PREDICTED BY IDOCK:   -4.54 KCAL/MOL
REMARK 923 INTER-LIGAND FREE ENERGY PREDICTED BY IDOCK:   -6.15 KCAL/MOL
REMARK 924 INTRA-LIGAND FREE ENERGY PREDICTED BY IDOCK:    1.62 KCAL/MOL
REMARK 927      BINDING AFFINITY PREDICTED BY RF-SCORE:    0.00 PKD
ROOT
HETATM    1  C   UNL     1     -11.331  13.224  68.120  1.00  0.00    -0.323 C  
HETATM    2  C   UNL     1     -10.752  14.108  69.037  1.00  0.00    -0.249 C  
HETATM    3  C   UNL     1      -9.835  13.198  68.313  1.00  0.00    -0.227 C  
HETATM    4  C   UNL     1     -10.694  12.317  66.616  1.00  0.00    -0.276 C  
HETATM    5  C   UNL     1      -8.614  13.730  69.413  1.00  0.00     0.753 C  
HETATM    6  C   UNL     1     -10.876   8.373  68.846  1.00  0.00     0.002 C  
HETATM    7  C   UNL     1     -12.269  12.634  66.070  1.00  0.00    -0.329 C  
HETATM    8  C   UNL     1      -9.921  13.429  66.811  1.00  0.00    -0.264 C  
HETATM    9  C   UNL     1      -9.941  14.750  66.089  1.00  0.00    -0.324 C  
HETATM   10  C   UNL     1      -8.554  12.150  66.785  1.00  0.00    -0.163 C  
HETATM   11  C   UNL     1     -10.138   9.366  69.756  1.00  0.00    -0.229 C  
HETATM   12  C   UNL     1      -8.657   8.962  70.284  1.00  0.00    -0.178 C  
HETATM   13  C   UNL     1      -8.271   8.712  71.543  1.00  0.00    -0.209 C  
HETATM   14  C   UNL     1      -9.058  10.668  67.590  1.00  0.00    -0.142 C  
HETATM   15  C   UNL     1      -9.996  10.720  68.998  1.00  0.00    -0.214 C  
HETATM   16  O   UNL     1      -9.729   9.872  66.603  1.00  0.00    -0.178 OA 
HETATM   17  C   UNL     1     -11.429  11.559  68.846  1.00  0.00    -0.352 C  
HETATM   18  H   UNL     1     -10.000   9.073  67.037  1.00  0.00     0.000 HD 
HETATM   19  C   UNL     1     -12.140  11.651  70.207  1.00  0.00    -0.443 C  
HETATM   20  C   UNL     1     -12.309  10.307  70.893  1.00  0.00    -0.471 C  
HETATM   21  C   UNL     1     -11.031   9.532  71.007  1.00  0.00    -0.424 C  
HETATM   22  C   UNL     1     -10.705   8.877  72.135  1.00  0.00    -0.323 C  
HETATM   23  C   UNL     1      -9.569   7.971  71.916  1.00  0.00    -0.183 C  
HETATM   24  O   UNL     1      -9.662   6.751  71.957  1.00  0.00    -0.155 OA 
ENDROOT
BRANCH   4  25
HETATM   25  C   UNL     1     -10.230  12.068  64.880  1.00  0.00    -0.270 C  
HETATM   26  O   UNL     1      -9.976  13.020  64.124  1.00  0.00    -0.267 OA 
BRANCH  25  27
HETATM   27  C   UNL     1     -10.280  10.692  64.104  1.00  0.00    -0.365 C  
HETATM   28  C   UNL     1      -9.407  10.737  62.808  1.00  0.00    -0.352 C  
ENDBRANCH  25  27
ENDBRANCH   4  25
TORSDOF 2
ENDMDL
MODEL       26
REMARK 921   NORMALIZED FREE ENERGY PREDICTED BY IDOCK:   -5.00 KCAL/MOL
REMARK 922        TOTAL FREE ENERGY PREDICTED BY IDOCK:   -4.52 KCAL/MOL
REMARK 923 INTER-LIGAND FREE ENERGY PREDICTED BY IDOCK:   -5.57 KCAL/MOL
REMARK 924 INTRA-LIGAND FREE ENERGY PREDICTED BY IDOCK:    1.04 KCAL/MOL
REMARK 927      BINDING AFFINITY PREDICTED BY RF-SCORE:    0.00 PKD
ROOT
HETATM    1  C   UNL     1      -9.024  13.822  67.217  1.00  0.00    -0.227 C  
HETATM    2  C   UNL     1      -8.289  12.858  67.916  1.00  0.00    -0.170 C  
HETATM    3  C   UNL     1      -9.701  12.531  67.607  1.00  0.00    -0.196 C  
HETATM    4  C   UNL     1     -10.541  13.757  66.129  1.00  0.00    -0.291 C  
HETATM    5  C   UNL     1      -9.505  11.180  68.665  1.00  0.00    -0.196 C  
HETATM    6  C   UNL     1     -13.000  15.814  69.336  1.00  0.00     0.936 C  
HETATM    7  C   UNL     1      -9.698  14.981  65.310  1.00  0.00    -0.144 C  
HETATM    8  C   UNL     1      -9.937  12.530  66.104  1.00  0.00    -0.267 C  
HETATM    9  C   UNL     1      -9.067  11.911  65.041  1.00  0.00     0.295 C  
HETATM   10  C   UNL     1     -11.649  11.978  66.622  1.00  0.00    -0.389 C  
HETATM   11  C   UNL     1     -12.255  14.658  70.019  1.00  0.00    -0.385 C  
HETATM   12  C   UNL     1     -13.129  13.560  70.832  1.00  0.00    -0.145 C  
HETATM   13  C   UNL     1     -13.128  13.317  72.150  1.00  0.00    -0.486 C  
HETATM   14  C   UNL     1     -12.375  13.130  67.737  1.00  0.00     0.130 C  
HETATM   15  C   UNL     1     -11.445  13.883  68.936  1.00  0.00    -0.340 C  
HETATM   16  O   UNL     1     -13.015  14.131  66.935  1.00  0.00    -0.254 OA 
HETATM   17  C   UNL     1     -10.119  14.714  68.363  1.00  0.00    -0.237 C  
HETATM   18  H   UNL     1     -13.406  14.753  67.537  1.00  0.00     0.000 HD 
HETATM   19  C   UNL     1      -9.280  15.251  69.535  1.00  0.00    -0.196 C  
HETATM   20  C   UNL     1     -10.089  16.047  70.544  1.00  0.00     0.579 C  
HETATM   21  C   UNL     1     -11.301  15.319  71.042  1.00  0.00    -0.393 C  
HETATM   22  C   UNL     1     -11.645  15.332  72.341  1.00  0.00    -0.515 C  
HETATM   23  C   UNL     1     -12.999  14.801  72.540  1.00  0.00    -0.392 C  
HETATM   24  O   UNL     1     -13.945  15.485  72.911  1.00  0.00    -0.500 OA 
ENDROOT
BRANCH   4  25
HETATM   25  C   UNL     1     -11.508  13.522  64.612  1.00  0.00    -0.358 C  
HETATM   26  O   UNL     1     -12.455  14.269  64.314  1.00  0.00    -0.657 OA 
BRANCH  25  27
HETATM   27  C   UNL     1     -11.396  12.287  63.633  1.00  0.00    -0.547 C  
HETATM   28  C   UNL     1     -12.808  11.733  63.251  1.00  0.00    -0.224 C  
ENDBRANCH  25  27
ENDBRANCH   4  25
TORSDOF 2
ENDMDL
MODEL       27
REMARK 921   NORMALIZED FREE ENERGY PREDICTED BY IDOCK:   -4.98 KCAL/MOL
REMARK 922        TOTAL FREE ENERGY PREDICTED BY IDOCK:   -4.51 KCAL/MOL
REMARK 923 INTER-LIGAND FREE ENERGY PREDICTED BY IDOCK:   -5.65 KCAL/MOL
REMARK 924 INTRA-LIGAND FREE ENERGY PREDICTED BY IDOCK:    1.13 KCAL/MOL
REMARK 927      BINDING AFFINITY PREDICTED BY RF-SCORE:    0.00 PKD
ROOT
HETATM    1  C   UNL     1     -10.385  15.496  69.221  1.00  0.00    -0.252 C  
HETATM    2  C   UNL     1      -9.424  15.273  70.214  1.00  0.00     0.458 C  
HETATM    3  C   UNL     1      -8.953  15.255  68.809  1.00  0.00    -0.200 C  
HETATM    4  C   UNL     1     -10.307  16.113  67.459  1.00  0.00    -0.286 C  
HETATM    5  C   UNL     1      -7.463  14.643  69.432  1.00  0.00    -0.112 C  
HETATM    6  C   UNL     1     -11.270  11.965  65.902  1.00  0.00    -0.373 C  
HETATM    7  C   UNL     1     -11.786  16.815  67.906  1.00  0.00     0.592 C  
HETATM    8  C   UNL     1      -9.218  16.593  68.134  1.00  0.00    -0.220 C  
HETATM    9  C   UNL     1      -8.968  17.967  68.698  1.00  0.00    -0.278 C  
HETATM   10  C   UNL     1      -8.316  15.775  66.713  1.00  0.00    -0.309 C  
HETATM   11  C   UNL     1     -10.130  11.806  66.917  1.00  0.00    -0.231 C  
HETATM   12  C   UNL     1      -8.769  11.071  66.428  1.00  0.00    -0.174 C  
HETATM   13  C   UNL     1      -8.268   9.900  66.846  1.00  0.00    -0.120 C  
HETATM   14  C   UNL     1      -9.094  14.264  66.255  1.00  0.00    -0.068 C  
HETATM   15  C   UNL     1      -9.723  13.220  67.430  1.00  0.00    -0.221 C  
HETATM   16  O   UNL     1     -10.125  14.600  65.318  1.00  0.00    -0.371 OA 
HETATM   17  C   UNL     1     -10.847  13.917  68.445  1.00  0.00    -0.269 C  
HETATM   18  H   UNL     1     -10.544  13.785  65.071  1.00  0.00     0.000 HD 
HETATM   19  C   UNL     1     -11.260  12.925  69.545  1.00  0.00    -0.143 C  
HETATM   20  C   UNL     1     -11.702  11.575  69.008  1.00  0.00    -0.400 C  
HETATM   21  C   UNL     1     -10.711  10.954  68.070  1.00  0.00    -0.263 C  
HETATM   22  C   UNL     1     -10.408   9.646  68.132  1.00  0.00    -0.250 C  
HETATM   23  C   UNL     1      -9.645   9.218  66.953  1.00  0.00    -0.174 C  
HETATM   24  O   UNL     1     -10.087   8.453  66.105  1.00  0.00    -0.182 OA 
ENDROOT
BRANCH   4  25
HETATM   25  C   UNL     1     -10.236  17.321  66.107  1.00  0.00    -0.331 C  
HETATM   26  O   UNL     1     -10.652  17.056  64.967  1.00  0.00    -0.703 OA 
BRANCH  25  27
HETATM   27  C   UNL     1      -9.498  18.717  66.159  1.00  0.00    -0.185 C  
HETATM   28  C   UNL     1     -10.508  19.901  66.010  1.00  0.00    -0.580 C  
ENDBRANCH  25  27
ENDBRANCH   4  25
TORSDOF 2
ENDMDL
MODEL       28
REMARK 921   NORMALIZED FREE ENERGY PREDICTED BY IDOCK:   -4.91 KCAL/MOL
REMARK 922        TOTAL FREE ENERGY PREDICTED BY IDOCK:   -4.43 KCAL/MOL
REMARK 923 INTER-LIGAND FREE ENERGY PREDICTED BY IDOCK:   -5.66 KCAL/MOL
REMARK 924 INTRA-LIGAND FREE ENERGY PREDICTED BY IDOCK:    1.24 KCAL/MOL
REMARK 927      BINDING AFFINITY PREDICTED BY RF-SCORE:    0.00 PKD
ROOT
HETATM    1  C   UNL     1      -9.778   9.822  69.368  1.00  0.00    -0.214 C  
HETATM    2  C   UNL     1      -8.706   9.828  70.268  1.00  0.00    -0.172 C  
HETATM    3  C   UNL     1      -8.385   9.581  68.843  1.00  0.00    -0.121 C  
HETATM    4  C   UNL     1      -9.927  10.117  67.529  1.00  0.00    -0.231 C  
HETATM    5  C   UNL     1      -6.799   9.164  69.387  1.00  0.00    -0.048 C  
HETATM    6  C   UNL     1     -10.764   5.715  66.834  1.00  0.00    -0.350 C  
HETATM    7  C   UNL     1     -11.396  10.815  68.015  1.00  0.00    -0.378 C  
HETATM    8  C   UNL     1      -8.809  10.762  67.982  1.00  0.00    -0.132 C  
HETATM    9  C   UNL     1      -8.595  12.225  68.267  1.00  0.00    -0.172 C  
HETATM   10  C   UNL     1      -8.007   9.747  66.629  1.00  0.00    -0.112 C  
HETATM   11  C   UNL     1      -9.515   5.796  67.723  1.00  0.00    -0.116 C  
HETATM   12  C   UNL     1      -8.166   5.052  67.215  1.00  0.00    -0.107 C  
HETATM   13  C   UNL     1      -7.546   4.000  67.769  1.00  0.00    -0.068 C  
HETATM   14  C   UNL     1      -8.724   8.142  66.532  1.00  0.00    -0.143 C  
HETATM   15  C   UNL     1      -9.154   7.297  67.934  1.00  0.00    -0.132 C  
HETATM   16  O   UNL     1      -9.868   8.254  65.675  1.00  0.00    -0.391 OA 
HETATM   17  C   UNL     1     -10.211   8.109  68.935  1.00  0.00    -0.221 C  
HETATM   18  H   UNL     1     -10.254   7.389  65.623  1.00  0.00     0.000 HD 
HETATM   19  C   UNL     1     -10.438   7.312  70.230  1.00  0.00    -0.231 C  
HETATM   20  C   UNL     1     -10.841   5.868  69.989  1.00  0.00    -0.421 C  
HETATM   21  C   UNL     1      -9.913   5.138  69.066  1.00  0.00    -0.265 C  
HETATM   22  C   UNL     1      -9.518   3.878  69.317  1.00  0.00    -0.256 C  
HETATM   23  C   UNL     1      -8.855   3.283  68.150  1.00  0.00    -0.124 C  
HETATM   24  O   UNL     1      -9.329   2.357  67.504  1.00  0.00    -0.173 OA 
ENDROOT
BRANCH   4  25
HETATM   25  C   UNL     1     -10.081  11.064  65.990  1.00  0.00    -0.247 C  
HETATM   26  O   UNL     1     -10.502  10.549  64.941  1.00  0.00    -0.301 OA 
BRANCH  25  27
HETATM   27  C   UNL     1      -9.542  12.531  65.756  1.00  0.00    -0.137 C  
HETATM   28  C   UNL     1     -10.453  13.320  64.760  1.00  0.00    -0.402 C  
ENDBRANCH  25  27
ENDBRANCH   4  25
TORSDOF 2
ENDMDL
MODEL       29
REMARK 921   NORMALIZED FREE ENERGY PREDICTED BY IDOCK:   -4.89 KCAL/MOL
REMARK 922        TOTAL FREE ENERGY PREDICTED BY IDOCK:   -4.41 KCAL/MOL
REMARK 923 INTER-LIGAND FREE ENERGY PREDICTED BY IDOCK:   -5.41 KCAL/MOL
REMARK 924 INTRA-LIGAND FREE ENERGY PREDICTED BY IDOCK:    1.01 KCAL/MOL
REMARK 927      BINDING AFFINITY PREDICTED BY RF-SCORE:    0.00 PKD
ROOT
HETATM    1  C   UNL     1      -9.450  10.640  65.973  1.00  0.00    -0.233 C  
HETATM    2  C   UNL     1      -8.207  10.779  65.345  1.00  0.00    -0.077 C  
HETATM    3  C   UNL     1      -8.282  11.162  66.774  1.00  0.00    -0.154 C  
HETATM    4  C   UNL     1      -9.985  10.430  67.751  1.00  0.00    -0.203 C  
HETATM    5  C   UNL     1      -6.703  11.831  66.564  1.00  0.00     0.111 C  
HETATM    6  C   UNL     1     -11.677  14.637  67.798  1.00  0.00    -0.386 C  
HETATM    7  C   UNL     1     -11.159   9.447  67.017  1.00  0.00     0.277 C  
HETATM    8  C   UNL     1      -8.701   9.975  67.629  1.00  0.00    -0.121 C  
HETATM    9  C   UNL     1      -8.187   8.562  67.547  1.00  0.00    -0.117 C  
HETATM   10  C   UNL     1      -8.426  11.196  69.021  1.00  0.00    -0.044 C  
HETATM   11  C   UNL     1     -10.256  14.734  67.227  1.00  0.00    -0.241 C  
HETATM   12  C   UNL     1      -9.209  15.741  67.951  1.00  0.00    -0.191 C  
HETATM   13  C   UNL     1      -8.656  16.855  67.450  1.00  0.00    -0.214 C  
HETATM   14  C   UNL     1      -9.399  12.646  68.794  1.00  0.00     0.142 C  
HETATM   15  C   UNL     1      -9.613  13.315  67.253  1.00  0.00    -0.234 C  
HETATM   16  O   UNL     1     -10.680  12.375  69.376  1.00  0.00    -0.439 OA 
HETATM   17  C   UNL     1     -10.250  12.266  66.125  1.00  0.00    -0.263 C  
HETATM   18  H   UNL     1     -11.205  13.157  69.253  1.00  0.00     0.000 HD 
HETATM   19  C   UNL     1     -10.287  12.933  64.739  1.00  0.00    -0.345 C  
HETATM   20  C   UNL     1     -10.967  14.290  64.738  1.00  0.00    -0.408 C  
HETATM   21  C   UNL     1     -10.422  15.230  65.771  1.00  0.00    -0.365 C  
HETATM   22  C   UNL     1     -10.190  16.524  65.491  1.00  0.00    -0.261 C  
HETATM   23  C   UNL     1      -9.934  17.297  66.714  1.00  0.00    -0.301 C  
HETATM   24  O   UNL     1     -10.696  18.155  67.141  1.00  0.00    -0.375 OA 
ENDROOT
BRANCH   4  25
HETATM   25  C   UNL     1     -10.347   9.560  69.302  1.00  0.00    -0.208 C  
HETATM   26  O   UNL     1     -11.359   9.812  69.975  1.00  0.00    -0.242 OA 
BRANCH  25  27
HETATM   27  C   UNL     1      -9.370   8.568  70.048  1.00  0.00    -0.164 C  
HETATM   28  C   UNL     1      -9.464   8.734  71.599  1.00  0.00    -0.358 C  
ENDBRANCH  25  27
ENDBRANCH   4  25
TORSDOF 2
ENDMDL
MODEL       30
REMARK 921   NORMALIZED FREE ENERGY PREDICTED BY IDOCK:   -4.83 KCAL/MOL
REMARK 922        TOTAL FREE ENERGY PREDICTED BY IDOCK:   -4.34 KCAL/MOL
REMARK 923 INTER-LIGAND FREE ENERGY PREDICTED BY IDOCK:   -5.40 KCAL/MOL
REMARK 924 INTRA-LIGAND FREE ENERGY PREDICTED BY IDOCK:    1.06 KCAL/MOL
REMARK 927      BINDING AFFINITY PREDICTED BY RF-SCORE:    0.00 PKD
ROOT
HETATM    1  C   UNL     1      -9.380  12.968  65.344  1.00  0.00     0.353 C  
HETATM    2  C   UNL     1     -10.123  12.688  64.192  1.00  0.00    -0.293 C  
HETATM    3  C   UNL     1     -10.809  12.507  65.493  1.00  0.00    -0.312 C  
HETATM    4  C   UNL     1      -9.833  13.443  67.094  1.00  0.00    -0.237 C  
HETATM    5  C   UNL     1     -12.073  11.743  64.596  1.00  0.00    -0.104 C  
HETATM    6  C   UNL     1      -8.540   9.364  68.596  1.00  0.00    -0.123 C  
HETATM    7  C   UNL     1      -8.419  14.369  66.940  1.00  0.00    -0.156 C  
HETATM    8  C   UNL     1     -10.855  13.816  66.266  1.00  0.00    -0.283 C  
HETATM    9  C   UNL     1     -11.208  15.181  65.733  1.00  0.00    -0.287 C  
HETATM   10  C   UNL     1     -11.847  12.785  67.471  1.00  0.00    -0.402 C  
HETATM   11  C   UNL     1      -9.465   9.124  67.394  1.00  0.00    -0.177 C  
HETATM   12  C   UNL     1     -10.765   8.178  67.608  1.00  0.00    -0.203 C  
HETATM   13  C   UNL     1     -11.015   6.982  67.056  1.00  0.00    -0.357 C  
HETATM   14  C   UNL     1     -10.942  11.365  67.984  1.00  0.00    -0.237 C  
HETATM   15  C   UNL     1      -9.985  10.503  66.886  1.00  0.00    -0.246 C  
HETATM   16  O   UNL     1     -10.138  11.771  69.099  1.00  0.00    -0.413 OA 
HETATM   17  C   UNL     1      -8.824  11.416  66.113  1.00  0.00    -0.186 C  
HETATM   18  H   UNL     1      -9.650  11.005  69.375  1.00  0.00     0.000 HD 
HETATM   19  C   UNL     1      -8.098  10.570  65.054  1.00  0.00    -0.096 C  
HETATM   20  C   UNL     1      -7.557   9.258  65.594  1.00  0.00    -0.094 C  
HETATM   21  C   UNL     1      -8.586   8.443  66.318  1.00  0.00    -0.149 C  
HETATM   22  C   UNL     1      -8.680   7.114  66.144  1.00  0.00    -0.164 C  
HETATM   23  C   UNL     1      -9.554   6.503  67.154  1.00  0.00    -0.136 C  
HETATM   24  O   UNL     1      -9.150   5.747  68.028  1.00  0.00    -0.112 OA 
ENDROOT
BRANCH   4  25
HETATM   25  C   UNL     1     -10.298  14.531  68.469  1.00  0.00    -0.242 C  
HETATM   26  O   UNL     1      -9.698  14.508  69.556  1.00  0.00     0.021 OA 
BRANCH  25  27
HETATM   27  C   UNL     1     -11.579  15.454  68.518  1.00  0.00    -0.373 C  
HETATM   28  C   UNL     1     -12.126  15.591  69.976  1.00  0.00    -0.391 C  
ENDBRANCH  25  27
ENDBRANCH   4  25
TORSDOF 2
ENDMDL
MODEL       31
REMARK 921   NORMALIZED FREE ENERGY PREDICTED BY IDOCK:   -4.83 KCAL/MOL
REMARK 922        TOTAL FREE ENERGY PREDICTED BY IDOCK:   -4.34 KCAL/MOL
REMARK 923 INTER-LIGAND FREE ENERGY PREDICTED BY IDOCK:   -5.37 KCAL/MOL
REMARK 924 INTRA-LIGAND FREE ENERGY PREDICTED BY IDOCK:    1.04 KCAL/MOL
REMARK 927      BINDING AFFINITY PREDICTED BY RF-SCORE:    0.00 PKD
ROOT
HETATM    1  C   UNL     1      -8.723   5.870  71.452  1.00  0.00    -0.133 C  
HETATM    2  C   UNL     1      -7.471   6.480  71.587  1.00  0.00    -0.089 C  
HETATM    3  C   UNL     1      -8.523   7.255  70.890  1.00  0.00    -0.128 C  
HETATM    4  C   UNL     1     -10.459   6.515  71.205  1.00  0.00    -0.257 C  
HETATM    5  C   UNL     1      -7.267   8.358  70.452  1.00  0.00    -0.037 C  
HETATM    6  C   UNL     1     -10.485   4.975  66.940  1.00  0.00    -0.243 C  
HETATM    7  C   UNL     1     -10.824   5.189  72.198  1.00  0.00    -0.218 C  
HETATM    8  C   UNL     1      -9.715   7.493  71.806  1.00  0.00    -0.187 C  
HETATM    9  C   UNL     1      -9.687   7.927  73.248  1.00  0.00    -0.352 C  
HETATM   10  C   UNL     1     -10.330   8.483  70.341  1.00  0.00    -0.222 C  
HETATM   11  C   UNL     1      -9.181   5.764  67.120  1.00  0.00    -0.115 C  
HETATM   12  C   UNL     1      -8.877   6.982  66.092  1.00  0.00    -0.165 C  
HETATM   13  C   UNL     1      -7.897   7.068  65.182  1.00  0.00    -0.124 C  
HETATM   14  C   UNL     1     -10.382   7.494  68.885  1.00  0.00    -0.211 C  
HETATM   15  C   UNL     1      -9.162   6.367  68.557  1.00  0.00    -0.124 C  
HETATM   16  O   UNL     1     -11.653   6.832  68.884  1.00  0.00    -0.574 OA 
HETATM   17  C   UNL     1      -8.922   5.237  69.759  1.00  0.00    -0.138 C  
HETATM   18  H   UNL     1     -11.681   6.299  68.099  1.00  0.00     0.000 HD 
HETATM   19  C   UNL     1      -7.717   4.344  69.417  1.00  0.00    -0.054 C  
HETATM   20  C   UNL     1      -7.793   3.729  68.031  1.00  0.00    -0.073 C  
HETATM   21  C   UNL     1      -8.039   4.735  66.947  1.00  0.00    -0.107 C  
HETATM   22  C   UNL     1      -7.376   4.686  65.779  1.00  0.00    -0.077 C  
HETATM   23  C   UNL     1      -7.980   5.582  64.784  1.00  0.00    -0.113 C  
HETATM   24  O   UNL     1      -8.552   5.185  63.778  1.00  0.00    -0.136 OA 
ENDROOT
BRANCH   4  25
HETATM   25  C   UNL     1     -12.075   7.199  71.664  1.00  0.00    -0.336 C  
HETATM   26  O   UNL     1     -13.135   6.749  71.199  1.00  0.00    -0.249 OA 
BRANCH  25  27
HETATM   27  C   UNL     1     -12.310   8.509  72.516  1.00  0.00    -0.372 C  
HETATM   28  C   UNL     1     -13.774   9.035  72.360  1.00  0.00    -0.539 C  
ENDBRANCH  25  27
ENDBRANCH   4  25
TORSDOF 2
ENDMDL
MODEL       32
REMARK 921   NORMALIZED FREE ENERGY PREDICTED BY IDOCK:   -4.66 KCAL/MOL
REMARK 922        TOTAL FREE ENERGY PREDICTED BY IDOCK:   -4.15 KCAL/MOL
REMARK 923 INTER-LIGAND FREE ENERGY PREDICTED BY IDOCK:   -5.39 KCAL/MOL
REMARK 924 INTRA-LIGAND FREE ENERGY PREDICTED BY IDOCK:    1.25 KCAL/MOL
REMARK 927      BINDING AFFINITY PREDICTED BY RF-SCORE:    0.00 PKD
ROOT
HETATM    1  C   UNL     1      -7.310  10.897  67.769  1.00  0.00    -0.093 C  
HETATM    2  C   UNL     1      -7.734  10.452  69.027  1.00  0.00    -0.116 C  
HETATM    3  C   UNL     1      -8.773  10.596  67.981  1.00  0.00    -0.126 C  
HETATM    4  C   UNL     1      -7.996  10.736  66.039  1.00  0.00    -0.154 C  
HETATM    5  C   UNL     1      -9.925  10.354  69.246  1.00  0.00    -0.246 C  
HETATM    6  C   UNL     1      -9.085  15.138  65.999  1.00  0.00    -0.196 C  
HETATM    7  C   UNL     1      -6.344  10.646  65.663  1.00  0.00    -0.103 C  
HETATM    8  C   UNL     1      -8.470   9.697  66.791  1.00  0.00    -0.129 C  
HETATM    9  C   UNL     1      -8.030   8.257  66.823  1.00  0.00    -0.099 C  
HETATM   10  C   UNL     1     -10.111  10.361  66.184  1.00  0.00    -0.299 C  
HETATM   11  C   UNL     1      -9.633  14.555  67.309  1.00  0.00    -0.226 C  
HETATM   12  C   UNL     1     -11.215  14.735  67.623  1.00  0.00    -0.332 C  
HETATM   13  C   UNL     1     -11.785  15.449  68.604  1.00  0.00    -0.371 C  
HETATM   14  C   UNL     1     -10.098  12.121  66.123  1.00  0.00    -0.228 C  
HETATM   15  C   UNL     1      -9.336  13.026  67.334  1.00  0.00    -0.209 C  
HETATM   16  O   UNL     1      -9.556  12.484  64.847  1.00  0.00    -0.472 OA 
HETATM   17  C   UNL     1      -7.726  12.656  67.565  1.00  0.00    -0.161 C  
HETATM   18  H   UNL     1      -9.550  13.432  64.814  1.00  0.00     0.000 HD 
HETATM   19  C   UNL     1      -7.165  13.442  68.762  1.00  0.00    -0.092 C  
HETATM   20  C   UNL     1      -7.426  14.936  68.681  1.00  0.00    -0.124 C  
HETATM   21  C   UNL     1      -8.865  15.277  68.442  1.00  0.00    -0.179 C  
HETATM   22  C   UNL     1      -9.470  16.279  69.105  1.00  0.00    -0.246 C  
HETATM   23  C   UNL     1     -10.771  16.605  68.508  1.00  0.00    -0.351 C  
HETATM   24  O   UNL     1     -11.004  17.660  67.932  1.00  0.00    -0.316 OA 
ENDROOT
BRANCH   4  25
HETATM   25  C   UNL     1      -8.321   9.966  64.429  1.00  0.00    -0.168 C  
HETATM   26  O   UNL     1      -8.652  10.635  63.436  1.00  0.00    -0.173 OA 
BRANCH  25  27
HETATM   27  C   UNL     1      -8.408   8.413  64.154  1.00  0.00    -0.081 C  
HETATM   28  C   UNL     1      -8.309   8.098  62.626  1.00  0.00    -0.102 C  
ENDBRANCH  25  27
ENDBRANCH   4  25
TORSDOF 2
ENDMDL
MODEL       33
REMARK 921   NORMALIZED FREE ENERGY PREDICTED BY IDOCK:   -4.62 KCAL/MOL
REMARK 922        TOTAL FREE ENERGY PREDICTED BY IDOCK:   -4.10 KCAL/MOL
REMARK 923 INTER-LIGAND FREE ENERGY PREDICTED BY IDOCK:   -5.12 KCAL/MOL
REMARK 924 INTRA-LIGAND FREE ENERGY PREDICTED BY IDOCK:    1.02 KCAL/MOL
REMARK 927      BINDING AFFINITY PREDICTED BY RF-SCORE:    0.00 PKD
ROOT
HETATM    1  C   UNL     1     -10.452  15.141  67.094  1.00  0.00    -0.280 C  
HETATM    2  C   UNL     1     -11.559  14.843  67.897  1.00  0.00    -0.364 C  
HETATM    3  C   UNL     1     -10.258  15.011  68.585  1.00  0.00    -0.231 C  
HETATM    4  C   UNL     1      -8.806  15.965  67.412  1.00  0.00    -0.201 C  
HETATM    5  C   UNL     1     -11.046  14.393  69.992  1.00  0.00    -0.125 C  
HETATM    6  C   UNL     1      -6.666  11.992  66.962  1.00  0.00    -0.099 C  
HETATM    7  C   UNL     1      -9.078  16.546  65.841  1.00  0.00    -0.188 C  
HETATM    8  C   UNL     1      -9.699  16.407  68.349  1.00  0.00    -0.229 C  
HETATM    9  C   UNL     1     -10.444  17.714  68.423  1.00  0.00    -0.360 C  
HETATM   10  C   UNL     1      -8.365  15.802  69.513  1.00  0.00    -0.135 C  
HETATM   11  C   UNL     1      -7.831  11.763  67.935  1.00  0.00    -0.135 C  
HETATM   12  C   UNL     1      -7.494  11.149  69.398  1.00  0.00    -0.029 C  
HETATM   13  C   UNL     1      -7.857   9.959  69.896  1.00  0.00    -0.182 C  
HETATM   14  C   UNL     1      -7.622  14.323  68.911  1.00  0.00    -0.113 C  
HETATM   15  C   UNL     1      -8.556  13.122  68.168  1.00  0.00    -0.181 C  
HETATM   16  O   UNL     1      -6.571  14.724  68.022  1.00  0.00    -0.117 OA 
HETATM   17  C   UNL     1      -9.442  13.647  66.857  1.00  0.00    -0.263 C  
HETATM   18  H   UNL     1      -6.170  13.927  67.698  1.00  0.00     0.000 HD 
HETATM   19  C   UNL     1     -10.344  12.515  66.336  1.00  0.00    -0.261 C  
HETATM   20  C   UNL     1      -9.597  11.220  66.069  1.00  0.00    -0.245 C  
HETATM   21  C   UNL     1      -8.773  10.757  67.231  1.00  0.00    -0.130 C  
HETATM   22  C   UNL     1      -8.739   9.465  67.599  1.00  0.00    -0.116 C  
HETATM   23  C   UNL     1      -7.661   9.212  68.564  1.00  0.00    -0.093 C  
HETATM   24  O   UNL     1      -6.674   8.534  68.310  1.00  0.00    -0.062 OA 
ENDROOT
BRANCH   4  25
HETATM   25  C   UNL     1      -7.625  17.326  67.622  1.00  0.00    -0.179 C  
HETATM   26  O   UNL     1      -6.481  17.283  67.140  1.00  0.00    -0.142 OA 
BRANCH  25  27
HETATM   27  C   UNL     1      -7.827  18.581  68.560  1.00  0.00    -0.341 C  
HETATM   28  C   UNL     1      -6.881  19.756  68.149  1.00  0.00    -0.319 C  
ENDBRANCH  25  27
ENDBRANCH   4  25
TORSDOF 2
ENDMDL
MODEL       34
REMARK 921   NORMALIZED FREE ENERGY PREDICTED BY IDOCK:   -4.61 KCAL/MOL
REMARK 922        TOTAL FREE ENERGY PREDICTED BY IDOCK:   -4.10 KCAL/MOL
REMARK 923 INTER-LIGAND FREE ENERGY PREDICTED BY IDOCK:   -5.09 KCAL/MOL
REMARK 924 INTRA-LIGAND FREE ENERGY PREDICTED BY IDOCK:    1.00 KCAL/MOL
REMARK 927      BINDING AFFINITY PREDICTED BY RF-SCORE:    0.00 PKD
ROOT
HETATM    1  C   UNL     1      -7.354   7.219  70.249  1.00  0.00    -0.082 C  
HETATM    2  C   UNL     1      -7.174   7.988  71.404  1.00  0.00    -0.068 C  
HETATM    3  C   UNL     1      -8.534   7.456  71.158  1.00  0.00    -0.118 C  
HETATM    4  C   UNL     1      -8.588   5.911  69.744  1.00  0.00    -0.129 C  
HETATM    5  C   UNL     1      -9.051   8.484  72.448  1.00  0.00    -0.308 C  
HETATM    6  C   UNL     1     -10.505   8.774  66.796  1.00  0.00    -0.283 C  
HETATM    7  C   UNL     1      -7.217   5.274  68.973  1.00  0.00    -0.061 C  
HETATM    8  C   UNL     1      -8.518   5.935  71.109  1.00  0.00    -0.124 C  
HETATM    9  C   UNL     1      -7.807   4.997  72.050  1.00  0.00    -0.110 C  
HETATM   10  C   UNL     1     -10.366   6.166  70.929  1.00  0.00    -0.267 C  
HETATM   11  C   UNL     1     -10.388   9.522  68.132  1.00  0.00    -0.251 C  
HETATM   12  C   UNL     1     -11.737  10.153  68.775  1.00  0.00     0.075 C  
HETATM   13  C   UNL     1     -12.035  11.447  68.961  1.00  0.00    -0.387 C  
HETATM   14  C   UNL     1     -10.745   7.197  69.553  1.00  0.00    -0.239 C  
HETATM   15  C   UNL     1      -9.791   8.549  69.193  1.00  0.00    -0.186 C  
HETATM   16  O   UNL     1     -10.808   6.342  68.405  1.00  0.00    -0.263 OA 
HETATM   17  C   UNL     1      -8.174   8.215  68.966  1.00  0.00    -0.127 C  
HETATM   18  H   UNL     1     -11.012   6.898  67.663  1.00  0.00     0.000 HD 
HETATM   19  C   UNL     1      -7.383   9.519  68.769  1.00  0.00    -0.074 C  
HETATM   20  C   UNL     1      -7.960  10.420  67.691  1.00  0.00    -0.106 C  
HETATM   21  C   UNL     1      -9.421  10.701  67.870  1.00  0.00    -0.168 C  
HETATM   22  C   UNL     1      -9.928  11.932  67.686  1.00  0.00    -0.197 C  
HETATM   23  C   UNL     1     -11.396  11.904  67.637  1.00  0.00    -0.304 C  
HETATM   24  O   UNL     1     -12.041  12.149  66.626  1.00  0.00    -0.622 OA 
ENDROOT
BRANCH   4  25
HETATM   25  C   UNL     1      -9.323   4.256  69.622  1.00  0.00    -0.165 C  
HETATM   26  O   UNL     1      -9.769   3.813  68.552  1.00  0.00    -0.132 OA 
BRANCH  25  27
HETATM   27  C   UNL     1      -9.647   3.303  70.840  1.00  0.00    -0.234 C  
HETATM   28  C   UNL     1      -9.257   1.823  70.524  1.00  0.00    -0.166 C  
ENDBRANCH  25  27
ENDBRANCH   4  25
TORSDOF 2
ENDMDL
MODEL       35
REMARK 921   NORMALIZED FREE ENERGY PREDICTED BY IDOCK:   -4.59 KCAL/MOL
REMARK 922        TOTAL FREE ENERGY PREDICTED BY IDOCK:   -4.07 KCAL/MOL
REMARK 923 INTER-LIGAND FREE ENERGY PREDICTED BY IDOCK:   -5.33 KCAL/MOL
REMARK 924 INTRA-LIGAND FREE ENERGY PREDICTED BY IDOCK:    1.26 KCAL/MOL
REMARK 927      BINDING AFFINITY PREDICTED BY RF-SCORE:    0.00 PKD
ROOT
HETATM    1  C   UNL     1      -9.399  10.555  67.939  1.00  0.00    -0.150 C  
HETATM    2  C   UNL     1      -8.654  11.386  68.783  1.00  0.00    -0.085 C  
HETATM    3  C   UNL     1      -8.111  10.032  68.524  1.00  0.00    -0.103 C  
HETATM    4  C   UNL     1      -8.978   9.082  66.869  1.00  0.00    -0.144 C  
HETATM    5  C   UNL     1      -6.974  10.367  69.782  1.00  0.00    -0.138 C  
HETATM    6  C   UNL     1     -11.187   6.319  69.707  1.00  0.00    -0.499 C  
HETATM    7  C   UNL     1     -10.155   9.788  65.872  1.00  0.00    -0.314 C  
HETATM    8  C   UNL     1      -7.846   9.831  67.039  1.00  0.00    -0.102 C  
HETATM    9  C   UNL     1      -7.183  10.795  66.090  1.00  0.00    -0.126 C  
HETATM   10  C   UNL     1      -7.174   8.189  67.632  1.00  0.00    -0.092 C  
HETATM   11  C   UNL     1     -10.253   7.184  70.564  1.00  0.00    -0.206 C  
HETATM   12  C   UNL     1      -9.194   6.432  71.537  1.00  0.00    -0.145 C  
HETATM   13  C   UNL     1      -9.161   6.433  72.877  1.00  0.00    -0.132 C  
HETATM   14  C   UNL     1      -8.386   7.302  68.550  1.00  0.00    -0.125 C  
HETATM   15  C   UNL     1      -9.425   8.106  69.619  1.00  0.00    -0.159 C  
HETATM   16  O   UNL     1      -9.164   6.564  67.599  1.00  0.00    -0.116 OA 
HETATM   17  C   UNL     1     -10.315   9.334  68.927  1.00  0.00    -0.231 C  
HETATM   18  H   UNL     1      -9.817   6.086  68.094  1.00  0.00     0.000 HD 
HETATM   19  C   UNL     1     -11.128  10.074  70.003  1.00  0.00    -0.350 C  
HETATM   20  C   UNL     1     -11.964   9.152  70.872  1.00  0.00    -0.299 C  
HETATM   21  C   UNL     1     -11.178   8.027  71.474  1.00  0.00    -0.296 C  
HETATM   22  C   UNL     1     -11.350   7.654  72.754  1.00  0.00    -0.419 C  
HETATM   23  C   UNL     1     -10.692   6.371  73.030  1.00  0.00    -0.259 C  
HETATM   24  O   UNL     1     -11.303   5.341  73.285  1.00  0.00    -0.308 OA 
ENDROOT
BRANCH   4  25
HETATM   25  C   UNL     1      -8.392   8.186  65.405  1.00  0.00    -0.155 C  
HETATM   26  O   UNL     1      -8.634   6.980  65.233  1.00  0.00    -0.099 OA 
BRANCH  25  27
HETATM   27  C   UNL     1      -7.390   8.750  64.322  1.00  0.00    -0.103 C  
HETATM   28  C   UNL     1      -8.056   8.812  62.908  1.00  0.00    -0.174 C  
ENDBRANCH  25  27
ENDBRANCH   4  25
TORSDOF 2
ENDMDL
MODEL       36
REMARK 921   NORMALIZED FREE ENERGY PREDICTED BY IDOCK:   -4.54 KCAL/MOL
REMARK 922        TOTAL FREE ENERGY PREDICTED BY IDOCK:   -4.01 KCAL/MOL
REMARK 923 INTER-LIGAND FREE ENERGY PREDICTED BY IDOCK:   -5.64 KCAL/MOL
REMARK 924 INTRA-LIGAND FREE ENERGY PREDICTED BY IDOCK:    1.63 KCAL/MOL
REMARK 927      BINDING AFFINITY PREDICTED BY RF-SCORE:    0.00 PKD
ROOT
HETATM    1  C   UNL     1      -8.259   9.528  70.397  1.00  0.00    -0.220 C  
HETATM    2  C   UNL     1      -6.920   9.175  70.603  1.00  0.00    -0.090 C  
HETATM    3  C   UNL     1      -7.706   8.320  69.683  1.00  0.00    -0.100 C  
HETATM    4  C   UNL     1      -9.486   9.208  69.025  1.00  0.00    -0.152 C  
HETATM    5  C   UNL     1      -6.367   7.228  69.731  1.00  0.00    -0.035 C  
HETATM    6  C   UNL     1     -11.804   6.361  71.687  1.00  0.00    -0.361 C  
HETATM    7  C   UNL     1      -9.984  10.774  69.447  1.00  0.00    -0.137 C  
HETATM    8  C   UNL     1      -8.224   9.129  68.504  1.00  0.00    -0.115 C  
HETATM    9  C   UNL     1      -7.463  10.134  67.679  1.00  0.00    -0.090 C  
HETATM   10  C   UNL     1      -8.851   7.456  67.947  1.00  0.00    -0.132 C  
HETATM   11  C   UNL     1     -10.328   5.949  71.773  1.00  0.00    -0.263 C  
HETATM   12  C   UNL     1      -9.941   4.416  71.410  1.00  0.00    -0.248 C  
HETATM   13  C   UNL     1      -9.451   3.473  72.228  1.00  0.00    -0.183 C  
HETATM   14  C   UNL     1      -9.880   6.725  69.175  1.00  0.00    -0.157 C  
HETATM   15  C   UNL     1      -9.502   6.864  70.819  1.00  0.00    -0.165 C  
HETATM   16  O   UNL     1     -11.206   7.221  68.949  1.00  0.00    -0.449 OA 
HETATM   17  C   UNL     1      -9.342   8.432  71.363  1.00  0.00    -0.247 C  
HETATM   18  H   UNL     1     -11.760   6.827  69.611  1.00  0.00     0.000 HD 
HETATM   19  C   UNL     1      -8.880   8.443  72.830  1.00  0.00    -0.276 C  
HETATM   20  C   UNL     1      -9.737   7.584  73.741  1.00  0.00    -0.303 C  
HETATM   21  C   UNL     1      -9.912   6.181  73.245  1.00  0.00    -0.188 C  
HETATM   22  C   UNL     1      -9.838   5.127  74.076  1.00  0.00    -0.182 C  
HETATM   23  C   UNL     1     -10.318   3.900  73.427  1.00  0.00    -0.162 C  
HETATM   24  O   UNL     1     -11.342   3.317  73.760  1.00  0.00    -0.198 OA 
ENDROOT
BRANCH   4  25
HETATM   25  C   UNL     1     -10.331   9.456  67.438  1.00  0.00    -0.263 C  
HETATM   26  O   UNL     1     -10.519   8.521  66.642  1.00  0.00    -0.289 OA 
BRANCH  25  27
HETATM   27  C   UNL     1     -10.734  10.853  66.821  1.00  0.00    -0.309 C  
HETATM   28  C   UNL     1     -10.274  10.971  65.331  1.00  0.00    -0.333 C  
ENDBRANCH  25  27
ENDBRANCH   4  25
TORSDOF 2
ENDMDL
MODEL       37
REMARK 921   NORMALIZED FREE ENERGY PREDICTED BY IDOCK:   -4.51 KCAL/MOL
REMARK 922        TOTAL FREE ENERGY PREDICTED BY IDOCK:   -3.99 KCAL/MOL
REMARK 923 INTER-LIGAND FREE ENERGY PREDICTED BY IDOCK:   -5.11 KCAL/MOL
REMARK 924 INTRA-LIGAND FREE ENERGY PREDICTED BY IDOCK:    1.13 KCAL/MOL
REMARK 927      BINDING AFFINITY PREDICTED BY RF-SCORE:    0.00 PKD
ROOT
HETATM    1  C   UNL     1      -8.525  13.223  67.510  1.00  0.00    -0.202 C  
HETATM    2  C   UNL     1      -7.742  12.549  68.453  1.00  0.00    -0.136 C  
HETATM    3  C   UNL     1      -9.070  11.969  68.147  1.00  0.00    -0.191 C  
HETATM    4  C   UNL     1      -9.922  12.708  66.381  1.00  0.00    -0.262 C  
HETATM    5  C   UNL     1      -8.804  10.926  69.498  1.00  0.00     0.238 C  
HETATM    6  C   UNL     1     -12.886  15.060  68.881  1.00  0.00     0.770 C  
HETATM    7  C   UNL     1      -9.167  13.826  65.352  1.00  0.00     0.698 C  
HETATM    8  C   UNL     1      -9.172  11.602  66.674  1.00  0.00    -0.196 C  
HETATM    9  C   UNL     1      -8.143  10.892  65.835  1.00  0.00    -0.120 C  
HETATM   10  C   UNL     1     -10.842  10.946  67.207  1.00  0.00    -0.342 C  
HETATM   11  C   UNL     1     -12.067  14.199  69.853  1.00  0.00    -0.405 C  
HETATM   12  C   UNL     1     -12.868  13.197  70.846  1.00  0.00    -0.237 C  
HETATM   13  C   UNL     1     -12.953  13.254  72.183  1.00  0.00    -0.395 C  
HETATM   14  C   UNL     1     -11.799  12.203  67.983  1.00  0.00    -0.285 C  
HETATM   15  C   UNL     1     -11.077  13.324  69.026  1.00  0.00    -0.291 C  
HETATM   16  O   UNL     1     -12.484  12.903  66.936  1.00  0.00    -0.308 OA 
HETATM   17  C   UNL     1      -9.818  14.185  68.354  1.00  0.00    -0.231 C  
HETATM   18  H   UNL     1     -13.000  13.581  67.354  1.00  0.00     0.000 HD 
HETATM   19  C   UNL     1      -9.157  15.080  69.417  1.00  0.00    -0.118 C  
HETATM   20  C   UNL     1     -10.143  15.958  70.167  1.00  0.00    -0.019 C  
HETATM   21  C   UNL     1     -11.295  15.197  70.748  1.00  0.00    -0.341 C  
HETATM   22  C   UNL     1     -11.750  15.448  71.988  1.00  0.00    -0.538 C  
HETATM   23  C   UNL     1     -13.042  14.791  72.226  1.00  0.00    -0.356 C  
HETATM   24  O   UNL     1     -14.093  15.401  72.374  1.00  0.00    -0.528 OA 
ENDROOT
BRANCH   4  25
HETATM   25  C   UNL     1     -10.716  12.011  64.906  1.00  0.00    -0.301 C  
HETATM   26  O   UNL     1     -11.787  12.458  64.464  1.00  0.00    -0.350 OA 
BRANCH  25  27
HETATM   27  C   UNL     1     -10.268  10.694  64.157  1.00  0.00    -0.365 C  
HETATM   28  C   UNL     1      -9.704  11.013  62.734  1.00  0.00    -0.303 C  
ENDBRANCH  25  27
ENDBRANCH   4  25
TORSDOF 2
ENDMDL
MODEL       38
REMARK 921   NORMALIZED FREE ENERGY PREDICTED BY IDOCK:   -4.50 KCAL/MOL
REMARK 922        TOTAL FREE ENERGY PREDICTED BY IDOCK:   -3.97 KCAL/MOL
REMARK 923 INTER-LIGAND FREE ENERGY PREDICTED BY IDOCK:   -5.00 KCAL/MOL
REMARK 924 INTRA-LIGAND FREE ENERGY PREDICTED BY IDOCK:    1.03 KCAL/MOL
REMARK 927      BINDING AFFINITY PREDICTED BY RF-SCORE:    0.00 PKD
ROOT
HETATM    1  C   UNL     1     -10.863  10.612  67.825  1.00  0.00    -0.338 C  
HETATM    2  C   UNL     1     -10.495  10.337  69.147  1.00  0.00    -0.246 C  
HETATM    3  C   UNL     1      -9.461  10.940  68.274  1.00  0.00    -0.168 C  
HETATM    4  C   UNL     1     -10.234  11.796  66.525  1.00  0.00    -0.240 C  
HETATM    5  C   UNL     1      -8.342  10.594  69.545  1.00  0.00    -0.013 C  
HETATM    6  C   UNL     1      -8.483   8.352  64.151  1.00  0.00    -0.018 C  
HETATM    7  C   UNL     1     -11.886  11.855  66.140  1.00  0.00    -0.108 C  
HETATM    8  C   UNL     1      -9.915  12.297  67.757  1.00  0.00    -0.200 C  
HETATM    9  C   UNL     1     -10.571  13.402  68.542  1.00  0.00    -0.264 C  
HETATM   10  C   UNL     1      -8.200  12.310  67.007  1.00  0.00    -0.155 C  
HETATM   11  C   UNL     1      -8.013   8.178  65.603  1.00  0.00    -0.108 C  
HETATM   12  C   UNL     1      -6.418   8.070  65.881  1.00  0.00    -0.045 C  
HETATM   13  C   UNL     1      -5.731   7.018  66.347  1.00  0.00    -0.030 C  
HETATM   14  C   UNL     1      -7.943  10.897  65.988  1.00  0.00    -0.132 C  
HETATM   15  C   UNL     1      -8.541   9.380  66.442  1.00  0.00    -0.144 C  
HETATM   16  O   UNL     1      -8.441  11.234  64.687  1.00  0.00    -0.359 OA 
HETATM   17  C   UNL     1     -10.184   9.337  66.719  1.00  0.00    -0.325 C  
HETATM   18  H   UNL     1      -8.302  10.472  64.138  1.00  0.00     0.000 HD 
HETATM   19  C   UNL     1     -10.601   7.952  67.241  1.00  0.00    -0.365 C  
HETATM   20  C   UNL     1     -10.116   6.806  66.372  1.00  0.00    -0.048 C  
HETATM   21  C   UNL     1      -8.644   6.853  66.092  1.00  0.00    -0.147 C  
HETATM   22  C   UNL     1      -7.884   5.745  66.137  1.00  0.00    -0.101 C  
HETATM   23  C   UNL     1      -6.556   5.984  65.557  1.00  0.00    -0.044 C  
HETATM   24  O   UNL     1      -6.173   5.469  64.515  1.00  0.00    -0.022 OA 
ENDROOT
BRANCH   4  25
HETATM   25  C   UNL     1     -10.054  13.365  65.632  1.00  0.00    -0.274 C  
HETATM   26  O   UNL     1     -10.112  13.426  64.392  1.00  0.00    -0.341 OA 
BRANCH  25  27
HETATM   27  C   UNL     1      -9.630  14.745  66.274  1.00  0.00    -0.339 C  
HETATM   28  C   UNL     1     -10.326  15.946  65.555  1.00  0.00    -0.425 C  
ENDBRANCH  25  27
ENDBRANCH   4  25
TORSDOF 2
ENDMDL
MODEL       39
REMARK 921   NORMALIZED FREE ENERGY PREDICTED BY IDOCK:   -4.48 KCAL/MOL
REMARK 922        TOTAL FREE ENERGY PREDICTED BY IDOCK:   -3.95 KCAL/MOL
REMARK 923 INTER-LIGAND FREE ENERGY PREDICTED BY IDOCK:   -5.41 KCAL/MOL
REMARK 924 INTRA-LIGAND FREE ENERGY PREDICTED BY IDOCK:    1.45 KCAL/MOL
REMARK 927      BINDING AFFINITY PREDICTED BY RF-SCORE:    0.00 PKD
ROOT
HETATM    1  C   UNL     1      -8.348   6.358  70.745  1.00  0.00    -0.126 C  
HETATM    2  C   UNL     1      -7.045   6.751  71.070  1.00  0.00    -0.072 C  
HETATM    3  C   UNL     1      -8.077   7.814  71.034  1.00  0.00    -0.098 C  
HETATM    4  C   UNL     1     -10.039   7.080  71.077  1.00  0.00    -0.206 C  
HETATM    5  C   UNL     1      -6.769   8.936  71.162  1.00  0.00    -0.081 C  
HETATM    6  C   UNL     1     -10.477   8.208  66.706  1.00  0.00    -0.316 C  
HETATM    7  C   UNL     1     -10.442   5.436  71.192  1.00  0.00    -0.295 C  
HETATM    8  C   UNL     1      -9.181   7.529  72.042  1.00  0.00    -0.163 C  
HETATM    9  C   UNL     1      -9.021   7.075  73.470  1.00  0.00    -0.178 C  
HETATM   10  C   UNL     1      -9.812   9.188  71.450  1.00  0.00    -0.354 C  
HETATM   11  C   UNL     1      -9.105   8.722  67.164  1.00  0.00    -0.155 C  
HETATM   12  C   UNL     1      -8.775  10.298  66.965  1.00  0.00    -0.133 C  
HETATM   13  C   UNL     1      -7.855  10.853  66.164  1.00  0.00    -0.144 C  
HETATM   14  C   UNL     1     -10.041   9.192  69.704  1.00  0.00    -0.198 C  
HETATM   15  C   UNL     1      -8.941   8.411  68.682  1.00  0.00    -0.140 C  
HETATM   16  O   UNL     1     -11.359   8.681  69.462  1.00  0.00    -0.441 OA 
HETATM   17  C   UNL     1      -8.711   6.794  69.017  1.00  0.00    -0.130 C  
HETATM   18  H   UNL     1     -11.482   8.683  68.521  1.00  0.00     0.000 HD 
HETATM   19  C   UNL     1      -7.608   6.214  68.116  1.00  0.00    -0.098 C  
HETATM   20  C   UNL     1      -7.826   6.489  66.639  1.00  0.00    -0.104 C  
HETATM   21  C   UNL     1      -8.064   7.936  66.331  1.00  0.00    -0.108 C  
HETATM   22  C   UNL     1      -7.487   8.535  65.275  1.00  0.00    -0.086 C  
HETATM   23  C   UNL     1      -8.083   9.852  65.016  1.00  0.00    -0.140 C  
HETATM   24  O   UNL     1      -8.753  10.106  64.023  1.00  0.00    -0.179 OA 
ENDROOT
BRANCH   4  25
HETATM   25  C   UNL     1     -11.561   7.433  72.000  1.00  0.00    -0.284 C  
HETATM   26  O   UNL     1     -11.538   7.869  73.162  1.00  0.00    -0.292 OA 
BRANCH  25  27
HETATM   27  C   UNL     1     -13.025   7.062  71.534  1.00  0.00    -0.411 C  
HETATM   28  C   UNL     1     -14.003   8.267  71.721  1.00  0.00    -0.476 C  
ENDBRANCH  25  27
ENDBRANCH   4  25
TORSDOF 2
ENDMDL
MODEL       40
REMARK 921   NORMALIZED FREE ENERGY PREDICTED BY IDOCK:   -4.47 KCAL/MOL
REMARK 922        TOTAL FREE ENERGY PREDICTED BY IDOCK:   -3.94 KCAL/MOL
REMARK 923 INTER-LIGAND FREE ENERGY PREDICTED BY IDOCK:   -5.87 KCAL/MOL
REMARK 924 INTRA-LIGAND FREE ENERGY PREDICTED BY IDOCK:    1.94 KCAL/MOL
REMARK 927      BINDING AFFINITY PREDICTED BY RF-SCORE:    0.00 PKD
ROOT
HETATM    1  C   UNL     1     -10.611   5.916  70.499  1.00  0.00    -0.342 C  
HETATM    2  C   UNL     1      -9.540   5.125  70.930  1.00  0.00    -0.235 C  
HETATM    3  C   UNL     1      -9.322   6.590  70.899  1.00  0.00    -0.165 C  
HETATM    4  C   UNL     1     -11.095   7.700  70.769  1.00  0.00    -0.276 C  
HETATM    5  C   UNL     1      -7.654   6.238  71.182  1.00  0.00    -0.094 C  
HETATM    6  C   UNL     1     -10.074   8.689  66.462  1.00  0.00    -0.339 C  
HETATM    7  C   UNL     1     -12.649   7.019  70.751  1.00  0.00    -0.195 C  
HETATM    8  C   UNL     1     -10.307   7.302  71.814  1.00  0.00    -0.215 C  
HETATM    9  C   UNL     1     -10.698   6.914  73.216  1.00  0.00    -0.349 C  
HETATM   10  C   UNL     1      -9.325   8.807  71.293  1.00  0.00    -0.319 C  
HETATM   11  C   UNL     1      -8.877   7.919  67.039  1.00  0.00    -0.140 C  
HETATM   12  C   UNL     1      -7.414   8.615  66.965  1.00  0.00    -0.084 C  
HETATM   13  C   UNL     1      -6.345   8.215  66.261  1.00  0.00    -0.046 C  
HETATM   14  C   UNL     1      -9.303   8.974  69.540  1.00  0.00    -0.160 C  
HETATM   15  C   UNL     1      -9.161   7.615  68.541  1.00  0.00    -0.131 C  
HETATM   16  O   UNL     1     -10.483   9.705  69.182  1.00  0.00    -0.200 OA 
HETATM   17  C   UNL     1     -10.330   6.452  68.783  1.00  0.00    -0.232 C  
HETATM   18  H   UNL     1     -10.471   9.794  68.237  1.00  0.00     0.000 HD 
HETATM   19  C   UNL     1     -10.038   5.214  67.918  1.00  0.00    -0.193 C  
HETATM   20  C   UNL     1      -9.820   5.539  66.451  1.00  0.00    -0.192 C  
HETATM   21  C   UNL     1      -8.792   6.606  66.224  1.00  0.00    -0.156 C  
HETATM   22  C   UNL     1      -7.874   6.503  65.247  1.00  0.00    -0.109 C  
HETATM   23  C   UNL     1      -7.171   7.775  65.038  1.00  0.00    -0.065 C  
HETATM   24  O   UNL     1      -7.286   8.450  64.024  1.00  0.00    -0.096 OA 
ENDROOT
BRANCH   4  25
HETATM   25  C   UNL     1     -11.822   9.131  71.615  1.00  0.00    -0.372 C  
HETATM   26  O   UNL     1     -12.313   9.042  72.752  1.00  0.00    -0.196 OA 
BRANCH  25  27
HETATM   27  C   UNL     1     -12.082  10.548  70.966  1.00  0.00    -0.492 C  
HETATM   28  C   UNL     1     -13.195  11.331  71.736  1.00  0.00    -0.480 C  
ENDBRANCH  25  27
ENDBRANCH   4  25
TORSDOF 2
ENDMDL
MODEL       41
REMARK 921   NORMALIZED FREE ENERGY PREDICTED BY IDOCK:   -4.43 KCAL/MOL
REMARK 922        TOTAL FREE ENERGY PREDICTED BY IDOCK:   -3.89 KCAL/MOL
REMARK 923 INTER-LIGAND FREE ENERGY PREDICTED BY IDOCK:   -4.91 KCAL/MOL
REMARK 924 INTRA-LIGAND FREE ENERGY PREDICTED BY IDOCK:    1.02 KCAL/MOL
REMARK 927      BINDING AFFINITY PREDICTED BY RF-SCORE:    0.00 PKD
ROOT
HETATM    1  C   UNL     1      -9.195   8.568  66.672  1.00  0.00    -0.223 C  
HETATM    2  C   UNL     1     -10.478   9.018  66.342  1.00  0.00    -0.110 C  
HETATM    3  C   UNL     1      -9.758   9.763  67.401  1.00  0.00    -0.202 C  
HETATM    4  C   UNL     1      -7.699   9.376  67.448  1.00  0.00    -0.095 C  
HETATM    5  C   UNL     1     -11.257  10.568  67.701  1.00  0.00    -0.338 C  
HETATM    6  C   UNL     1      -8.309   6.985  71.252  1.00  0.00    -0.114 C  
HETATM    7  C   UNL     1      -6.895   8.352  66.359  1.00  0.00    -0.070 C  
HETATM    8  C   UNL     1      -8.461  10.349  66.862  1.00  0.00    -0.124 C  
HETATM    9  C   UNL     1      -8.257  11.071  65.555  1.00  0.00     0.018 C  
HETATM   10  C   UNL     1      -8.364  11.080  68.582  1.00  0.00    -0.153 C  
HETATM   11  C   UNL     1      -9.665   7.611  70.897  1.00  0.00    -0.175 C  
HETATM   12  C   UNL     1     -10.397   8.531  72.015  1.00  0.00    -0.408 C  
HETATM   13  C   UNL     1     -11.549   8.288  72.657  1.00  0.00    -0.419 C  
HETATM   14  C   UNL     1      -8.447   9.822  69.811  1.00  0.00    -0.193 C  
HETATM   15  C   UNL     1      -9.484   8.497  69.627  1.00  0.00    -0.165 C  
HETATM   16  O   UNL     1      -7.107   9.353  70.009  1.00  0.00    -0.062 OA 
HETATM   17  C   UNL     1      -9.252   7.624  68.226  1.00  0.00    -0.139 C  
HETATM   18  H   UNL     1      -7.152   8.675  70.671  1.00  0.00     0.000 HD 
HETATM   19  C   UNL     1     -10.320   6.524  68.100  1.00  0.00    -0.223 C  
HETATM   20  C   UNL     1     -10.433   5.646  69.333  1.00  0.00    -0.367 C  
HETATM   21  C   UNL     1     -10.611   6.424  70.603  1.00  0.00    -0.288 C  
HETATM   22  C   UNL     1     -11.489   6.039  71.545  1.00  0.00    -0.280 C  
HETATM   23  C   UNL     1     -11.285   6.778  72.798  1.00  0.00    -0.231 C  
HETATM   24  O   UNL     1     -10.879   6.257  73.829  1.00  0.00    -0.215 OA 
ENDROOT
BRANCH   4  25
HETATM   25  C   UNL     1      -6.173  10.355  67.526  1.00  0.00    -0.057 C  
HETATM   26  O   UNL     1      -5.206  10.008  68.224  1.00  0.00    -0.036 OA 
BRANCH  25  27
HETATM   27  C   UNL     1      -5.970  11.792  66.903  1.00  0.00    -0.140 C  
HETATM   28  C   UNL     1      -5.201  12.735  67.884  1.00  0.00    -0.100 C  
ENDBRANCH  25  27
ENDBRANCH   4  25
TORSDOF 2
ENDMDL
MODEL       42
REMARK 921   NORMALIZED FREE ENERGY PREDICTED BY IDOCK:   -4.42 KCAL/MOL
REMARK 922        TOTAL FREE ENERGY PREDICTED BY IDOCK:   -3.88 KCAL/MOL
REMARK 923 INTER-LIGAND FREE ENERGY PREDICTED BY IDOCK:   -4.95 KCAL/MOL
REMARK 924 INTRA-LIGAND FREE ENERGY PREDICTED BY IDOCK:    1.07 KCAL/MOL
REMARK 927      BINDING AFFINITY PREDICTED BY RF-SCORE:    0.00 PKD
ROOT
HETATM    1  C   UNL     1     -10.845   7.451  69.938  1.00  0.00    -0.259 C  
HETATM    2  C   UNL     1     -11.318   6.269  69.356  1.00  0.00    -0.448 C  
HETATM    3  C   UNL     1      -9.914   6.269  69.828  1.00  0.00    -0.204 C  
HETATM    4  C   UNL     1      -9.469   7.842  71.139  1.00  0.00    -0.169 C  
HETATM    5  C   UNL     1      -9.751   4.761  69.001  1.00  0.00    -0.248 C  
HETATM    6  C   UNL     1      -7.072   9.821  67.837  1.00  0.00    -0.083 C  
HETATM    7  C   UNL     1     -10.599   8.992  71.669  1.00  0.00    -0.434 C  
HETATM    8  C   UNL     1      -9.847   6.541  71.323  1.00  0.00    -0.197 C  
HETATM    9  C   UNL     1     -10.707   5.935  72.402  1.00  0.00    -0.274 C  
HETATM   10  C   UNL     1      -8.019   6.254  71.044  1.00  0.00    -0.116 C  
HETATM   11  C   UNL     1      -7.523   8.454  67.303  1.00  0.00    -0.093 C  
HETATM   12  C   UNL     1      -6.386   7.433  66.759  1.00  0.00    -0.045 C  
HETATM   13  C   UNL     1      -6.200   6.997  65.505  1.00  0.00    -0.037 C  
HETATM   14  C   UNL     1      -7.388   7.341  69.812  1.00  0.00    -0.084 C  
HETATM   15  C   UNL     1      -8.298   7.712  68.433  1.00  0.00    -0.125 C  
HETATM   16  O   UNL     1      -7.026   8.556  70.482  1.00  0.00    -0.036 OA 
HETATM   17  C   UNL     1      -9.805   8.351  68.749  1.00  0.00    -0.180 C  
HETATM   18  H   UNL     1      -6.686   9.142  69.817  1.00  0.00     0.000 HD 
HETATM   19  C   UNL     1     -10.591   8.535  67.440  1.00  0.00    -0.304 C  
HETATM   20  C   UNL     1      -9.829   9.308  66.378  1.00  0.00    -0.347 C  
HETATM   21  C   UNL     1      -8.460   8.759  66.110  1.00  0.00    -0.138 C  
HETATM   22  C   UNL     1      -7.983   8.640  64.858  1.00  0.00    -0.138 C  
HETATM   23  C   UNL     1      -6.543   8.353  64.861  1.00  0.00    -0.067 C  
HETATM   24  O   UNL     1      -5.698   9.141  64.457  1.00  0.00    -0.062 OA 
ENDROOT
BRANCH   4  25
HETATM   25  C   UNL     1      -8.649   8.029  72.747  1.00  0.00    -0.192 C  
HETATM   26  O   UNL     1      -7.819   8.928  72.960  1.00  0.00    -0.378 OA 
BRANCH  25  27
HETATM   27  C   UNL     1      -8.737   7.006  73.948  1.00  0.00    -0.190 C  
HETATM   28  C   UNL     1      -7.320   6.679  74.522  1.00  0.00    -0.102 C  
ENDBRANCH  25  27
ENDBRANCH   4  25
TORSDOF 2
ENDMDL
MODEL       43
REMARK 921   NORMALIZED FREE ENERGY PREDICTED BY IDOCK:   -4.38 KCAL/MOL
REMARK 922        TOTAL FREE ENERGY PREDICTED BY IDOCK:   -3.83 KCAL/MOL
REMARK 923 INTER-LIGAND FREE ENERGY PREDICTED BY IDOCK:   -4.91 KCAL/MOL
REMARK 924 INTRA-LIGAND FREE ENERGY PREDICTED BY IDOCK:    1.08 KCAL/MOL
REMARK 927      BINDING AFFINITY PREDICTED BY RF-SCORE:    0.00 PKD
ROOT
HETATM    1  C   UNL     1      -7.633   9.275  67.858  1.00  0.00    -0.084 C  
HETATM    2  C   UNL     1      -7.299   9.674  66.559  1.00  0.00    -0.090 C  
HETATM    3  C   UNL     1      -8.720   9.345  66.814  1.00  0.00    -0.138 C  
HETATM    4  C   UNL     1      -9.217   9.288  68.849  1.00  0.00    -0.143 C  
HETATM    5  C   UNL     1      -8.933   9.428  65.101  1.00  0.00    -0.258 C  
HETATM    6  C   UNL     1      -9.488   4.769  68.583  1.00  0.00    -0.208 C  
HETATM    7  C   UNL     1      -8.131   9.632  70.107  1.00  0.00    -0.205 C  
HETATM    8  C   UNL     1      -9.302  10.255  67.885  1.00  0.00    -0.147 C  
HETATM    9  C   UNL     1      -9.135  11.747  68.006  1.00  0.00    -0.180 C  
HETATM   10  C   UNL     1     -10.873   9.325  67.474  1.00  0.00    -0.182 C  
HETATM   11  C   UNL     1      -9.240   5.286  67.159  1.00  0.00    -0.113 C  
HETATM   12  C   UNL     1     -10.293   4.864  65.999  1.00  0.00    -0.307 C  
HETATM   13  C   UNL     1     -10.073   4.089  64.927  1.00  0.00    -0.214 C  
HETATM   14  C   UNL     1     -10.650   7.589  67.664  1.00  0.00    -0.233 C  
HETATM   15  C   UNL     1      -9.204   6.843  67.196  1.00  0.00    -0.153 C  
HETATM   16  O   UNL     1     -10.914   7.290  69.041  1.00  0.00    -0.392 OA 
HETATM   17  C   UNL     1      -7.837   7.469  67.915  1.00  0.00    -0.117 C  
HETATM   18  H   UNL     1     -10.793   6.354  69.144  1.00  0.00     0.000 HD 
HETATM   19  C   UNL     1      -6.577   6.808  67.331  1.00  0.00    -0.054 C  
HETATM   20  C   UNL     1      -6.621   5.290  67.359  1.00  0.00    -0.053 C  
HETATM   21  C   UNL     1      -7.862   4.719  66.741  1.00  0.00    -0.099 C  
HETATM   22  C   UNL     1      -7.815   3.649  65.930  1.00  0.00    -0.089 C  
HETATM   23  C   UNL     1      -9.157   3.107  65.681  1.00  0.00    -0.152 C  
HETATM   24  O   UNL     1      -9.531   2.017  66.094  1.00  0.00     0.066 OA 
ENDROOT
BRANCH   4  25
HETATM   25  C   UNL     1     -10.528   9.962  69.907  1.00  0.00    -0.269 C  
HETATM   26  O   UNL     1     -10.922   9.367  70.923  1.00  0.00    -0.265 OA 
BRANCH  25  27
HETATM   27  C   UNL     1     -11.417  11.226  69.577  1.00  0.00    -0.376 C  
HETATM   28  C   UNL     1     -12.350  11.594  70.775  1.00  0.00    -0.454 C  
ENDBRANCH  25  27
ENDBRANCH   4  25
TORSDOF 2
ENDMDL
MODEL       44
REMARK 921   NORMALIZED FREE ENERGY PREDICTED BY IDOCK:   -4.35 KCAL/MOL
REMARK 922        TOTAL FREE ENERGY PREDICTED BY IDOCK:   -3.81 KCAL/MOL
REMARK 923 INTER-LIGAND FREE ENERGY PREDICTED BY IDOCK:   -4.84 KCAL/MOL
REMARK 924 INTRA-LIGAND FREE ENERGY PREDICTED BY IDOCK:    1.03 KCAL/MOL
REMARK 927      BINDING AFFINITY PREDICTED BY RF-SCORE:    0.00 PKD
ROOT
HETATM    1  C   UNL     1      -6.382   9.527  66.914  1.00  0.00    -0.066 C  
HETATM    2  C   UNL     1      -6.259   9.262  68.283  1.00  0.00    -0.053 C  
HETATM    3  C   UNL     1      -7.508   8.816  67.624  1.00  0.00    -0.093 C  
HETATM    4  C   UNL     1      -7.381   8.762  65.533  1.00  0.00    -0.085 C  
HETATM    5  C   UNL     1      -8.105   8.500  69.215  1.00  0.00    -0.113 C  
HETATM    6  C   UNL     1     -10.041  12.431  65.349  1.00  0.00    -0.289 C  
HETATM    7  C   UNL     1      -5.981   9.139  64.652  1.00  0.00    -0.065 C  
HETATM    8  C   UNL     1      -7.207   7.823  66.512  1.00  0.00    -0.086 C  
HETATM    9  C   UNL     1      -6.257   6.655  66.562  1.00  0.00    -0.041 C  
HETATM   10  C   UNL     1      -9.073   7.755  66.402  1.00  0.00    -0.216 C  
HETATM   11  C   UNL     1      -9.960  12.012  66.824  1.00  0.00    -0.218 C  
HETATM   12  C   UNL     1     -11.348  11.726  67.614  1.00  0.00    -0.370 C  
HETATM   13  C   UNL     1     -11.870  12.415  68.639  1.00  0.00    -0.348 C  
HETATM   14  C   UNL     1      -9.751   9.358  66.140  1.00  0.00    -0.265 C  
HETATM   15  C   UNL     1      -9.105  10.713  66.924  1.00  0.00    -0.168 C  
HETATM   16  O   UNL     1      -9.744   9.582  64.724  1.00  0.00    -0.441 OA 
HETATM   17  C   UNL     1      -7.477  10.956  66.658  1.00  0.00    -0.139 C  
HETATM   18  H   UNL     1     -10.109  10.446  64.583  1.00  0.00     0.000 HD 
HETATM   19  C   UNL     1      -6.968  12.131  67.509  1.00  0.00    -0.138 C  
HETATM   20  C   UNL     1      -7.791  13.397  67.348  1.00  0.00    -0.154 C  
HETATM   21  C   UNL     1      -9.260  13.182  67.555  1.00  0.00    -0.206 C  
HETATM   22  C   UNL     1     -10.005  14.051  68.260  1.00  0.00    -0.236 C  
HETATM   23  C   UNL     1     -11.440  13.787  68.087  1.00  0.00    -0.313 C  
HETATM   24  O   UNL     1     -12.200  14.547  67.502  1.00  0.00    -0.318 OA 
ENDROOT
BRANCH   4  25
HETATM   25  C   UNL     1      -7.795   7.586  64.215  1.00  0.00    -0.133 C  
HETATM   26  O   UNL     1      -8.217   7.961  63.109  1.00  0.00    -0.129 OA 
BRANCH  25  27
HETATM   27  C   UNL     1      -7.853   6.015  64.371  1.00  0.00    -0.113 C  
HETATM   28  C   UNL     1      -6.966   5.303  63.299  1.00  0.00    -0.042 C  
ENDBRANCH  25  27
ENDBRANCH   4  25
TORSDOF 2
ENDMDL
MODEL       45
REMARK 921   NORMALIZED FREE ENERGY PREDICTED BY IDOCK:   -4.34 KCAL/MOL
REMARK 922        TOTAL FREE ENERGY PREDICTED BY IDOCK:   -3.79 KCAL/MOL
REMARK 923 INTER-LIGAND FREE ENERGY PREDICTED BY IDOCK:   -4.79 KCAL/MOL
REMARK 924 INTRA-LIGAND FREE ENERGY PREDICTED BY IDOCK:    0.99 KCAL/MOL
REMARK 927      BINDING AFFINITY PREDICTED BY RF-SCORE:    0.00 PKD
ROOT
HETATM    1  C   UNL     1      -7.536   9.579  67.868  1.00  0.00    -0.087 C  
HETATM    2  C   UNL     1      -6.494   9.416  66.948  1.00  0.00    -0.067 C  
HETATM    3  C   UNL     1      -7.869   9.169  66.455  1.00  0.00    -0.100 C  
HETATM    4  C   UNL     1      -9.362   9.942  67.706  1.00  0.00    -0.154 C  
HETATM    5  C   UNL     1      -7.125   8.528  65.033  1.00  0.00    -0.079 C  
HETATM    6  C   UNL     1     -10.376   5.713  68.988  1.00  0.00    -0.314 C  
HETATM    7  C   UNL     1      -9.057  10.816  69.128  1.00  0.00    -0.109 C  
HETATM    8  C   UNL     1      -8.725  10.419  66.593  1.00  0.00    -0.141 C  
HETATM    9  C   UNL     1      -8.343  11.832  66.238  1.00  0.00     0.024 C  
HETATM   10  C   UNL     1      -9.996   9.345  65.737  1.00  0.00    -0.278 C  
HETATM   11  C   UNL     1      -9.316   5.601  67.884  1.00  0.00    -0.112 C  
HETATM   12  C   UNL     1      -9.661   4.698  66.581  1.00  0.00    -0.213 C  
HETATM   13  C   UNL     1      -9.075   3.558  66.190  1.00  0.00    -0.159 C  
HETATM   14  C   UNL     1     -10.270   7.853  66.632  1.00  0.00    -0.233 C  
HETATM   15  C   UNL     1      -8.985   7.034  67.369  1.00  0.00    -0.117 C  
HETATM   16  O   UNL     1     -11.274   8.142  67.613  1.00  0.00    -0.379 OA 
HETATM   17  C   UNL     1      -8.107   7.952  68.448  1.00  0.00    -0.123 C  
HETATM   18  H   UNL     1     -11.422   7.337  68.096  1.00  0.00     0.000 HD 
HETATM   19  C   UNL     1      -6.896   7.156  68.964  1.00  0.00    -0.061 C  
HETATM   20  C   UNL     1      -7.260   5.786  69.508  1.00  0.00    -0.066 C  
HETATM   21  C   UNL     1      -8.076   4.965  68.556  1.00  0.00    -0.085 C  
HETATM   22  C   UNL     1      -7.830   3.657  68.367  1.00  0.00    -0.063 C  
HETATM   23  C   UNL     1      -8.919   3.011  67.621  1.00  0.00    -0.161 C  
HETATM   24  O   UNL     1      -9.669   2.177  68.110  1.00  0.00    -0.152 OA 
ENDROOT
BRANCH   4  25
HETATM   25  C   UNL     1     -10.861  10.945  67.508  1.00  0.00    -0.272 C  
HETATM   26  O   UNL     1     -11.900  10.703  68.143  1.00  0.00    -0.482 OA 
BRANCH  25  27
HETATM   27  C   UNL     1     -11.079  12.068  66.418  1.00  0.00    -0.365 C  
HETATM   28  C   UNL     1     -11.760  13.333  67.033  1.00  0.00    -0.439 C  
ENDBRANCH  25  27
ENDBRANCH   4  25
TORSDOF 2
ENDMDL
MODEL       46
REMARK 921   NORMALIZED FREE ENERGY PREDICTED BY IDOCK:   -4.33 KCAL/MOL
REMARK 922        TOTAL FREE ENERGY PREDICTED BY IDOCK:   -3.78 KCAL/MOL
REMARK 923 INTER-LIGAND FREE ENERGY PREDICTED BY IDOCK:   -4.91 KCAL/MOL
REMARK 924 INTRA-LIGAND FREE ENERGY PREDICTED BY IDOCK:    1.12 KCAL/MOL
REMARK 927      BINDING AFFINITY PREDICTED BY RF-SCORE:    0.00 PKD
ROOT
HETATM    1  C   UNL     1      -8.956  11.962  68.641  1.00  0.00    -0.044 C  
HETATM    2  C   UNL     1      -7.570  12.149  68.661  1.00  0.00    -0.097 C  
HETATM    3  C   UNL     1      -8.181  11.806  67.356  1.00  0.00    -0.160 C  
HETATM    4  C   UNL     1     -10.259  12.073  67.307  1.00  0.00    -0.221 C  
HETATM    5  C   UNL     1      -6.566  11.589  66.781  1.00  0.00    -0.119 C  
HETATM    6  C   UNL     1     -10.766   7.567  67.346  1.00  0.00    -0.331 C  
HETATM    7  C   UNL     1     -11.176  12.671  68.603  1.00  0.00    -0.323 C  
HETATM    8  C   UNL     1      -9.200  12.858  66.944  1.00  0.00    -0.234 C  
HETATM    9  C   UNL     1      -9.047  14.355  67.013  1.00  0.00    -0.250 C  
HETATM   10  C   UNL     1      -9.297  11.804  65.400  1.00  0.00    -0.095 C  
HETATM   11  C   UNL     1      -9.260   7.845  67.246  1.00  0.00    -0.167 C  
HETATM   12  C   UNL     1      -8.442   7.187  66.008  1.00  0.00    -0.148 C  
HETATM   13  C   UNL     1      -7.482   6.253  66.057  1.00  0.00    -0.082 C  
HETATM   14  C   UNL     1      -9.700  10.137  65.796  1.00  0.00    -0.245 C  
HETATM   15  C   UNL     1      -9.045   9.386  67.164  1.00  0.00    -0.148 C  
HETATM   16  O   UNL     1     -11.131  10.064  65.853  1.00  0.00     0.395 OA 
HETATM   17  C   UNL     1      -9.338  10.184  68.599  1.00  0.00    -0.161 C  
HETATM   18  H   UNL     1     -11.348   9.165  66.067  1.00  0.00     0.000 HD 
HETATM   19  C   UNL     1      -8.599   9.489  69.755  1.00  0.00    -0.201 C  
HETATM   20  C   UNL     1      -8.871   7.998  69.839  1.00  0.00    -0.144 C  
HETATM   21  C   UNL     1      -8.641   7.277  68.545  1.00  0.00    -0.124 C  
HETATM   22  C   UNL     1      -8.015   6.088  68.504  1.00  0.00    -0.107 C  
HETATM   23  C   UNL     1      -8.158   5.454  67.187  1.00  0.00    -0.101 C  
HETATM   24  O   UNL     1      -8.807   4.433  66.997  1.00  0.00    -0.110 OA 
ENDROOT
BRANCH   4  25
HETATM   25  C   UNL     1     -11.463  12.858  66.200  1.00  0.00    -0.348 C  
HETATM   26  O   UNL     1     -12.460  12.250  65.776  1.00  0.00    -0.564 OA 
BRANCH  25  27
HETATM   27  C   UNL     1     -11.298  14.274  65.518  1.00  0.00    -0.325 C  
HETATM   28  C   UNL     1     -12.235  14.420  64.276  1.00  0.00    -0.450 C  
ENDBRANCH  25  27
ENDBRANCH   4  25
TORSDOF 2
ENDMDL
MODEL       47
REMARK 921   NORMALIZED FREE ENERGY PREDICTED BY IDOCK:   -4.30 KCAL/MOL
REMARK 922        TOTAL FREE ENERGY PREDICTED BY IDOCK:   -3.75 KCAL/MOL
REMARK 923 INTER-LIGAND FREE ENERGY PREDICTED BY IDOCK:   -4.80 KCAL/MOL
REMARK 924 INTRA-LIGAND FREE ENERGY PREDICTED BY IDOCK:    1.05 KCAL/MOL
REMARK 927      BINDING AFFINITY PREDICTED BY RF-SCORE:    0.00 PKD
ROOT
HETATM    1  C   UNL     1      -8.952   7.713  72.002  1.00  0.00    -0.158 C  
HETATM    2  C   UNL     1      -9.994   8.589  72.327  1.00  0.00    -0.385 C  
HETATM    3  C   UNL     1     -10.274   7.569  71.290  1.00  0.00    -0.198 C  
HETATM    4  C   UNL     1      -8.884   6.001  71.258  1.00  0.00    -0.136 C  
HETATM    5  C   UNL     1     -11.738   8.435  70.989  1.00  0.00    -0.296 C  
HETATM    6  C   UNL     1      -7.188   7.682  67.403  1.00  0.00    -0.087 C  
HETATM    7  C   UNL     1      -7.581   5.858  72.335  1.00  0.00    -0.101 C  
HETATM    8  C   UNL     1     -10.104   6.166  71.853  1.00  0.00    -0.216 C  
HETATM    9  C   UNL     1     -10.604   5.644  73.175  1.00  0.00    -0.277 C  
HETATM   10  C   UNL     1     -10.700   5.675  70.149  1.00  0.00    -0.376 C  
HETATM   11  C   UNL     1      -8.418   8.529  67.755  1.00  0.00    -0.130 C  
HETATM   12  C   UNL     1      -9.596   8.664  66.647  1.00  0.00    -0.285 C  
HETATM   13  C   UNL     1      -9.986   9.765  65.989  1.00  0.00    -0.342 C  
HETATM   14  C   UNL     1      -9.677   6.369  68.896  1.00  0.00    -0.126 C  
HETATM   15  C   UNL     1      -9.071   7.943  69.043  1.00  0.00    -0.144 C  
HETATM   16  O   UNL     1      -8.587   5.458  68.703  1.00  0.00    -0.096 OA 
HETATM   17  C   UNL     1      -8.188   8.218  70.430  1.00  0.00    -0.114 C  
HETATM   18  H   UNL     1      -8.036   5.832  68.028  1.00  0.00     0.000 HD 
HETATM   19  C   UNL     1      -7.792   9.702  70.525  1.00  0.00    -0.150 C  
HETATM   20  C   UNL     1      -7.111  10.227  69.274  1.00  0.00    -0.083 C  
HETATM   21  C   UNL     1      -7.883   9.957  68.018  1.00  0.00    -0.086 C  
HETATM   22  C   UNL     1      -8.015  10.890  67.059  1.00  0.00    -0.132 C  
HETATM   23  C   UNL     1      -8.557  10.312  65.822  1.00  0.00    -0.154 C  
HETATM   24  O   UNL     1      -7.913  10.212  64.786  1.00  0.00    -0.141 OA 
ENDROOT
BRANCH   4  25
HETATM   25  C   UNL     1      -8.939   4.188  71.214  1.00  0.00    -0.114 C  
HETATM   26  O   UNL     1      -8.182   3.525  70.486  1.00  0.00    -0.052 OA 
BRANCH  25  27
HETATM   27  C   UNL     1     -10.032   3.285  71.912  1.00  0.00    -0.209 C  
HETATM   28  C   UNL     1      -9.877   1.784  71.502  1.00  0.00    -0.210 C  
ENDBRANCH  25  27
ENDBRANCH   4  25
TORSDOF 2
ENDMDL
MODEL       48
REMARK 921   NORMALIZED FREE ENERGY PREDICTED BY IDOCK:   -4.30 KCAL/MOL
REMARK 922        TOTAL FREE ENERGY PREDICTED BY IDOCK:   -3.75 KCAL/MOL
REMARK 923 INTER-LIGAND FREE ENERGY PREDICTED BY IDOCK:   -4.74 KCAL/MOL
REMARK 924 INTRA-LIGAND FREE ENERGY PREDICTED BY IDOCK:    1.00 KCAL/MOL
REMARK 927      BINDING AFFINITY PREDICTED BY RF-SCORE:    0.00 PKD
ROOT
HETATM    1  C   UNL     1     -10.333   8.484  68.950  1.00  0.00    -0.226 C  
HETATM    2  C   UNL     1      -9.989   9.598  69.724  1.00  0.00    -0.252 C  
HETATM    3  C   UNL     1      -8.919   8.606  69.464  1.00  0.00    -0.145 C  
HETATM    4  C   UNL     1      -9.358   7.292  67.893  1.00  0.00    -0.131 C  
HETATM    5  C   UNL     1      -7.988   9.466  70.638  1.00  0.00    -0.189 C  
HETATM    6  C   UNL     1      -9.995   3.987  70.932  1.00  0.00    -0.167 C  
HETATM    7  C   UNL     1     -10.771   7.362  66.955  1.00  0.00    -0.389 C  
HETATM    8  C   UNL     1      -8.664   8.467  67.971  1.00  0.00    -0.142 C  
HETATM    9  C   UNL     1      -8.536   9.575  66.958  1.00  0.00    -0.128 C  
HETATM   10  C   UNL     1      -7.312   7.315  68.560  1.00  0.00    -0.100 C  
HETATM   11  C   UNL     1      -9.496   5.215  71.707  1.00  0.00    -0.188 C  
HETATM   12  C   UNL     1      -8.170   5.050  72.628  1.00  0.00    -0.112 C  
HETATM   13  C   UNL     1      -8.078   5.133  73.963  1.00  0.00    -0.101 C  
HETATM   14  C   UNL     1      -7.968   6.035  69.575  1.00  0.00    -0.106 C  
HETATM   15  C   UNL     1      -9.202   6.357  70.688  1.00  0.00    -0.162 C  
HETATM   16  O   UNL     1      -8.385   4.985  68.694  1.00  0.00    -0.088 OA 
HETATM   17  C   UNL     1     -10.573   7.037  70.025  1.00  0.00    -0.251 C  
HETATM   18  H   UNL     1      -8.739   4.295  69.242  1.00  0.00     0.000 HD 
HETATM   19  C   UNL     1     -11.576   7.401  71.132  1.00  0.00    -0.313 C  
HETATM   20  C   UNL     1     -11.881   6.250  72.075  1.00  0.00    -0.370 C  
HETATM   21  C   UNL     1     -10.653   5.613  72.653  1.00  0.00    -0.266 C  
HETATM   22  C   UNL     1     -10.584   5.268  73.950  1.00  0.00    -0.335 C  
HETATM   23  C   UNL     1      -9.418   4.416  74.215  1.00  0.00    -0.111 C  
HETATM   24  O   UNL     1      -9.502   3.237  74.534  1.00  0.00    -0.091 OA 
ENDROOT
BRANCH   4  25
HETATM   25  C   UNL     1      -8.508   6.669  66.416  1.00  0.00    -0.125 C  
HETATM   26  O   UNL     1      -8.607   5.486  66.051  1.00  0.00    -0.124 OA 
BRANCH  25  27
HETATM   27  C   UNL     1      -7.436   7.463  65.569  1.00  0.00    -0.088 C  
HETATM   28  C   UNL     1      -6.295   6.521  65.066  1.00  0.00    -0.041 C  
ENDBRANCH  25  27
ENDBRANCH   4  25
TORSDOF 2
ENDMDL
MODEL       49
REMARK 921   NORMALIZED FREE ENERGY PREDICTED BY IDOCK:   -4.28 KCAL/MOL
REMARK 922        TOTAL FREE ENERGY PREDICTED BY IDOCK:   -3.73 KCAL/MOL
REMARK 923 INTER-LIGAND FREE ENERGY PREDICTED BY IDOCK:   -5.21 KCAL/MOL
REMARK 924 INTRA-LIGAND FREE ENERGY PREDICTED BY IDOCK:    1.48 KCAL/MOL
REMARK 927      BINDING AFFINITY PREDICTED BY RF-SCORE:    0.00 PKD
ROOT
HETATM    1  C   UNL     1     -10.094   9.693  68.359  1.00  0.00    -0.199 C  
HETATM    2  C   UNL     1     -10.766   9.268  67.207  1.00  0.00    -0.244 C  
HETATM    3  C   UNL     1      -9.443   9.907  67.015  1.00  0.00    -0.196 C  
HETATM    4  C   UNL     1      -8.300  10.013  68.768  1.00  0.00    -0.121 C  
HETATM    5  C   UNL     1      -9.820   9.928  65.329  1.00  0.00    -0.373 C  
HETATM    6  C   UNL     1      -9.072  14.479  68.915  1.00  0.00    -0.111 C  
HETATM    7  C   UNL     1      -8.792   9.390  70.268  1.00  0.00    -0.269 C  
HETATM    8  C   UNL     1      -8.355   9.122  67.732  1.00  0.00    -0.117 C  
HETATM    9  C   UNL     1      -8.160   7.628  67.740  1.00  0.00    -0.118 C  
HETATM   10  C   UNL     1      -7.248  10.400  66.931  1.00  0.00    -0.099 C  
HETATM   11  C   UNL     1      -9.683  13.964  67.605  1.00  0.00    -0.226 C  
HETATM   12  C   UNL     1      -9.203  14.653  66.216  1.00  0.00    -0.257 C  
HETATM   13  C   UNL     1      -9.932  15.389  65.366  1.00  0.00    -0.356 C  
HETATM   14  C   UNL     1      -7.743  12.032  67.369  1.00  0.00    -0.162 C  
HETATM   15  C   UNL     1      -9.382  12.440  67.484  1.00  0.00    -0.181 C  
HETATM   16  O   UNL     1      -7.090  12.341  68.607  1.00  0.00    -0.093 OA 
HETATM   17  C   UNL     1     -10.259  11.495  68.541  1.00  0.00    -0.219 C  
HETATM   18  H   UNL     1      -7.357  13.221  68.843  1.00  0.00     0.000 HD 
HETATM   19  C   UNL     1     -11.750  11.866  68.477  1.00  0.00    -0.388 C  
HETATM   20  C   UNL     1     -12.012  13.352  68.651  1.00  0.00    -0.362 C  
HETATM   21  C   UNL     1     -11.205  14.211  67.726  1.00  0.00    -0.307 C  
HETATM   22  C   UNL     1     -11.747  15.267  67.095  1.00  0.00    -0.061 C  
HETATM   23  C   UNL     1     -10.714  16.110  66.479  1.00  0.00    -0.220 C  
HETATM   24  O   UNL     1     -10.454  17.244  66.861  1.00  0.00    -0.319 OA 
ENDROOT
BRANCH   4  25
HETATM   25  C   UNL     1      -6.596   9.626  69.259  1.00  0.00    -0.048 C  
HETATM   26  O   UNL     1      -5.905   8.803  68.638  1.00  0.00    -0.043 OA 
BRANCH  25  27
HETATM   27  C   UNL     1      -5.888  10.117  70.583  1.00  0.00    -0.096 C  
HETATM   28  C   UNL     1      -5.128   8.947  71.289  1.00  0.00    -0.030 C  
ENDBRANCH  25  27
ENDBRANCH   4  25
TORSDOF 2
ENDMDL
MODEL       50
REMARK 921   NORMALIZED FREE ENERGY PREDICTED BY IDOCK:   -4.25 KCAL/MOL
REMARK 922        TOTAL FREE ENERGY PREDICTED BY IDOCK:   -3.70 KCAL/MOL
REMARK 923 INTER-LIGAND FREE ENERGY PREDICTED BY IDOCK:   -5.47 KCAL/MOL
REMARK 924 INTRA-LIGAND FREE ENERGY PREDICTED BY IDOCK:    1.77 KCAL/MOL
REMARK 927      BINDING AFFINITY PREDICTED BY RF-SCORE:    0.00 PKD
ROOT
HETATM    1  C   UNL     1      -9.482  13.133  66.954  1.00  0.00    -0.244 C  
HETATM    2  C   UNL     1      -9.680  12.761  65.620  1.00  0.00    -0.131 C  
HETATM    3  C   UNL     1     -10.496  12.061  66.639  1.00  0.00    -0.247 C  
HETATM    4  C   UNL     1     -10.532  13.032  68.496  1.00  0.00    -0.261 C  
HETATM    5  C   UNL     1     -10.962  10.985  65.370  1.00  0.00    -0.091 C  
HETATM    6  C   UNL     1      -7.859   9.773  70.170  1.00  0.00    -0.196 C  
HETATM    7  C   UNL     1      -9.754  14.505  68.819  1.00  0.00    -0.210 C  
HETATM    8  C   UNL     1     -11.361  13.048  67.409  1.00  0.00    -0.347 C  
HETATM    9  C   UNL     1     -12.181  14.179  66.844  1.00  0.00    -0.400 C  
HETATM   10  C   UNL     1     -12.000  11.484  68.213  1.00  0.00    -0.239 C  
HETATM   11  C   UNL     1      -8.216   9.363  68.734  1.00  0.00    -0.108 C  
HETATM   12  C   UNL     1      -8.905   7.912  68.503  1.00  0.00    -0.134 C  
HETATM   13  C   UNL     1      -8.399   6.852  67.857  1.00  0.00    -0.121 C  
HETATM   14  C   UNL     1     -10.685  10.555  68.925  1.00  0.00    -0.220 C  
HETATM   15  C   UNL     1      -9.189  10.427  68.143  1.00  0.00    -0.145 C  
HETATM   16  O   UNL     1     -10.486  11.072  70.247  1.00  0.00    -0.307 OA 
HETATM   17  C   UNL     1      -8.461  11.887  67.798  1.00  0.00    -0.154 C  
HETATM   18  H   UNL     1      -9.777  10.571  70.631  1.00  0.00     0.000 HD 
HETATM   19  C   UNL     1      -7.177  11.662  66.982  1.00  0.00    -0.143 C  
HETATM   20  C   UNL     1      -6.227  10.659  67.613  1.00  0.00    -0.055 C  
HETATM   21  C   UNL     1      -6.880   9.355  67.955  1.00  0.00    -0.074 C  
HETATM   22  C   UNL     1      -6.274   8.180  67.711  1.00  0.00    -0.052 C  
HETATM   23  C   UNL     1      -6.967   7.072  68.381  1.00  0.00    -0.076 C  
HETATM   24  O   UNL     1      -6.483   6.435  69.308  1.00  0.00    -0.039 OA 
ENDROOT
BRANCH   4  25
HETATM   25  C   UNL     1     -11.793  13.529  69.702  1.00  0.00    -0.336 C  
HETATM   26  O   UNL     1     -12.398  12.698  70.400  1.00  0.00    -0.312 OA 
BRANCH  25  27
HETATM   27  C   UNL     1     -12.385  14.984  69.866  1.00  0.00    -0.315 C  
HETATM   28  C   UNL     1     -13.300  15.088  71.129  1.00  0.00    -0.510 C  
ENDBRANCH  25  27
ENDBRANCH   4  25
TORSDOF 2
ENDMDL
MODEL       51
REMARK 921   NORMALIZED FREE ENERGY PREDICTED BY IDOCK:   -4.24 KCAL/MOL
REMARK 922        TOTAL FREE ENERGY PREDICTED BY IDOCK:   -3.68 KCAL/MOL
REMARK 923 INTER-LIGAND FREE ENERGY PREDICTED BY IDOCK:   -4.72 KCAL/MOL
REMARK 924 INTRA-LIGAND FREE ENERGY PREDICTED BY IDOCK:    1.03 KCAL/MOL
REMARK 927      BINDING AFFINITY PREDICTED BY RF-SCORE:    0.00 PKD
ROOT
HETATM    1  C   UNL     1     -10.491  12.804  65.782  1.00  0.00    -0.294 C  
HETATM    2  C   UNL     1     -11.537  11.990  66.230  1.00  0.00    -0.378 C  
HETATM    3  C   UNL     1     -10.234  11.845  66.918  1.00  0.00    -0.233 C  
HETATM    4  C   UNL     1      -8.916  13.436  66.564  1.00  0.00    -0.065 C  
HETATM    5  C   UNL     1     -10.913  10.449  67.677  1.00  0.00    -0.374 C  
HETATM    6  C   UNL     1      -6.441  10.703  63.924  1.00  0.00     0.166 C  
HETATM    7  C   UNL     1      -9.295  14.798  65.625  1.00  0.00     0.025 C  
HETATM    8  C   UNL     1      -9.813  13.160  67.559  1.00  0.00    -0.216 C  
HETATM    9  C   UNL     1     -10.670  14.099  68.367  1.00  0.00    -0.264 C  
HETATM   10  C   UNL     1      -8.389  12.117  68.180  1.00  0.00    -0.170 C  
HETATM   11  C   UNL     1      -7.546   9.839  64.549  1.00  0.00    -0.134 C  
HETATM   12  C   UNL     1      -7.104   8.519  65.383  1.00  0.00    -0.082 C  
HETATM   13  C   UNL     1      -7.340   7.235  65.080  1.00  0.00    -0.081 C  
HETATM   14  C   UNL     1      -7.536  11.348  66.845  1.00  0.00    -0.151 C  
HETATM   15  C   UNL     1      -8.383  10.729  65.517  1.00  0.00    -0.129 C  
HETATM   16  O   UNL     1      -6.557  12.290  66.387  1.00  0.00    -0.356 OA 
HETATM   17  C   UNL     1      -9.359  11.835  64.740  1.00  0.00     0.071 C  
HETATM   18  H   UNL     1      -6.098  11.876  65.667  1.00  0.00     0.000 HD 
HETATM   19  C   UNL     1     -10.172  11.144  63.632  1.00  0.00    -0.444 C  
HETATM   20  C   UNL     1      -9.320  10.328  62.675  1.00  0.00    -0.335 C  
HETATM   21  C   UNL     1      -8.417   9.352  63.367  1.00  0.00    -0.202 C  
HETATM   22  C   UNL     1      -8.253   8.099  62.908  1.00  0.00    -0.120 C  
HETATM   23  C   UNL     1      -7.124   7.432  63.568  1.00  0.00    -0.066 C  
HETATM   24  O   UNL     1      -6.088   7.128  62.990  1.00  0.00    -0.043 OA 
ENDROOT
BRANCH   4  25
HETATM   25  C   UNL     1      -7.857  14.520  67.561  1.00  0.00    -0.193 C  
HETATM   26  O   UNL     1      -6.700  14.808  67.213  1.00  0.00    -0.279 OA 
BRANCH  25  27
HETATM   27  C   UNL     1      -8.188  15.046  69.014  1.00  0.00    -0.187 C  
HETATM   28  C   UNL     1      -7.572  16.461  69.261  1.00  0.00    -0.180 C  
ENDBRANCH  25  27
ENDBRANCH   4  25
TORSDOF 2
ENDMDL
MODEL       52
REMARK 921   NORMALIZED FREE ENERGY PREDICTED BY IDOCK:   -4.22 KCAL/MOL
REMARK 922        TOTAL FREE ENERGY PREDICTED BY IDOCK:   -3.65 KCAL/MOL
REMARK 923 INTER-LIGAND FREE ENERGY PREDICTED BY IDOCK:   -5.83 KCAL/MOL
REMARK 924 INTRA-LIGAND FREE ENERGY PREDICTED BY IDOCK:    2.17 KCAL/MOL
REMARK 927      BINDING AFFINITY PREDICTED BY RF-SCORE:    0.00 PKD
ROOT
HETATM    1  C   UNL     1      -9.580   9.471  69.265  1.00  0.00    -0.179 C  
HETATM    2  C   UNL     1     -10.599   8.526  69.099  1.00  0.00    -0.188 C  
HETATM    3  C   UNL     1      -9.659   8.705  67.967  1.00  0.00    -0.168 C  
HETATM    4  C   UNL     1      -7.896   9.709  68.491  1.00  0.00    -0.085 C  
HETATM    5  C   UNL     1     -10.750   7.727  67.050  1.00  0.00    -0.316 C  
HETATM    6  C   UNL     1      -9.384  13.349  66.233  1.00  0.00    -0.137 C  
HETATM    7  C   UNL     1      -7.527  10.235  70.062  1.00  0.00    -0.143 C  
HETATM    8  C   UNL     1      -8.234   8.387  68.394  1.00  0.00    -0.124 C  
HETATM    9  C   UNL     1      -7.765   7.215  69.215  1.00  0.00    -0.108 C  
HETATM   10  C   UNL     1      -7.882   8.710  66.585  1.00  0.00    -0.097 C  
HETATM   11  C   UNL     1     -10.404  12.227  65.992  1.00  0.00    -0.273 C  
HETATM   12  C   UNL     1     -10.746  11.823  64.458  1.00  0.00    -0.369 C  
HETATM   13  C   UNL     1     -11.909  11.967  63.807  1.00  0.00    -0.581 C  
HETATM   14  C   UNL     1      -8.439  10.310  66.106  1.00  0.00    -0.141 C  
HETATM   15  C   UNL     1      -9.896  10.935  66.700  1.00  0.00    -0.237 C  
HETATM   16  O   UNL     1      -7.374  11.222  66.406  1.00  0.00    -0.246 OA 
HETATM   17  C   UNL     1      -9.998  10.994  68.363  1.00  0.00    -0.194 C  
HETATM   18  H   UNL     1      -7.675  12.085  66.148  1.00  0.00     0.000 HD 
HETATM   19  C   UNL     1     -11.399  11.459  68.794  1.00  0.00    -0.334 C  
HETATM   20  C   UNL     1     -11.842  12.749  68.126  1.00  0.00    -0.372 C  
HETATM   21  C   UNL     1     -11.725  12.716  66.633  1.00  0.00    -0.464 C  
HETATM   22  C   UNL     1     -12.689  13.215  65.840  1.00  0.00    -0.108 C  
HETATM   23  C   UNL     1     -12.232  13.329  64.449  1.00  0.00    -0.390 C  
HETATM   24  O   UNL     1     -12.058  14.400  63.883  1.00  0.00    -0.435 OA 
ENDROOT
BRANCH   4  25
HETATM   25  C   UNL     1      -6.115   9.467  68.243  1.00  0.00    -0.048 C  
HETATM   26  O   UNL     1      -5.406  10.326  67.694  1.00  0.00    -0.038 OA 
BRANCH  25  27
HETATM   27  C   UNL     1      -5.326   8.123  68.504  1.00  0.00    -0.032 C  
HETATM   28  C   UNL     1      -5.142   7.859  70.034  1.00  0.00    -0.023 C  
ENDBRANCH  25  27
ENDBRANCH   4  25
TORSDOF 2
ENDMDL
MODEL       53
REMARK 921   NORMALIZED FREE ENERGY PREDICTED BY IDOCK:   -4.18 KCAL/MOL
REMARK 922        TOTAL FREE ENERGY PREDICTED BY IDOCK:   -3.61 KCAL/MOL
REMARK 923 INTER-LIGAND FREE ENERGY PREDICTED BY IDOCK:   -4.82 KCAL/MOL
REMARK 924 INTRA-LIGAND FREE ENERGY PREDICTED BY IDOCK:    1.20 KCAL/MOL
REMARK 927      BINDING AFFINITY PREDICTED BY RF-SCORE:    0.00 PKD
ROOT
HETATM    1  C   UNL     1     -10.927  17.023  68.520  1.00  0.00    -0.247 C  
HETATM    2  C   UNL     1     -10.915  16.478  69.808  1.00  0.00    -0.292 C  
HETATM    3  C   UNL     1      -9.656  16.394  69.032  1.00  0.00    -0.264 C  
HETATM    4  C   UNL     1      -9.602  17.679  67.378  1.00  0.00    -0.267 C  
HETATM    5  C   UNL     1      -9.087  15.339  70.277  1.00  0.00     0.692 C  
HETATM    6  C   UNL     1     -10.082  14.083  64.659  1.00  0.00    -0.102 C  
HETATM    7  C   UNL     1     -10.843  18.761  66.969  1.00  0.00    -0.343 C  
HETATM    8  C   UNL     1      -9.154  17.782  68.667  1.00  0.00    -0.262 C  
HETATM    9  C   UNL     1      -9.076  18.992  69.561  1.00  0.00     0.312 C  
HETATM   10  C   UNL     1      -7.720  16.809  67.959  1.00  0.00    -0.174 C  
HETATM   11  C   UNL     1      -9.940  13.544  66.089  1.00  0.00    -0.310 C  
HETATM   12  C   UNL     1      -8.764  12.467  66.386  1.00  0.00     0.013 C  
HETATM   13  C   UNL     1      -8.893  11.181  66.741  1.00  0.00    -0.162 C  
HETATM   14  C   UNL     1      -8.279  15.619  66.789  1.00  0.00    -0.265 C  
HETATM   15  C   UNL     1      -9.707  14.748  67.051  1.00  0.00    -0.242 C  
HETATM   16  O   UNL     1      -8.359  16.291  65.525  1.00  0.00     0.111 OA 
HETATM   17  C   UNL     1     -11.061  15.692  67.287  1.00  0.00    -0.238 C  
HETATM   18  H   UNL     1      -8.660  15.649  64.894  1.00  0.00     0.000 HD 
HETATM   19  C   UNL     1     -12.271  14.811  67.637  1.00  0.00     0.008 C  
HETATM   20  C   UNL     1     -12.502  13.679  66.651  1.00  0.00    -0.291 C  
HETATM   21  C   UNL     1     -11.282  12.843  66.409  1.00  0.00    -0.337 C  
HETATM   22  C   UNL     1     -11.350  11.502  66.341  1.00  0.00    -0.246 C  
HETATM   23  C   UNL     1     -10.102  10.930  65.820  1.00  0.00    -0.252 C  
HETATM   24  O   UNL     1     -10.018  10.372  64.733  1.00  0.00    -0.314 OA 
ENDROOT
BRANCH   4  25
HETATM   25  C   UNL     1      -8.436  18.880  66.677  1.00  0.00    -0.302 C  
HETATM   26  O   UNL     1      -8.012  18.782  65.514  1.00  0.00    -0.373 OA 
BRANCH  25  27
HETATM   27  C   UNL     1      -7.704  20.027  67.480  1.00  0.00    -0.333 C  
HETATM   28  C   UNL     1      -6.650  20.762  66.590  1.00  0.00    -0.340 C  
ENDBRANCH  25  27
ENDBRANCH   4  25
TORSDOF 2
ENDMDL
MODEL       54
REMARK 921   NORMALIZED FREE ENERGY PREDICTED BY IDOCK:   -4.14 KCAL/MOL
REMARK 922        TOTAL FREE ENERGY PREDICTED BY IDOCK:   -3.57 KCAL/MOL
REMARK 923 INTER-LIGAND FREE ENERGY PREDICTED BY IDOCK:   -4.98 KCAL/MOL
REMARK 924 INTRA-LIGAND FREE ENERGY PREDICTED BY IDOCK:    1.41 KCAL/MOL
REMARK 927      BINDING AFFINITY PREDICTED BY RF-SCORE:    0.00 PKD
ROOT
HETATM    1  C   UNL     1      -7.877  13.875  67.282  1.00  0.00    -0.134 C  
HETATM    2  C   UNL     1      -6.934  14.010  68.307  1.00  0.00    -0.107 C  
HETATM    3  C   UNL     1      -8.355  14.214  68.672  1.00  0.00    -0.123 C  
HETATM    4  C   UNL     1      -9.702  13.478  67.245  1.00  0.00    -0.236 C  
HETATM    5  C   UNL     1      -7.769  14.799  70.188  1.00  0.00     0.460 C  
HETATM    6  C   UNL     1     -10.664  17.748  66.058  1.00  0.00    -0.119 C  
HETATM    7  C   UNL     1      -9.241  12.676  65.822  1.00  0.00     0.145 C  
HETATM    8  C   UNL     1      -9.170  12.960  68.393  1.00  0.00    -0.137 C  
HETATM    9  C   UNL     1      -8.799  11.537  68.720  1.00  0.00    -0.047 C  
HETATM   10  C   UNL     1     -10.539  13.974  69.164  1.00  0.00    -0.149 C  
HETATM   11  C   UNL     1      -9.720  17.823  67.267  1.00  0.00    -0.285 C  
HETATM   12  C   UNL     1     -10.210  18.660  68.568  1.00  0.00    -0.398 C  
HETATM   13  C   UNL     1      -9.688  19.789  69.067  1.00  0.00    -0.371 C  
HETATM   14  C   UNL     1     -10.752  15.502  68.315  1.00  0.00    -0.271 C  
HETATM   15  C   UNL     1      -9.415  16.373  67.748  1.00  0.00    -0.222 C  
HETATM   16  O   UNL     1     -11.648  15.245  67.226  1.00  0.00    -0.286 OA 
HETATM   17  C   UNL     1      -8.417  15.519  66.721  1.00  0.00    -0.314 C  
HETATM   18  H   UNL     1     -11.762  16.069  66.768  1.00  0.00     0.000 HD 
HETATM   19  C   UNL     1      -7.177  16.355  66.365  1.00  0.00     0.004 C  
HETATM   20  C   UNL     1      -7.511  17.744  65.849  1.00  0.00    -0.200 C  
HETATM   21  C   UNL     1      -8.432  18.508  66.751  1.00  0.00    -0.290 C  
HETATM   22  C   UNL     1      -8.231  19.809  67.023  1.00  0.00    -0.340 C  
HETATM   23  C   UNL     1      -9.400  20.404  67.684  1.00  0.00    -0.320 C  
HETATM   24  O   UNL     1     -10.114  21.249  67.161  1.00  0.00     0.147 OA 
ENDROOT
BRANCH   4  25
HETATM   25  C   UNL     1     -11.194  12.447  67.246  1.00  0.00    -0.303 C  
HETATM   26  O   UNL     1     -12.172  12.705  66.525  1.00  0.00    -0.538 OA 
BRANCH  25  27
HETATM   27  C   UNL     1     -11.495  11.267  68.253  1.00  0.00    -0.378 C  
HETATM   28  C   UNL     1     -11.159   9.878  67.620  1.00  0.00    -0.170 C  
ENDBRANCH  25  27
ENDBRANCH   4  25
TORSDOF 2
ENDMDL
MODEL       55
REMARK 921   NORMALIZED FREE ENERGY PREDICTED BY IDOCK:   -4.14 KCAL/MOL
REMARK 922        TOTAL FREE ENERGY PREDICTED BY IDOCK:   -3.57 KCAL/MOL
REMARK 923 INTER-LIGAND FREE ENERGY PREDICTED BY IDOCK:   -4.76 KCAL/MOL
REMARK 924 INTRA-LIGAND FREE ENERGY PREDICTED BY IDOCK:    1.19 KCAL/MOL
REMARK 927      BINDING AFFINITY PREDICTED BY RF-SCORE:    0.00 PKD
ROOT
HETATM    1  C   UNL     1      -8.848   8.660  70.199  1.00  0.00    -0.144 C  
HETATM    2  C   UNL     1      -8.712   9.336  68.981  1.00  0.00    -0.135 C  
HETATM    3  C   UNL     1      -9.714   8.246  69.036  1.00  0.00    -0.167 C  
HETATM    4  C   UNL     1     -10.224   7.671  70.985  1.00  0.00    -0.200 C  
HETATM    5  C   UNL     1      -9.825   8.411  67.319  1.00  0.00    -0.264 C  
HETATM    6  C   UNL     1      -7.885   3.833  70.387  1.00  0.00    -0.047 C  
HETATM    7  C   UNL     1      -9.605   8.398  72.388  1.00  0.00    -0.373 C  
HETATM    8  C   UNL     1     -10.776   8.541  70.085  1.00  0.00    -0.240 C  
HETATM    9  C   UNL     1     -11.486   9.847  70.325  1.00  0.00    -0.349 C  
HETATM   10  C   UNL     1     -11.520   6.957  69.422  1.00  0.00    -0.121 C  
HETATM   11  C   UNL     1      -7.879   4.573  69.042  1.00  0.00    -0.070 C  
HETATM   12  C   UNL     1      -8.434   3.787  67.735  1.00  0.00    -0.105 C  
HETATM   13  C   UNL     1      -7.747   3.404  66.649  1.00  0.00    -0.080 C  
HETATM   14  C   UNL     1     -10.371   5.627  69.522  1.00  0.00    -0.275 C  
HETATM   15  C   UNL     1      -8.729   5.870  69.187  1.00  0.00    -0.118 C  
HETATM   16  O   UNL     1     -10.509   5.063  70.832  1.00  0.00    -0.216 OA 
HETATM   17  C   UNL     1      -8.002   7.052  70.110  1.00  0.00    -0.114 C  
HETATM   18  H   UNL     1      -9.889   4.346  70.886  1.00  0.00     0.000 HD 
HETATM   19  C   UNL     1      -6.554   7.278  69.643  1.00  0.00    -0.040 C  
HETATM   20  C   UNL     1      -5.737   6.000  69.564  1.00  0.00    -0.016 C  
HETATM   21  C   UNL     1      -6.398   4.921  68.761  1.00  0.00    -0.035 C  
HETATM   22  C   UNL     1      -5.704   4.166  67.891  1.00  0.00    -0.022 C  
HETATM   23  C   UNL     1      -6.488   3.008  67.444  1.00  0.00    -0.037 C  
HETATM   24  O   UNL     1      -6.209   1.852  67.733  1.00  0.00    -0.024 OA 
ENDROOT
BRANCH   4  25
HETATM   25  C   UNL     1     -11.752   7.369  71.916  1.00  0.00    -0.288 C  
HETATM   26  O   UNL     1     -11.993   6.271  72.443  1.00  0.00    -0.278 OA 
BRANCH  25  27
HETATM   27  C   UNL     1     -12.987   8.352  71.999  1.00  0.00    -0.388 C  
HETATM   28  C   UNL     1     -14.321   7.620  71.645  1.00  0.00    -0.613 C  
ENDBRANCH  25  27
ENDBRANCH   4  25
TORSDOF 2
ENDMDL
MODEL       56
REMARK 921   NORMALIZED FREE ENERGY PREDICTED BY IDOCK:   -4.11 KCAL/MOL
REMARK 922        TOTAL FREE ENERGY PREDICTED BY IDOCK:   -3.53 KCAL/MOL
REMARK 923 INTER-LIGAND FREE ENERGY PREDICTED BY IDOCK:   -4.55 KCAL/MOL
REMARK 924 INTRA-LIGAND FREE ENERGY PREDICTED BY IDOCK:    1.01 KCAL/MOL
REMARK 927      BINDING AFFINITY PREDICTED BY RF-SCORE:    0.00 PKD
ROOT
HETATM    1  C   UNL     1      -8.856  10.801  68.948  1.00  0.00    -0.154 C  
HETATM    2  C   UNL     1      -9.552  11.876  68.382  1.00  0.00    -0.196 C  
HETATM    3  C   UNL     1      -9.945  10.517  67.942  1.00  0.00    -0.193 C  
HETATM    4  C   UNL     1      -9.253   8.993  69.204  1.00  0.00    -0.144 C  
HETATM    5  C   UNL     1     -10.884  11.302  66.723  1.00  0.00    -0.334 C  
HETATM    6  C   UNL     1      -6.243   7.824  66.020  1.00  0.00    -0.042 C  
HETATM    7  C   UNL     1      -8.368   9.261  70.627  1.00  0.00    -0.245 C  
HETATM    8  C   UNL     1     -10.429   9.687  69.122  1.00  0.00    -0.230 C  
HETATM    9  C   UNL     1     -11.367  10.117  70.218  1.00  0.00    -0.387 C  
HETATM   10  C   UNL     1     -10.764   8.426  67.780  1.00  0.00    -0.165 C  
HETATM   11  C   UNL     1      -7.124   8.926  65.417  1.00  0.00    -0.080 C  
HETATM   12  C   UNL     1      -7.891   8.612  64.021  1.00  0.00    -0.146 C  
HETATM   13  C   UNL     1      -7.695   9.185  62.826  1.00  0.00    -0.118 C  
HETATM   14  C   UNL     1      -9.305   8.079  66.858  1.00  0.00    -0.164 C  
HETATM   15  C   UNL     1      -8.217   9.312  66.458  1.00  0.00    -0.107 C  
HETATM   16  O   UNL     1      -8.610   7.043  67.564  1.00  0.00    -0.121 OA 
HETATM   17  C   UNL     1      -7.630  10.167  67.764  1.00  0.00    -0.090 C  
HETATM   18  H   UNL     1      -7.823   6.856  67.066  1.00  0.00     0.000 HD 
HETATM   19  C   UNL     1      -6.752  11.336  67.284  1.00  0.00    -0.104 C  
HETATM   20  C   UNL     1      -5.664  10.917  66.311  1.00  0.00    -0.128 C  
HETATM   21  C   UNL     1      -6.178  10.121  65.150  1.00  0.00    -0.121 C  
HETATM   22  C   UNL     1      -5.743  10.342  63.898  1.00  0.00    -0.145 C  
HETATM   23  C   UNL     1      -6.166   9.270  62.988  1.00  0.00    -0.090 C  
HETATM   24  O   UNL     1      -5.388   8.480  62.468  1.00  0.00    -0.069 OA 
ENDROOT
BRANCH   4  25
HETATM   25  C   UNL     1      -9.954   7.528  70.012  1.00  0.00    -0.186 C  
HETATM   26  O   UNL     1      -9.322   6.464  70.106  1.00  0.00    -0.156 OA 
BRANCH  25  27
HETATM   27  C   UNL     1     -11.450   7.374  70.498  1.00  0.00    -0.281 C  
HETATM   28  C   UNL     1     -11.576   6.292  71.619  1.00  0.00    -0.353 C  
ENDBRANCH  25  27
ENDBRANCH   4  25
TORSDOF 2
ENDMDL
MODEL       57
REMARK 921   NORMALIZED FREE ENERGY PREDICTED BY IDOCK:   -4.02 KCAL/MOL
REMARK 922        TOTAL FREE ENERGY PREDICTED BY IDOCK:   -3.44 KCAL/MOL
REMARK 923 INTER-LIGAND FREE ENERGY PREDICTED BY IDOCK:   -5.13 KCAL/MOL
REMARK 924 INTRA-LIGAND FREE ENERGY PREDICTED BY IDOCK:    1.70 KCAL/MOL
REMARK 927      BINDING AFFINITY PREDICTED BY RF-SCORE:    0.00 PKD
ROOT
HETATM    1  C   UNL     1     -11.276  11.667  66.887  1.00  0.00    -0.376 C  
HETATM    2  C   UNL     1     -11.995  11.230  68.006  1.00  0.00    -0.132 C  
HETATM    3  C   UNL     1     -10.724  11.946  68.263  1.00  0.00    -0.253 C  
HETATM    4  C   UNL     1     -10.010  13.011  66.605  1.00  0.00    -0.250 C  
HETATM    5  C   UNL     1     -10.904  11.451  69.908  1.00  0.00     0.090 C  
HETATM    6  C   UNL     1      -6.741   9.907  66.111  1.00  0.00    -0.092 C  
HETATM    7  C   UNL     1     -10.813  13.105  65.113  1.00  0.00    -0.321 C  
HETATM    8  C   UNL     1     -10.771  13.354  67.688  1.00  0.00    -0.257 C  
HETATM    9  C   UNL     1     -11.900  14.346  67.791  1.00  0.00    -0.402 C  
HETATM   10  C   UNL     1      -9.087  13.475  68.493  1.00  0.00    -0.092 C  
HETATM   11  C   UNL     1      -7.499   9.555  67.398  1.00  0.00    -0.091 C  
HETATM   12  C   UNL     1      -6.649   9.426  68.774  1.00  0.00    -0.052 C  
HETATM   13  C   UNL     1      -6.440   8.327  69.514  1.00  0.00    -0.037 C  
HETATM   14  C   UNL     1      -8.015  12.205  67.913  1.00  0.00    -0.150 C  
HETATM   15  C   UNL     1      -8.594  10.637  67.640  1.00  0.00    -0.118 C  
HETATM   16  O   UNL     1      -7.402  12.699  66.715  1.00  0.00    -0.372 OA 
HETATM   17  C   UNL     1      -9.876  10.548  66.578  1.00  0.00    -0.255 C  
HETATM   18  H   UNL     1      -6.825  12.014  66.402  1.00  0.00     0.000 HD 
HETATM   19  C   UNL     1     -10.401   9.104  66.498  1.00  0.00    -0.269 C  
HETATM   20  C   UNL     1      -9.318   8.081  66.208  1.00  0.00    -0.246 C  
HETATM   21  C   UNL     1      -8.147   8.174  67.139  1.00  0.00    -0.116 C  
HETATM   22  C   UNL     1      -7.570   7.075  67.656  1.00  0.00    -0.110 C  
HETATM   23  C   UNL     1      -6.289   7.396  68.297  1.00  0.00    -0.040 C  
HETATM   24  O   UNL     1      -5.206   7.020  67.867  1.00  0.00    -0.014 OA 
ENDROOT
BRANCH   4  25
HETATM   25  C   UNL     1      -9.382  14.682  66.279  1.00  0.00    -0.262 C  
HETATM   26  O   UNL     1      -8.299  15.078  66.740  1.00  0.00    -0.225 OA 
BRANCH  25  27
HETATM   27  C   UNL     1     -10.185  15.843  65.569  1.00  0.00    -0.394 C  
HETATM   28  C   UNL     1      -9.906  17.224  66.246  1.00  0.00    -0.299 C  
ENDBRANCH  25  27
ENDBRANCH   4  25
TORSDOF 2
ENDMDL
MODEL       58
REMARK 921   NORMALIZED FREE ENERGY PREDICTED BY IDOCK:   -4.01 KCAL/MOL
REMARK 922        TOTAL FREE ENERGY PREDICTED BY IDOCK:   -3.43 KCAL/MOL
REMARK 923 INTER-LIGAND FREE ENERGY PREDICTED BY IDOCK:   -4.47 KCAL/MOL
REMARK 924 INTRA-LIGAND FREE ENERGY PREDICTED BY IDOCK:    1.04 KCAL/MOL
REMARK 927      BINDING AFFINITY PREDICTED BY RF-SCORE:    0.00 PKD
ROOT
HETATM    1  C   UNL     1      -7.573   7.875  68.153  1.00  0.00    -0.116 C  
HETATM    2  C   UNL     1      -7.594   8.757  67.067  1.00  0.00    -0.088 C  
HETATM    3  C   UNL     1      -8.898   8.221  67.520  1.00  0.00    -0.138 C  
HETATM    4  C   UNL     1      -8.836   7.367  69.432  1.00  0.00    -0.137 C  
HETATM    5  C   UNL     1      -9.558   8.913  66.081  1.00  0.00    -0.335 C  
HETATM    6  C   UNL     1      -9.196   3.265  67.532  1.00  0.00    -0.233 C  
HETATM    7  C   UNL     1      -7.453   7.323  70.414  1.00  0.00    -0.083 C  
HETATM    8  C   UNL     1      -9.168   8.609  68.966  1.00  0.00    -0.145 C  
HETATM    9  C   UNL     1      -8.966   9.958  69.604  1.00  0.00    -0.232 C  
HETATM   10  C   UNL     1     -10.798   7.751  68.634  1.00  0.00     0.010 C  
HETATM   11  C   UNL     1      -9.332   4.294  66.401  1.00  0.00    -0.170 C  
HETATM   12  C   UNL     1     -10.659   4.232  65.468  1.00  0.00    -0.126 C  
HETATM   13  C   UNL     1     -10.737   3.935  64.164  1.00  0.00    -0.229 C  
HETATM   14  C   UNL     1     -10.543   6.098  68.083  1.00  0.00    -0.264 C  
HETATM   15  C   UNL     1      -9.279   5.722  67.021  1.00  0.00    -0.118 C  
HETATM   16  O   UNL     1     -10.433   5.286  69.259  1.00  0.00    -0.239 OA 
HETATM   17  C   UNL     1      -7.765   6.165  67.562  1.00  0.00    -0.097 C  
HETATM   18  H   UNL     1     -10.295   4.395  68.962  1.00  0.00     0.000 HD 
HETATM   19  C   UNL     1      -6.710   5.893  66.477  1.00  0.00    -0.057 C  
HETATM   20  C   UNL     1      -6.755   4.476  65.931  1.00  0.00    -0.053 C  
HETATM   21  C   UNL     1      -8.119   4.058  65.471  1.00  0.00    -0.101 C  
HETATM   22  C   UNL     1      -8.296   3.375  64.327  1.00  0.00    -0.090 C  
HETATM   23  C   UNL     1      -9.659   2.837  64.231  1.00  0.00    -0.152 C  
HETATM   24  O   UNL     1      -9.917   1.641  64.273  1.00  0.00    -0.091 OA 
ENDROOT
BRANCH   4  25
HETATM   25  C   UNL     1      -9.814   7.470  70.957  1.00  0.00    -0.179 C  
HETATM   26  O   UNL     1     -10.133   6.459  71.603  1.00  0.00    -0.185 OA 
BRANCH  25  27
HETATM   27  C   UNL     1     -10.510   8.775  71.515  1.00  0.00    -0.373 C  
HETATM   28  C   UNL     1     -11.740   8.423  72.413  1.00  0.00    -0.452 C  
ENDBRANCH  25  27
ENDBRANCH   4  25
TORSDOF 2
ENDMDL
MODEL       59
REMARK 921   NORMALIZED FREE ENERGY PREDICTED BY IDOCK:   -4.01 KCAL/MOL
REMARK 922        TOTAL FREE ENERGY PREDICTED BY IDOCK:   -3.42 KCAL/MOL
REMARK 923 INTER-LIGAND FREE ENERGY PREDICTED BY IDOCK:   -4.42 KCAL/MOL
REMARK 924 INTRA-LIGAND FREE ENERGY PREDICTED BY IDOCK:    1.00 KCAL/MOL
REMARK 927      BINDING AFFINITY PREDICTED BY RF-SCORE:    0.00 PKD
ROOT
HETATM    1  C   UNL     1      -9.736   9.393  68.535  1.00  0.00    -0.160 C  
HETATM    2  C   UNL     1      -9.340  10.291  69.532  1.00  0.00    -0.200 C  
HETATM    3  C   UNL     1      -8.376   9.227  69.167  1.00  0.00    -0.127 C  
HETATM    4  C   UNL     1      -8.812   8.291  67.343  1.00  0.00    -0.135 C  
HETATM    5  C   UNL     1      -7.469   9.726  70.550  1.00  0.00    -0.119 C  
HETATM    6  C   UNL     1     -10.135   4.608  69.634  1.00  0.00    -0.232 C  
HETATM    7  C   UNL     1     -10.107   8.721  66.335  1.00  0.00    -0.313 C  
HETATM    8  C   UNL     1      -7.993   9.328  67.698  1.00  0.00    -0.103 C  
HETATM    9  C   UNL     1      -7.635  10.573  66.929  1.00  0.00    -0.110 C  
HETATM   10  C   UNL     1      -6.853   7.915  68.152  1.00  0.00    -0.068 C  
HETATM   11  C   UNL     1      -9.571   5.596  70.666  1.00  0.00    -0.213 C  
HETATM   12  C   UNL     1      -8.372   5.088  71.634  1.00  0.00    -0.116 C  
HETATM   13  C   UNL     1      -8.403   4.914  72.962  1.00  0.00    -0.101 C  
HETATM   14  C   UNL     1      -7.754   6.574  68.851  1.00  0.00    -0.109 C  
HETATM   15  C   UNL     1      -9.045   6.853  69.911  1.00  0.00    -0.144 C  
HETATM   16  O   UNL     1      -8.205   5.767  67.756  1.00  0.00    -0.102 OA 
HETATM   17  C   UNL     1     -10.252   7.821  69.291  1.00  0.00    -0.211 C  
HETATM   18  H   UNL     1      -8.691   5.044  68.133  1.00  0.00     0.000 HD 
HETATM   19  C   UNL     1     -11.309   8.111  70.369  1.00  0.00    -0.181 C  
HETATM   20  C   UNL     1     -11.840   6.861  71.048  1.00  0.00    -0.411 C  
HETATM   21  C   UNL     1     -10.761   5.969  71.582  1.00  0.00    -0.303 C  
HETATM   22  C   UNL     1     -10.861   5.389  72.790  1.00  0.00    -0.310 C  
HETATM   23  C   UNL     1      -9.837   4.352  72.972  1.00  0.00    -0.141 C  
HETATM   24  O   UNL     1     -10.092   3.158  73.051  1.00  0.00    -0.131 OA 
ENDROOT
BRANCH   4  25
HETATM   25  C   UNL     1      -7.901   7.836  65.842  1.00  0.00    -0.102 C  
HETATM   26  O   UNL     1      -8.077   6.748  65.271  1.00  0.00    -0.121 OA 
BRANCH  25  27
HETATM   27  C   UNL     1      -6.694   8.644  65.219  1.00  0.00    -0.067 C  
HETATM   28  C   UNL     1      -6.830   8.765  63.667  1.00  0.00    -0.088 C  
ENDBRANCH  25  27
ENDBRANCH   4  25
TORSDOF 2
ENDMDL
MODEL       60
REMARK 921   NORMALIZED FREE ENERGY PREDICTED BY IDOCK:   -4.00 KCAL/MOL
REMARK 922        TOTAL FREE ENERGY PREDICTED BY IDOCK:   -3.41 KCAL/MOL
REMARK 923 INTER-LIGAND FREE ENERGY PREDICTED BY IDOCK:   -4.52 KCAL/MOL
REMARK 924 INTRA-LIGAND FREE ENERGY PREDICTED BY IDOCK:    1.10 KCAL/MOL
REMARK 927      BINDING AFFINITY PREDICTED BY RF-SCORE:    0.00 PKD
ROOT
HETATM    1  C   UNL     1      -9.970   6.810  66.858  1.00  0.00    -0.252 C  
HETATM    2  C   UNL     1     -10.024   8.203  66.742  1.00  0.00    -0.349 C  
HETATM    3  C   UNL     1      -8.796   7.627  67.338  1.00  0.00    -0.124 C  
HETATM    4  C   UNL     1      -8.575   5.573  66.983  1.00  0.00    -0.109 C  
HETATM    5  C   UNL     1      -8.372   9.248  67.760  1.00  0.00    -0.116 C  
HETATM    6  C   UNL     1      -9.583   4.787  71.333  1.00  0.00    -0.224 C  
HETATM    7  C   UNL     1      -9.655   4.642  66.063  1.00  0.00    -0.189 C  
HETATM    8  C   UNL     1      -8.106   6.694  66.354  1.00  0.00    -0.113 C  
HETATM    9  C   UNL     1      -7.851   6.936  64.889  1.00  0.00    -0.122 C  
HETATM   10  C   UNL     1      -6.831   6.596  67.720  1.00  0.00    -0.080 C  
HETATM   11  C   UNL     1      -9.506   6.310  71.162  1.00  0.00    -0.183 C  
HETATM   12  C   UNL     1      -8.491   7.137  72.121  1.00  0.00    -0.118 C  
HETATM   13  C   UNL     1      -8.798   8.034  73.069  1.00  0.00    -0.302 C  
HETATM   14  C   UNL     1      -7.563   6.074  69.234  1.00  0.00    -0.094 C  
HETATM   15  C   UNL     1      -9.097   6.623  69.691  1.00  0.00    -0.142 C  
HETATM   16  O   UNL     1      -7.557   4.640  69.219  1.00  0.00    -0.055 OA 
HETATM   17  C   UNL     1     -10.302   6.321  68.579  1.00  0.00    -0.238 C  
HETATM   18  H   UNL     1      -7.952   4.358  70.035  1.00  0.00     0.000 HD 
HETATM   19  C   UNL     1     -11.622   6.966  69.033  1.00  0.00     0.143 C  
HETATM   20  C   UNL     1     -12.018   6.599  70.452  1.00  0.00    -0.342 C  
HETATM   21  C   UNL     1     -10.931   6.838  71.455  1.00  0.00    -0.274 C  
HETATM   22  C   UNL     1     -11.188   7.390  72.654  1.00  0.00    -0.379 C  
HETATM   23  C   UNL     1     -10.039   7.263  73.559  1.00  0.00    -0.340 C  
HETATM   24  O   UNL     1     -10.043   6.561  74.561  1.00  0.00    -0.344 OA 
ENDROOT
BRANCH   4  25
HETATM   25  C   UNL     1      -7.258   4.467  66.405  1.00  0.00    -0.076 C  
HETATM   26  O   UNL     1      -7.226   3.266  66.716  1.00  0.00    -0.061 OA 
BRANCH  25  27
HETATM   27  C   UNL     1      -5.953   4.916  65.636  1.00  0.00    -0.023 C  
HETATM   28  C   UNL     1      -5.702   4.029  64.374  1.00  0.00    -0.014 C  
ENDBRANCH  25  27
ENDBRANCH   4  25
TORSDOF 2
ENDMDL
MODEL       61
REMARK 921   NORMALIZED FREE ENERGY PREDICTED BY IDOCK:   -3.92 KCAL/MOL
REMARK 922        TOTAL FREE ENERGY PREDICTED BY IDOCK:   -3.33 KCAL/MOL
REMARK 923 INTER-LIGAND FREE ENERGY PREDICTED BY IDOCK:   -4.34 KCAL/MOL
REMARK 924 INTRA-LIGAND FREE ENERGY PREDICTED BY IDOCK:    1.01 KCAL/MOL
REMARK 927      BINDING AFFINITY PREDICTED BY RF-SCORE:    0.00 PKD
ROOT
HETATM    1  C   UNL     1     -10.956   7.502  69.659  1.00  0.00    -0.164 C  
HETATM    2  C   UNL     1     -11.662   7.562  70.865  1.00  0.00    -0.307 C  
HETATM    3  C   UNL     1     -10.305   8.154  70.853  1.00  0.00    -0.218 C  
HETATM    4  C   UNL     1      -9.556   8.501  68.927  1.00  0.00    -0.160 C  
HETATM    5  C   UNL     1     -10.458   8.266  72.571  1.00  0.00    -0.406 C  
HETATM    6  C   UNL     1      -6.703   5.021  69.488  1.00  0.00    -0.051 C  
HETATM    7  C   UNL     1     -10.417   8.191  67.498  1.00  0.00    -0.326 C  
HETATM    8  C   UNL     1     -10.216   9.281  69.836  1.00  0.00    -0.235 C  
HETATM    9  C   UNL     1     -11.214  10.386  69.606  1.00  0.00    -0.333 C  
HETATM   10  C   UNL     1      -8.490   9.449  70.538  1.00  0.00    -0.251 C  
HETATM   11  C   UNL     1      -7.431   5.220  70.825  1.00  0.00    -0.075 C  
HETATM   12  C   UNL     1      -6.534   5.452  72.156  1.00  0.00    -0.055 C  
HETATM   13  C   UNL     1      -6.418   4.649  73.223  1.00  0.00    -0.051 C  
HETATM   14  C   UNL     1      -7.605   7.932  70.415  1.00  0.00    -0.082 C  
HETATM   15  C   UNL     1      -8.378   6.451  70.694  1.00  0.00    -0.133 C  
HETATM   16  O   UNL     1      -7.001   7.913  69.115  1.00  0.00    -0.055 OA 
HETATM   17  C   UNL     1      -9.714   6.175  69.736  1.00  0.00    -0.187 C  
HETATM   18  H   UNL     1      -6.524   7.095  69.048  1.00  0.00     0.000 HD 
HETATM   19  C   UNL     1     -10.408   4.868  70.154  1.00  0.00    -0.253 C  
HETATM   20  C   UNL     1      -9.469   3.677  70.220  1.00  0.00    -0.257 C  
HETATM   21  C   UNL     1      -8.249   3.927  71.054  1.00  0.00    -0.076 C  
HETATM   22  C   UNL     1      -7.780   3.001  71.908  1.00  0.00    -0.053 C  
HETATM   23  C   UNL     1      -6.438   3.352  72.392  1.00  0.00    -0.014 C  
HETATM   24  O   UNL     1      -5.431   2.718  72.106  1.00  0.00    -0.003 OA 
ENDROOT
BRANCH   4  25
HETATM   25  C   UNL     1      -8.754   9.871  68.049  1.00  0.00    -0.125 C  
HETATM   26  O   UNL     1      -7.778   9.691  67.302  1.00  0.00    -0.091 OA 
BRANCH  25  27
HETATM   27  C   UNL     1      -9.058  11.406  68.268  1.00  0.00    -0.179 C  
HETATM   28  C   UNL     1      -9.314  12.135  66.910  1.00  0.00    -0.203 C  
ENDBRANCH  25  27
ENDBRANCH   4  25
TORSDOF 2
ENDMDL
MODEL       62
REMARK 921   NORMALIZED FREE ENERGY PREDICTED BY IDOCK:   -3.90 KCAL/MOL
REMARK 922        TOTAL FREE ENERGY PREDICTED BY IDOCK:   -3.31 KCAL/MOL
REMARK 923 INTER-LIGAND FREE ENERGY PREDICTED BY IDOCK:   -5.00 KCAL/MOL
REMARK 924 INTRA-LIGAND FREE ENERGY PREDICTED BY IDOCK:    1.69 KCAL/MOL
REMARK 927      BINDING AFFINITY PREDICTED BY RF-SCORE:    0.00 PKD
ROOT
HETATM    1  C   UNL     1      -9.578   5.451  68.921  1.00  0.00    -0.188 C  
HETATM    2  C   UNL     1     -10.301   5.512  67.725  1.00  0.00    -0.246 C  
HETATM    3  C   UNL     1      -9.378   6.635  68.008  1.00  0.00    -0.113 C  
HETATM    4  C   UNL     1      -7.973   6.211  69.504  1.00  0.00    -0.107 C  
HETATM    5  C   UNL     1     -10.119   7.436  66.668  1.00  0.00    -0.253 C  
HETATM    6  C   UNL     1     -10.232   8.973  72.304  1.00  0.00    -0.016 C  
HETATM    7  C   UNL     1      -7.847   4.718  70.300  1.00  0.00    -0.058 C  
HETATM    8  C   UNL     1      -7.946   6.137  68.139  1.00  0.00    -0.107 C  
HETATM    9  C   UNL     1      -7.235   5.155  67.245  1.00  0.00    -0.081 C  
HETATM   10  C   UNL     1      -7.587   7.965  68.317  1.00  0.00    -0.116 C  
HETATM   11  C   UNL     1     -10.906   9.084  70.929  1.00  0.00    -0.323 C  
HETATM   12  C   UNL     1     -11.040  10.556  70.261  1.00  0.00    -0.359 C  
HETATM   13  C   UNL     1     -12.161  11.247  70.007  1.00  0.00    -0.425 C  
HETATM   14  C   UNL     1      -8.516   8.667  69.637  1.00  0.00    -0.129 C  
HETATM   15  C   UNL     1     -10.118   8.197  69.918  1.00  0.00    -0.195 C  
HETATM   16  O   UNL     1      -7.747   8.469  70.831  1.00  0.00    -0.072 OA 
HETATM   17  C   UNL     1     -10.328   6.560  70.153  1.00  0.00    -0.241 C  
HETATM   18  H   UNL     1      -8.248   8.847  71.543  1.00  0.00     0.000 HD 
HETATM   19  C   UNL     1     -11.824   6.226  70.275  1.00  0.00    -0.156 C  
HETATM   20  C   UNL     1     -12.551   7.072  71.306  1.00  0.00    -0.418 C  
HETATM   21  C   UNL     1     -12.343   8.545  71.122  1.00  0.00    -0.230 C  
HETATM   22  C   UNL     1     -13.357   9.419  71.242  1.00  0.00    -0.356 C  
HETATM   23  C   UNL     1     -12.866  10.801  71.301  1.00  0.00    -0.438 C  
HETATM   24  O   UNL     1     -12.947  11.503  72.301  1.00  0.00    -0.283 OA 
ENDROOT
BRANCH   4  25
HETATM   25  C   UNL     1      -6.180   6.384  69.719  1.00  0.00    -0.034 C  
HETATM   26  O   UNL     1      -5.372   5.889  68.916  1.00  0.00    -0.003 OA 
BRANCH  25  27
HETATM   27  C   UNL     1      -5.461   6.986  70.990  1.00  0.00    -0.027 C  
HETATM   28  C   UNL     1      -5.152   5.876  72.047  1.00  0.00    -0.020 C  
ENDBRANCH  25  27
ENDBRANCH   4  25
TORSDOF 2
ENDMDL
MODEL       63
REMARK 921   NORMALIZED FREE ENERGY PREDICTED BY IDOCK:   -3.83 KCAL/MOL
REMARK 922        TOTAL FREE ENERGY PREDICTED BY IDOCK:   -3.23 KCAL/MOL
REMARK 923 INTER-LIGAND FREE ENERGY PREDICTED BY IDOCK:   -5.16 KCAL/MOL
REMARK 924 INTRA-LIGAND FREE ENERGY PREDICTED BY IDOCK:    1.94 KCAL/MOL
REMARK 927      BINDING AFFINITY PREDICTED BY RF-SCORE:    0.00 PKD
ROOT
HETATM    1  C   UNL     1      -9.069  11.972  67.735  1.00  0.00    -0.187 C  
HETATM    2  C   UNL     1      -9.778  11.924  68.941  1.00  0.00     0.041 C  
HETATM    3  C   UNL     1     -10.445  12.588  67.798  1.00  0.00    -0.230 C  
HETATM    4  C   UNL     1      -9.572  12.148  65.944  1.00  0.00    -0.226 C  
HETATM    5  C   UNL     1     -11.624  13.127  68.940  1.00  0.00    -0.354 C  
HETATM    6  C   UNL     1      -7.880  16.353  65.823  1.00  0.00     0.880 C  
HETATM    7  C   UNL     1      -8.257  11.094  65.735  1.00  0.00    -0.004 C  
HETATM    8  C   UNL     1     -10.624  11.619  66.639  1.00  0.00    -0.281 C  
HETATM    9  C   UNL     1     -11.111  10.194  66.705  1.00  0.00     0.077 C  
HETATM   10  C   UNL     1     -11.511  13.079  65.875  1.00  0.00    -0.374 C  
HETATM   11  C   UNL     1      -8.773  16.268  67.069  1.00  0.00    -0.220 C  
HETATM   12  C   UNL     1      -9.973  17.349  67.224  1.00  0.00    -0.302 C  
HETATM   13  C   UNL     1     -10.100  18.313  68.147  1.00  0.00    -0.397 C  
HETATM   14  C   UNL     1     -10.469  14.498  65.827  1.00  0.00    -0.323 C  
HETATM   15  C   UNL     1      -9.427  14.854  67.113  1.00  0.00    -0.231 C  
HETATM   16  O   UNL     1      -9.712  14.410  64.613  1.00  0.00    -0.500 OA 
HETATM   17  C   UNL     1      -8.363  13.631  67.501  1.00  0.00    -0.191 C  
HETATM   18  H   UNL     1      -9.150  15.175  64.587  1.00  0.00     0.000 HD 
HETATM   19  C   UNL     1      -7.552  14.008  68.753  1.00  0.00    -0.113 C  
HETATM   20  C   UNL     1      -6.884  15.368  68.656  1.00  0.00    -0.106 C  
HETATM   21  C   UNL     1      -7.828  16.469  68.277  1.00  0.00    -0.175 C  
HETATM   22  C   UNL     1      -7.788  17.668  68.882  1.00  0.00    -0.186 C  
HETATM   23  C   UNL     1      -8.599  18.658  68.161  1.00  0.00    -0.307 C  
HETATM   24  O   UNL     1      -8.123  19.619  67.571  1.00  0.00    -0.281 OA 
ENDROOT
BRANCH   4  25
HETATM   25  C   UNL     1     -10.146  11.625  64.305  1.00  0.00    -0.287 C  
HETATM   26  O   UNL     1     -11.346  11.411  64.067  1.00  0.00    -0.353 OA 
BRANCH  25  27
HETATM   27  C   UNL     1      -9.218  11.210  63.095  1.00  0.00    -0.298 C  
HETATM   28  C   UNL     1      -9.093   9.656  62.981  1.00  0.00    -0.235 C  
ENDBRANCH  25  27
ENDBRANCH   4  25
TORSDOF 2
ENDMDL
MODEL       64
REMARK 921   NORMALIZED FREE ENERGY PREDICTED BY IDOCK:   -3.81 KCAL/MOL
REMARK 922        TOTAL FREE ENERGY PREDICTED BY IDOCK:   -3.20 KCAL/MOL
REMARK 923 INTER-LIGAND FREE ENERGY PREDICTED BY IDOCK:   -4.20 KCAL/MOL
REMARK 924 INTRA-LIGAND FREE ENERGY PREDICTED BY IDOCK:    1.00 KCAL/MOL
REMARK 927      BINDING AFFINITY PREDICTED BY RF-SCORE:    0.00 PKD
ROOT
HETATM    1  C   UNL     1     -10.252   7.377  69.543  1.00  0.00    -0.204 C  
HETATM    2  C   UNL     1     -11.217   6.557  68.948  1.00  0.00    -0.341 C  
HETATM    3  C   UNL     1      -9.798   6.235  68.667  1.00  0.00    -0.152 C  
HETATM    4  C   UNL     1      -8.453   7.144  69.993  1.00  0.00    -0.140 C  
HETATM    5  C   UNL     1     -10.397   5.141  67.472  1.00  0.00    -0.190 C  
HETATM    6  C   UNL     1      -7.199   9.965  66.671  1.00  0.00    -0.091 C  
HETATM    7  C   UNL     1      -8.915   8.119  71.303  1.00  0.00    -0.179 C  
HETATM    8  C   UNL     1      -9.052   5.915  69.954  1.00  0.00    -0.156 C  
HETATM    9  C   UNL     1      -9.518   5.039  71.088  1.00  0.00    -0.212 C  
HETATM   10  C   UNL     1      -7.649   5.570  68.765  1.00  0.00    -0.083 C  
HETATM   11  C   UNL     1      -8.175   8.954  66.052  1.00  0.00    -0.117 C  
HETATM   12  C   UNL     1      -7.677   8.102  64.764  1.00  0.00    -0.123 C  
HETATM   13  C   UNL     1      -8.147   8.154  63.510  1.00  0.00    -0.113 C  
HETATM   14  C   UNL     1      -7.319   6.970  67.751  1.00  0.00    -0.097 C  
HETATM   15  C   UNL     1      -8.581   7.924  67.149  1.00  0.00    -0.128 C  
HETATM   16  O   UNL     1      -6.405   7.799  68.481  1.00  0.00    -0.042 OA 
HETATM   17  C   UNL     1      -9.595   8.548  68.316  1.00  0.00    -0.156 C  
HETATM   18  H   UNL     1      -6.227   8.555  67.934  1.00  0.00     0.000 HD 
HETATM   19  C   UNL     1     -10.771   9.290  67.659  1.00  0.00    -0.276 C  
HETATM   20  C   UNL     1     -10.338  10.324  66.634  1.00  0.00    -0.283 C  
HETATM   21  C   UNL     1      -9.402   9.779  65.598  1.00  0.00    -0.285 C  
HETATM   22  C   UNL     1      -9.533  10.092  64.298  1.00  0.00    -0.366 C  
HETATM   23  C   UNL     1      -8.352   9.680  63.527  1.00  0.00    -0.172 C  
HETATM   24  O   UNL     1      -7.573  10.472  63.013  1.00  0.00    -0.131 OA 
ENDROOT
BRANCH   4  25
HETATM   25  C   UNL     1      -7.026   6.627  70.987  1.00  0.00    -0.067 C  
HETATM   26  O   UNL     1      -6.019   7.343  71.112  1.00  0.00    -0.035 OA 
BRANCH  25  27
HETATM   27  C   UNL     1      -6.819   5.195  71.622  1.00  0.00    -0.056 C  
HETATM   28  C   UNL     1      -5.322   4.753  71.553  1.00  0.00    -0.004 C  
ENDBRANCH  25  27
ENDBRANCH   4  25
TORSDOF 2
ENDMDL
MODEL       65
REMARK 921   NORMALIZED FREE ENERGY PREDICTED BY IDOCK:   -3.80 KCAL/MOL
REMARK 922        TOTAL FREE ENERGY PREDICTED BY IDOCK:   -3.19 KCAL/MOL
REMARK 923 INTER-LIGAND FREE ENERGY PREDICTED BY IDOCK:   -4.24 KCAL/MOL
REMARK 924 INTRA-LIGAND FREE ENERGY PREDICTED BY IDOCK:    1.05 KCAL/MOL
REMARK 927      BINDING AFFINITY PREDICTED BY RF-SCORE:    0.00 PKD
ROOT
HETATM    1  C   UNL     1     -10.048   8.630  67.162  1.00  0.00    -0.329 C  
HETATM    2  C   UNL     1     -10.941   9.623  67.582  1.00  0.00    -0.190 C  
HETATM    3  C   UNL     1      -9.542   9.734  68.057  1.00  0.00    -0.160 C  
HETATM    4  C   UNL     1      -8.191   8.555  66.974  1.00  0.00    -0.107 C  
HETATM    5  C   UNL     1     -10.116  10.973  69.116  1.00  0.00    -0.167 C  
HETATM    6  C   UNL     1      -7.885   5.763  70.534  1.00  0.00    -0.100 C  
HETATM    7  C   UNL     1      -8.618   7.593  65.643  1.00  0.00    -0.142 C  
HETATM    8  C   UNL     1      -8.582   9.862  66.884  1.00  0.00    -0.131 C  
HETATM    9  C   UNL     1      -8.738  10.736  65.666  1.00  0.00    -0.198 C  
HETATM   10  C   UNL     1      -7.321  10.051  68.254  1.00  0.00    -0.078 C  
HETATM   11  C   UNL     1      -8.761   6.946  70.969  1.00  0.00    -0.136 C  
HETATM   12  C   UNL     1      -8.316   7.781  72.288  1.00  0.00    -0.154 C  
HETATM   13  C   UNL     1      -8.958   7.872  73.461  1.00  0.00    -0.343 C  
HETATM   14  C   UNL     1      -7.367   8.675  69.350  1.00  0.00    -0.072 C  
HETATM   15  C   UNL     1      -8.839   7.964  69.792  1.00  0.00    -0.141 C  
HETATM   16  O   UNL     1      -6.507   7.674  68.789  1.00  0.00    -0.045 OA 
HETATM   17  C   UNL     1      -9.768   7.442  68.510  1.00  0.00    -0.152 C  
HETATM   18  H   UNL     1      -6.531   6.932  69.381  1.00  0.00     0.000 HD 
HETATM   19  C   UNL     1     -11.128   6.930  69.012  1.00  0.00    -0.188 C  
HETATM   20  C   UNL     1     -11.016   5.900  70.122  1.00  0.00    -0.412 C  
HETATM   21  C   UNL     1     -10.157   6.349  71.265  1.00  0.00    -0.213 C  
HETATM   22  C   UNL     1     -10.517   6.132  72.543  1.00  0.00    -0.228 C  
HETATM   23  C   UNL     1      -9.404   6.398  73.463  1.00  0.00    -0.134 C  
HETATM   24  O   UNL     1      -8.842   5.525  74.112  1.00  0.00    -0.119 OA 
ENDROOT
BRANCH   4  25
HETATM   25  C   UNL     1      -6.575   8.788  66.183  1.00  0.00    -0.065 C  
HETATM   26  O   UNL     1      -5.655   7.964  66.313  1.00  0.00    -0.028 OA 
BRANCH  25  27
HETATM   27  C   UNL     1      -6.099  10.093  65.431  1.00  0.00    -0.103 C  
HETATM   28  C   UNL     1      -5.717   9.788  63.946  1.00  0.00    -0.105 C  
ENDBRANCH  25  27
ENDBRANCH   4  25
TORSDOF 2
ENDMDL
MODEL       66
REMARK 921   NORMALIZED FREE ENERGY PREDICTED BY IDOCK:   -3.77 KCAL/MOL
REMARK 922        TOTAL FREE ENERGY PREDICTED BY IDOCK:   -3.16 KCAL/MOL
REMARK 923 INTER-LIGAND FREE ENERGY PREDICTED BY IDOCK:   -4.66 KCAL/MOL
REMARK 924 INTRA-LIGAND FREE ENERGY PREDICTED BY IDOCK:    1.50 KCAL/MOL
REMARK 927      BINDING AFFINITY PREDICTED BY RF-SCORE:    0.00 PKD
ROOT
HETATM    1  C   UNL     1      -9.075   9.325  70.331  1.00  0.00    -0.288 C  
HETATM    2  C   UNL     1      -9.457  10.223  69.328  1.00  0.00    -0.230 C  
HETATM    3  C   UNL     1     -10.064   8.872  69.285  1.00  0.00    -0.205 C  
HETATM    4  C   UNL     1      -9.865   7.805  71.078  1.00  0.00    -0.186 C  
HETATM    5  C   UNL     1     -10.660   9.310  67.724  1.00  0.00    -0.307 C  
HETATM    6  C   UNL     1      -6.786   5.149  69.072  1.00  0.00    -0.054 C  
HETATM    7  C   UNL     1      -9.131   8.420  72.479  1.00  0.00    -0.326 C  
HETATM    8  C   UNL     1     -10.853   8.594  70.556  1.00  0.00    -0.257 C  
HETATM    9  C   UNL     1     -11.813   9.520  71.257  1.00  0.00    -0.450 C  
HETATM   10  C   UNL     1     -11.270   7.008  69.656  1.00  0.00    -0.222 C  
HETATM   11  C   UNL     1      -7.338   6.087  67.989  1.00  0.00    -0.084 C  
HETATM   12  C   UNL     1      -7.972   5.421  66.652  1.00  0.00    -0.105 C  
HETATM   13  C   UNL     1      -7.513   5.500  65.395  1.00  0.00    -0.074 C  
HETATM   14  C   UNL     1      -9.811   6.142  69.188  1.00  0.00    -0.145 C  
HETATM   15  C   UNL     1      -8.449   6.976  68.624  1.00  0.00    -0.121 C  
HETATM   16  O   UNL     1      -9.438   5.329  70.308  1.00  0.00    -0.153 OA 
HETATM   17  C   UNL     1      -7.867   8.137  69.669  1.00  0.00    -0.103 C  
HETATM   18  H   UNL     1      -8.651   4.862  70.056  1.00  0.00     0.000 HD 
HETATM   19  C   UNL     1      -6.714   8.915  69.013  1.00  0.00    -0.052 C  
HETATM   20  C   UNL     1      -5.623   8.021  68.451  1.00  0.00    -0.033 C  
HETATM   21  C   UNL     1      -6.141   6.954  67.535  1.00  0.00    -0.032 C  
HETATM   22  C   UNL     1      -5.515   6.651  66.384  1.00  0.00    -0.017 C  
HETATM   23  C   UNL     1      -6.032   5.404  65.807  1.00  0.00    -0.025 C  
HETATM   24  O   UNL     1      -5.376   4.374  65.727  1.00  0.00    -0.009 OA 
ENDROOT
BRANCH   4  25
HETATM   25  C   UNL     1     -10.950   6.843  72.169  1.00  0.00    -0.236 C  
HETATM   26  O   UNL     1     -12.184   6.979  72.154  1.00  0.00    -0.285 OA 
BRANCH  25  27
HETATM   27  C   UNL     1     -10.470   5.906  73.347  1.00  0.00    -0.263 C  
HETATM   28  C   UNL     1     -11.356   4.622  73.449  1.00  0.00    -0.394 C  
ENDBRANCH  25  27
ENDBRANCH   4  25
TORSDOF 2
ENDMDL
MODEL       67
REMARK 921   NORMALIZED FREE ENERGY PREDICTED BY IDOCK:   -3.76 KCAL/MOL
REMARK 922        TOTAL FREE ENERGY PREDICTED BY IDOCK:   -3.14 KCAL/MOL
REMARK 923 INTER-LIGAND FREE ENERGY PREDICTED BY IDOCK:   -4.46 KCAL/MOL
REMARK 924 INTRA-LIGAND FREE ENERGY PREDICTED BY IDOCK:    1.32 KCAL/MOL
REMARK 927      BINDING AFFINITY PREDICTED BY RF-SCORE:    0.00 PKD
ROOT
HETATM    1  C   UNL     1     -10.224   4.771  70.263  1.00  0.00    -0.262 C  
HETATM    2  C   UNL     1      -9.491   3.579  70.245  1.00  0.00    -0.254 C  
HETATM    3  C   UNL     1      -8.729   4.831  70.457  1.00  0.00    -0.130 C  
HETATM    4  C   UNL     1      -9.927   6.462  70.999  1.00  0.00    -0.205 C  
HETATM    5  C   UNL     1      -7.307   3.873  70.238  1.00  0.00    -0.042 C  
HETATM    6  C   UNL     1      -9.288   8.214  66.866  1.00  0.00    -0.219 C  
HETATM    7  C   UNL     1     -11.606   6.378  71.231  1.00  0.00    -0.370 C  
HETATM    8  C   UNL     1      -9.204   5.547  71.713  1.00  0.00    -0.158 C  
HETATM    9  C   UNL     1      -9.491   4.936  73.060  1.00  0.00    -0.151 C  
HETATM   10  C   UNL     1      -7.808   6.715  71.278  1.00  0.00    -0.102 C  
HETATM   11  C   UNL     1      -8.411   6.957  66.958  1.00  0.00    -0.121 C  
HETATM   12  C   UNL     1      -6.822   7.111  66.664  1.00  0.00    -0.065 C  
HETATM   13  C   UNL     1      -6.117   6.588  65.651  1.00  0.00    -0.030 C  
HETATM   14  C   UNL     1      -7.997   7.348  69.646  1.00  0.00    -0.126 C  
HETATM   15  C   UNL     1      -8.552   6.358  68.390  1.00  0.00    -0.115 C  
HETATM   16  O   UNL     1      -8.840   8.503  69.749  1.00  0.00    -0.134 OA 
HETATM   17  C   UNL     1     -10.028   5.638  68.676  1.00  0.00    -0.213 C  
HETATM   18  H   UNL     1      -8.942   8.844  68.869  1.00  0.00     0.000 HD 
HETATM   19  C   UNL     1     -10.379   4.670  67.534  1.00  0.00     0.007 C  
HETATM   20  C   UNL     1     -10.283   5.300  66.155  1.00  0.00    -0.223 C  
HETATM   21  C   UNL     1      -8.970   5.976  65.900  1.00  0.00    -0.144 C  
HETATM   22  C   UNL     1      -8.329   5.848  64.725  1.00  0.00    -0.103 C  
HETATM   23  C   UNL     1      -7.229   6.813  64.609  1.00  0.00    -0.075 C  
HETATM   24  O   UNL     1      -7.229   7.743  63.813  1.00  0.00    -0.079 OA 
ENDROOT
BRANCH   4  25
HETATM   25  C   UNL     1      -9.900   7.756  72.271  1.00  0.00    -0.192 C  
HETATM   26  O   UNL     1      -9.987   8.961  71.983  1.00  0.00    -0.329 OA 
BRANCH  25  27
HETATM   27  C   UNL     1      -9.581   7.533  73.802  1.00  0.00    -0.321 C  
HETATM   28  C   UNL     1      -8.217   8.184  74.201  1.00  0.00    -0.310 C  
ENDBRANCH  25  27
ENDBRANCH   4  25
TORSDOF 2
ENDMDL
MODEL       68
REMARK 921   NORMALIZED FREE ENERGY PREDICTED BY IDOCK:   -3.75 KCAL/MOL
REMARK 922        TOTAL FREE ENERGY PREDICTED BY IDOCK:   -3.14 KCAL/MOL
REMARK 923 INTER-LIGAND FREE ENERGY PREDICTED BY IDOCK:   -4.61 KCAL/MOL
REMARK 924 INTRA-LIGAND FREE ENERGY PREDICTED BY IDOCK:    1.47 KCAL/MOL
REMARK 927      BINDING AFFINITY PREDICTED BY RF-SCORE:    0.00 PKD
ROOT
HETATM    1  C   UNL     1      -8.049  11.442  67.086  1.00  0.00    -0.155 C  
HETATM    2  C   UNL     1      -7.519  12.399  67.958  1.00  0.00    -0.114 C  
HETATM    3  C   UNL     1      -7.078  10.999  68.152  1.00  0.00    -0.074 C  
HETATM    4  C   UNL     1      -7.480   9.757  66.513  1.00  0.00    -0.095 C  
HETATM    5  C   UNL     1      -6.367  11.543  69.630  1.00  0.00    -0.133 C  
HETATM    6  C   UNL     1     -10.768   7.766  68.920  1.00  0.00    -0.108 C  
HETATM    7  C   UNL     1      -8.195  10.285  65.067  1.00  0.00    -0.154 C  
HETATM    8  C   UNL     1      -6.383  10.473  66.905  1.00  0.00    -0.074 C  
HETATM    9  C   UNL     1      -5.350  11.181  66.067  1.00  0.00    -0.132 C  
HETATM   10  C   UNL     1      -6.122   8.967  67.984  1.00  0.00    -0.050 C  
HETATM   11  C   UNL     1     -10.061   8.752  69.861  1.00  0.00    -0.197 C  
HETATM   12  C   UNL     1      -9.455   8.178  71.253  1.00  0.00    -0.199 C  
HETATM   13  C   UNL     1      -9.847   8.464  72.502  1.00  0.00    -0.359 C  
HETATM   14  C   UNL     1      -7.654   8.353  68.597  1.00  0.00    -0.102 C  
HETATM   15  C   UNL     1      -8.879   9.412  69.089  1.00  0.00    -0.143 C  
HETATM   16  O   UNL     1      -8.169   7.463  67.598  1.00  0.00    -0.116 OA 
HETATM   17  C   UNL     1      -9.362  10.502  67.924  1.00  0.00    -0.150 C  
HETATM   18  H   UNL     1      -8.995   7.133  67.928  1.00  0.00     0.000 HD 
HETATM   19  C   UNL     1     -10.383  11.492  68.510  1.00  0.00    -0.224 C  
HETATM   20  C   UNL     1     -11.549  10.815  69.209  1.00  0.00    -0.376 C  
HETATM   21  C   UNL     1     -11.125   9.810  70.237  1.00  0.00    -0.349 C  
HETATM   22  C   UNL     1     -11.733   9.728  71.433  1.00  0.00    -0.475 C  
HETATM   23  C   UNL     1     -11.345   8.505  72.147  1.00  0.00    -0.372 C  
HETATM   24  O   UNL     1     -12.117   7.582  72.373  1.00  0.00    -0.261 OA 
ENDROOT
BRANCH   4  25
HETATM   25  C   UNL     1      -6.567   8.542  65.521  1.00  0.00    -0.059 C  
HETATM   26  O   UNL     1      -5.355   8.668  65.281  1.00  0.00    -0.034 OA 
BRANCH  25  27
HETATM   27  C   UNL     1      -7.209   7.342  64.719  1.00  0.00    -0.072 C  
HETATM   28  C   UNL     1      -6.153   6.230  64.416  1.00  0.00    -0.029 C  
ENDBRANCH  25  27
ENDBRANCH   4  25
TORSDOF 2
ENDMDL
MODEL       69
REMARK 921   NORMALIZED FREE ENERGY PREDICTED BY IDOCK:   -3.74 KCAL/MOL
REMARK 922        TOTAL FREE ENERGY PREDICTED BY IDOCK:   -3.12 KCAL/MOL
REMARK 923 INTER-LIGAND FREE ENERGY PREDICTED BY IDOCK:   -4.20 KCAL/MOL
REMARK 924 INTRA-LIGAND FREE ENERGY PREDICTED BY IDOCK:    1.07 KCAL/MOL
REMARK 927      BINDING AFFINITY PREDICTED BY RF-SCORE:    0.00 PKD
ROOT
HETATM    1  C   UNL     1     -11.335   6.715  71.544  1.00  0.00    -0.326 C  
HETATM    2  C   UNL     1     -11.369   7.427  72.748  1.00  0.00    -0.356 C  
HETATM    3  C   UNL     1     -10.106   7.477  71.976  1.00  0.00    -0.225 C  
HETATM    4  C   UNL     1     -10.314   6.856  69.985  1.00  0.00    -0.219 C  
HETATM    5  C   UNL     1      -9.411   8.223  73.371  1.00  0.00    -0.186 C  
HETATM    6  C   UNL     1      -8.101   3.036  71.022  1.00  0.00    -0.062 C  
HETATM    7  C   UNL     1     -11.785   6.384  69.281  1.00  0.00     0.048 C  
HETATM    8  C   UNL     1     -10.339   8.078  70.598  1.00  0.00    -0.211 C  
HETATM    9  C   UNL     1     -11.146   9.304  70.260  1.00  0.00    -0.289 C  
HETATM   10  C   UNL     1      -8.483   7.879  70.468  1.00  0.00    -0.126 C  
HETATM   11  C   UNL     1      -8.071   3.922  72.275  1.00  0.00    -0.085 C  
HETATM   12  C   UNL     1      -6.627   4.280  72.923  1.00  0.00    -0.049 C  
HETATM   13  C   UNL     1      -6.144   3.908  74.117  1.00  0.00    -0.020 C  
HETATM   14  C   UNL     1      -8.004   6.208  70.751  1.00  0.00    -0.115 C  
HETATM   15  C   UNL     1      -8.767   5.276  71.940  1.00  0.00    -0.134 C  
HETATM   16  O   UNL     1      -8.097   5.535  69.489  1.00  0.00    -0.098 OA 
HETATM   17  C   UNL     1     -10.422   5.159  71.773  1.00  0.00    -0.268 C  
HETATM   18  H   UNL     1      -7.839   4.634  69.641  1.00  0.00     0.000 HD 
HETATM   19  C   UNL     1     -11.026   4.400  72.967  1.00  0.00    -0.289 C  
HETATM   20  C   UNL     1     -10.360   3.061  73.232  1.00  0.00    -0.237 C  
HETATM   21  C   UNL     1      -8.869   3.152  73.353  1.00  0.00    -0.081 C  
HETATM   22  C   UNL     1      -8.198   2.479  74.304  1.00  0.00    -0.066 C  
HETATM   23  C   UNL     1      -6.752   2.495  74.051  1.00  0.00    -0.026 C  
HETATM   24  O   UNL     1      -6.109   1.498  73.749  1.00  0.00    -0.003 OA 
ENDROOT
BRANCH   4  25
HETATM   25  C   UNL     1      -9.825   7.474  68.351  1.00  0.00    -0.164 C  
HETATM   26  O   UNL     1      -9.611   6.709  67.397  1.00  0.00    -0.122 OA 
BRANCH  25  27
HETATM   27  C   UNL     1      -9.441   8.968  68.012  1.00  0.00    -0.157 C  
HETATM   28  C   UNL     1      -9.818   9.332  66.539  1.00  0.00    -0.331 C  
ENDBRANCH  25  27
ENDBRANCH   4  25
TORSDOF 2
ENDMDL
MODEL       70
REMARK 921   NORMALIZED FREE ENERGY PREDICTED BY IDOCK:   -3.72 KCAL/MOL
REMARK 922        TOTAL FREE ENERGY PREDICTED BY IDOCK:   -3.10 KCAL/MOL
REMARK 923 INTER-LIGAND FREE ENERGY PREDICTED BY IDOCK:   -4.22 KCAL/MOL
REMARK 924 INTRA-LIGAND FREE ENERGY PREDICTED BY IDOCK:    1.13 KCAL/MOL
REMARK 927      BINDING AFFINITY PREDICTED BY RF-SCORE:    0.00 PKD
ROOT
HETATM    1  C   UNL     1     -10.699  14.252  66.660  1.00  0.00    -0.290 C  
HETATM    2  C   UNL     1      -9.628  13.635  66.004  1.00  0.00    -0.186 C  
HETATM    3  C   UNL     1      -9.456  13.918  67.448  1.00  0.00    -0.226 C  
HETATM    4  C   UNL     1     -11.255  14.329  68.442  1.00  0.00    -0.291 C  
HETATM    5  C   UNL     1      -7.796  13.498  67.221  1.00  0.00    -0.106 C  
HETATM    6  C   UNL     1     -10.035  18.689  68.693  1.00  0.00    -0.431 C  
HETATM    7  C   UNL     1     -12.782  14.298  67.704  1.00  0.00     0.814 C  
HETATM    8  C   UNL     1     -10.512  13.193  68.269  1.00  0.00    -0.258 C  
HETATM    9  C   UNL     1     -10.965  11.765  68.120  1.00  0.00    -0.275 C  
HETATM   10  C   UNL     1      -9.553  13.929  69.698  1.00  0.00     0.961 C  
HETATM   11  C   UNL     1      -8.847  17.929  68.088  1.00  0.00    -0.265 C  
HETATM   12  C   UNL     1      -7.405  18.057  68.820  1.00  0.00    -0.279 C  
HETATM   13  C   UNL     1      -6.288  18.626  68.347  1.00  0.00    -0.221 C  
HETATM   14  C   UNL     1      -9.442  15.680  69.551  1.00  0.00    -0.275 C  
HETATM   15  C   UNL     1      -9.201  16.412  68.044  1.00  0.00    -0.204 C  
HETATM   16  O   UNL     1     -10.624  16.218  70.157  1.00  0.00    -0.278 OA 
HETATM   17  C   UNL     1     -10.343  16.020  66.894  1.00  0.00    -0.289 C  
HETATM   18  H   UNL     1     -10.564  17.163  70.078  1.00  0.00     0.000 HD 
HETATM   19  C   UNL     1      -9.965  16.635  65.536  1.00  0.00    -0.090 C  
HETATM   20  C   UNL     1      -9.678  18.124  65.604  1.00  0.00     0.447 C  
HETATM   21  C   UNL     1      -8.675  18.489  66.656  1.00  0.00    -0.294 C  
HETATM   22  C   UNL     1      -7.703  19.387  66.419  1.00  0.00    -0.297 C  
HETATM   23  C   UNL     1      -7.031  19.788  67.663  1.00  0.00    -0.245 C  
HETATM   24  O   UNL     1      -7.114  20.911  68.142  1.00  0.00    -0.168 OA 
ENDROOT
BRANCH   4  25
HETATM   25  C   UNL     1     -12.073  13.788  69.969  1.00  0.00    -0.349 C  
HETATM   26  O   UNL     1     -12.523  14.599  70.795  1.00  0.00    -0.299 OA 
BRANCH  25  27
HETATM   27  C   UNL     1     -12.135  12.302  70.501  1.00  0.00    -0.371 C  
HETATM   28  C   UNL     1     -13.057  12.186  71.758  1.00  0.00    -0.457 C  
ENDBRANCH  25  27
ENDBRANCH   4  25
TORSDOF 2
ENDMDL
MODEL       71
REMARK 921   NORMALIZED FREE ENERGY PREDICTED BY IDOCK:   -3.66 KCAL/MOL
REMARK 922        TOTAL FREE ENERGY PREDICTED BY IDOCK:   -3.04 KCAL/MOL
REMARK 923 INTER-LIGAND FREE ENERGY PREDICTED BY IDOCK:   -4.21 KCAL/MOL
REMARK 924 INTRA-LIGAND FREE ENERGY PREDICTED BY IDOCK:    1.17 KCAL/MOL
REMARK 927      BINDING AFFINITY PREDICTED BY RF-SCORE:    0.00 PKD
ROOT
HETATM    1  C   UNL     1      -8.700   9.392  67.955  1.00  0.00    -0.120 C  
HETATM    2  C   UNL     1      -7.797   9.475  69.021  1.00  0.00    -0.077 C  
HETATM    3  C   UNL     1      -7.334   8.769  67.804  1.00  0.00    -0.088 C  
HETATM    4  C   UNL     1      -8.509   9.153  66.112  1.00  0.00    -0.136 C  
HETATM    5  C   UNL     1      -5.979   8.260  68.748  1.00  0.00    -0.044 C  
HETATM    6  C   UNL     1     -10.199   4.956  66.422  1.00  0.00    -0.313 C  
HETATM    7  C   UNL     1      -9.839  10.207  66.092  1.00  0.00    -0.297 C  
HETATM    8  C   UNL     1      -7.353   9.698  66.600  1.00  0.00    -0.090 C  
HETATM    9  C   UNL     1      -6.861  11.120  66.534  1.00  0.00    -0.126 C  
HETATM   10  C   UNL     1      -6.610   8.207  65.747  1.00  0.00    -0.052 C  
HETATM   11  C   UNL     1      -9.108   5.078  67.494  1.00  0.00    -0.122 C  
HETATM   12  C   UNL     1      -7.900   3.994  67.481  1.00  0.00    -0.090 C  
HETATM   13  C   UNL     1      -7.619   3.061  68.401  1.00  0.00    -0.052 C  
HETATM   14  C   UNL     1      -7.646   6.795  65.924  1.00  0.00    -0.087 C  
HETATM   15  C   UNL     1      -8.454   6.488  67.379  1.00  0.00    -0.119 C  
HETATM   16  O   UNL     1      -8.598   6.847  64.854  1.00  0.00    -0.346 OA 
HETATM   17  C   UNL     1      -9.437   7.730  67.900  1.00  0.00    -0.158 C  
HETATM   18  H   UNL     1      -9.156   6.085  64.949  1.00  0.00     0.000 HD 
HETATM   19  C   UNL     1     -10.024   7.401  69.284  1.00  0.00    -0.173 C  
HETATM   20  C   UNL     1     -10.699   6.042  69.347  1.00  0.00    -0.403 C  
HETATM   21  C   UNL     1      -9.834   4.923  68.851  1.00  0.00    -0.241 C  
HETATM   22  C   UNL     1      -9.772   3.745  69.495  1.00  0.00    -0.152 C  
HETATM   23  C   UNL     1      -9.096   2.727  68.680  1.00  0.00    -0.158 C  
HETATM   24  O   UNL     1      -9.666   1.749  68.212  1.00  0.00    -0.177 OA 
ENDROOT
BRANCH   4  25
HETATM   25  C   UNL     1      -8.220   9.617  64.382  1.00  0.00    -0.157 C  
HETATM   26  O   UNL     1      -9.036   9.348  63.485  1.00  0.00    -0.220 OA 
BRANCH  25  27
HETATM   27  C   UNL     1      -6.877  10.215  63.803  1.00  0.00    -0.109 C  
HETATM   28  C   UNL     1      -6.483   9.528  62.455  1.00  0.00    -0.096 C  
ENDBRANCH  25  27
ENDBRANCH   4  25
TORSDOF 2
ENDMDL
MODEL       72
REMARK 921   NORMALIZED FREE ENERGY PREDICTED BY IDOCK:   -3.63 KCAL/MOL
REMARK 922        TOTAL FREE ENERGY PREDICTED BY IDOCK:   -3.00 KCAL/MOL
REMARK 923 INTER-LIGAND FREE ENERGY PREDICTED BY IDOCK:   -4.54 KCAL/MOL
REMARK 924 INTRA-LIGAND FREE ENERGY PREDICTED BY IDOCK:    1.53 KCAL/MOL
REMARK 927      BINDING AFFINITY PREDICTED BY RF-SCORE:    0.00 PKD
ROOT
HETATM    1  C   UNL     1      -6.944   8.890  67.948  1.00  0.00    -0.078 C  
HETATM    2  C   UNL     1      -6.281   9.325  69.101  1.00  0.00    -0.042 C  
HETATM    3  C   UNL     1      -7.659   8.810  69.274  1.00  0.00    -0.093 C  
HETATM    4  C   UNL     1      -8.355   7.706  67.634  1.00  0.00    -0.118 C  
HETATM    5  C   UNL     1      -7.569   9.422  70.887  1.00  0.00    -0.097 C  
HETATM    6  C   UNL     1     -11.090  11.159  66.560  1.00  0.00    -0.233 C  
HETATM    7  C   UNL     1      -7.434   7.372  66.248  1.00  0.00    -0.083 C  
HETATM    8  C   UNL     1      -7.756   7.363  68.815  1.00  0.00    -0.119 C  
HETATM    9  C   UNL     1      -6.794   6.243  69.113  1.00  0.00    -0.062 C  
HETATM   10  C   UNL     1      -9.511   7.539  69.442  1.00  0.00    -0.155 C  
HETATM   11  C   UNL     1     -10.416  11.522  67.891  1.00  0.00    -0.211 C  
HETATM   12  C   UNL     1     -11.367  11.885  69.155  1.00  0.00    -0.338 C  
HETATM   13  C   UNL     1     -11.488  13.063  69.783  1.00  0.00    -0.213 C  
HETATM   14  C   UNL     1     -10.332   8.884  68.656  1.00  0.00    -0.204 C  
HETATM   15  C   UNL     1      -9.514  10.329  68.330  1.00  0.00    -0.149 C  
HETATM   16  O   UNL     1     -10.890   8.370  67.440  1.00  0.00    -0.479 OA 
HETATM   17  C   UNL     1      -8.136  10.153  67.408  1.00  0.00    -0.114 C  
HETATM   18  H   UNL     1     -11.333   9.095  67.017  1.00  0.00     0.000 HD 
HETATM   19  C   UNL     1      -7.407  11.500  67.275  1.00  0.00    -0.131 C  
HETATM   20  C   UNL     1      -8.302  12.629  66.795  1.00  0.00    -0.011 C  
HETATM   21  C   UNL     1      -9.558  12.775  67.599  1.00  0.00    -0.192 C  
HETATM   22  C   UNL     1     -10.021  13.983  67.967  1.00  0.00    -0.235 C  
HETATM   23  C   UNL     1     -11.390  13.894  68.490  1.00  0.00    -0.280 C  
HETATM   24  O   UNL     1     -12.362  14.371  67.919  1.00  0.00    -0.220 OA 
ENDROOT
BRANCH   4  25
HETATM   25  C   UNL     1      -9.178   6.111  67.370  1.00  0.00    -0.112 C  
HETATM   26  O   UNL     1      -8.759   5.062  67.886  1.00  0.00    -0.103 OA 
BRANCH  25  27
HETATM   27  C   UNL     1     -10.352   5.841  66.347  1.00  0.00    -0.207 C  
HETATM   28  C   UNL     1     -10.178   4.463  65.631  1.00  0.00    -0.259 C  
ENDBRANCH  25  27
ENDBRANCH   4  25
TORSDOF 2
ENDMDL
MODEL       73
REMARK 921   NORMALIZED FREE ENERGY PREDICTED BY IDOCK:   -3.62 KCAL/MOL
REMARK 922        TOTAL FREE ENERGY PREDICTED BY IDOCK:   -2.99 KCAL/MOL
REMARK 923 INTER-LIGAND FREE ENERGY PREDICTED BY IDOCK:   -4.49 KCAL/MOL
REMARK 924 INTRA-LIGAND FREE ENERGY PREDICTED BY IDOCK:    1.50 KCAL/MOL
REMARK 927      BINDING AFFINITY PREDICTED BY RF-SCORE:    0.00 PKD
ROOT
HETATM    1  C   UNL     1     -10.471   7.376  70.401  1.00  0.00    -0.230 C  
HETATM    2  C   UNL     1     -11.301   6.422  71.000  1.00  0.00    -0.386 C  
HETATM    3  C   UNL     1      -9.841   6.189  71.088  1.00  0.00    -0.210 C  
HETATM    4  C   UNL     1      -8.693   7.890  70.658  1.00  0.00    -0.135 C  
HETATM    5  C   UNL     1     -10.237   4.617  71.684  1.00  0.00    -0.233 C  
HETATM    6  C   UNL     1      -7.519   6.008  66.702  1.00  0.00    -0.090 C  
HETATM    7  C   UNL     1      -9.344   9.413  70.291  1.00  0.00    -0.294 C  
HETATM    8  C   UNL     1      -9.155   7.334  71.819  1.00  0.00    -0.141 C  
HETATM    9  C   UNL     1      -9.602   8.004  73.092  1.00  0.00    -0.344 C  
HETATM   10  C   UNL     1      -7.645   6.254  71.584  1.00  0.00    -0.095 C  
HETATM   11  C   UNL     1      -8.338   4.960  67.469  1.00  0.00    -0.105 C  
HETATM   12  C   UNL     1      -7.666   3.505  67.728  1.00  0.00    -0.069 C  
HETATM   13  C   UNL     1      -8.052   2.320  67.236  1.00  0.00    -0.071 C  
HETATM   14  C   UNL     1      -7.396   5.875  69.883  1.00  0.00    -0.075 C  
HETATM   15  C   UNL     1      -8.708   5.544  68.865  1.00  0.00    -0.102 C  
HETATM   16  O   UNL     1      -6.627   6.952  69.331  1.00  0.00    -0.045 OA 
HETATM   17  C   UNL     1      -9.860   6.748  68.807  1.00  0.00    -0.143 C  
HETATM   18  H   UNL     1      -6.493   6.748  68.414  1.00  0.00     0.000 HD 
HETATM   19  C   UNL     1     -11.060   6.297  67.958  1.00  0.00    -0.365 C  
HETATM   20  C   UNL     1     -10.669   5.783  66.583  1.00  0.00    -0.333 C  
HETATM   21  C   UNL     1      -9.612   4.722  66.624  1.00  0.00    -0.182 C  
HETATM   22  C   UNL     1      -9.685   3.626  65.849  1.00  0.00    -0.096 C  
HETATM   23  C   UNL     1      -8.418   2.884  65.851  1.00  0.00    -0.111 C  
HETATM   24  O   UNL     1      -7.693   2.785  64.869  1.00  0.00    -0.075 OA 
ENDROOT
BRANCH   4  25
HETATM   25  C   UNL     1      -7.291   8.761  71.410  1.00  0.00    -0.097 C  
HETATM   26  O   UNL     1      -7.189   8.903  72.640  1.00  0.00    -0.337 OA 
BRANCH  25  27
HETATM   27  C   UNL     1      -6.187   9.575  70.626  1.00  0.00    -0.077 C  
HETATM   28  C   UNL     1      -5.201  10.288  71.607  1.00  0.00    -0.048 C  
ENDBRANCH  25  27
ENDBRANCH   4  25
TORSDOF 2
ENDMDL
MODEL       74
REMARK 921   NORMALIZED FREE ENERGY PREDICTED BY IDOCK:   -3.59 KCAL/MOL
REMARK 922        TOTAL FREE ENERGY PREDICTED BY IDOCK:   -2.95 KCAL/MOL
REMARK 923 INTER-LIGAND FREE ENERGY PREDICTED BY IDOCK:   -3.97 KCAL/MOL
REMARK 924 INTRA-LIGAND FREE ENERGY PREDICTED BY IDOCK:    1.01 KCAL/MOL
REMARK 927      BINDING AFFINITY PREDICTED BY RF-SCORE:    0.00 PKD
ROOT
HETATM    1  C   UNL     1     -10.674   7.068  68.110  1.00  0.00    -0.242 C  
HETATM    2  C   UNL     1     -11.128   6.162  69.074  1.00  0.00    -0.437 C  
HETATM    3  C   UNL     1      -9.684   6.491  69.091  1.00  0.00    -0.143 C  
HETATM    4  C   UNL     1      -9.203   8.215  68.002  1.00  0.00    -0.137 C  
HETATM    5  C   UNL     1      -9.514   5.194  70.220  1.00  0.00    -0.233 C  
HETATM    6  C   UNL     1      -7.317   5.591  64.821  1.00  0.00    -0.064 C  
HETATM    7  C   UNL     1     -10.341   9.191  67.207  1.00  0.00    -0.338 C  
HETATM    8  C   UNL     1      -9.472   7.980  69.322  1.00  0.00    -0.155 C  
HETATM    9  C   UNL     1     -10.167   8.857  70.330  1.00  0.00    -0.236 C  
HETATM   10  C   UNL     1      -7.671   7.474  69.319  1.00  0.00    -0.112 C  
HETATM   11  C   UNL     1      -7.733   4.665  65.973  1.00  0.00    -0.094 C  
HETATM   12  C   UNL     1      -6.596   3.719  66.641  1.00  0.00    -0.042 C  
HETATM   13  C   UNL     1      -6.520   2.381  66.619  1.00  0.00    -0.031 C  
HETATM   14  C   UNL     1      -7.251   6.633  67.830  1.00  0.00    -0.091 C  
HETATM   15  C   UNL     1      -8.329   5.538  67.118  1.00  0.00    -0.104 C  
HETATM   16  O   UNL     1      -6.899   7.641  66.874  1.00  0.00    -0.064 OA 
HETATM   17  C   UNL     1      -9.831   6.172  66.770  1.00  0.00    -0.203 C  
HETATM   18  H   UNL     1      -6.673   7.188  66.071  1.00  0.00     0.000 HD 
HETATM   19  C   UNL     1     -10.766   5.069  66.245  1.00  0.00    -0.262 C  
HETATM   20  C   UNL     1     -10.176   4.273  65.094  1.00  0.00    -0.228 C  
HETATM   21  C   UNL     1      -8.812   3.725  65.387  1.00  0.00    -0.121 C  
HETATM   22  C   UNL     1      -8.468   2.473  65.040  1.00  0.00    -0.097 C  
HETATM   23  C   UNL     1      -7.020   2.261  65.168  1.00  0.00    -0.048 C  
HETATM   24  O   UNL     1      -6.278   2.080  64.211  1.00  0.00    -0.017 OA 
ENDROOT
BRANCH   4  25
HETATM   25  C   UNL     1      -8.226   9.720  68.274  1.00  0.00    -0.105 C  
HETATM   26  O   UNL     1      -7.562  10.245  67.365  1.00  0.00    -0.094 OA 
BRANCH  25  27
HETATM   27  C   UNL     1      -7.957  10.399  69.675  1.00  0.00    -0.129 C  
HETATM   28  C   UNL     1      -6.580  11.140  69.693  1.00  0.00    -0.139 C  
ENDBRANCH  25  27
ENDBRANCH   4  25
TORSDOF 2
ENDMDL
MODEL       75
REMARK 921   NORMALIZED FREE ENERGY PREDICTED BY IDOCK:   -3.57 KCAL/MOL
REMARK 922        TOTAL FREE ENERGY PREDICTED BY IDOCK:   -2.93 KCAL/MOL
REMARK 923 INTER-LIGAND FREE ENERGY PREDICTED BY IDOCK:   -3.93 KCAL/MOL
REMARK 924 INTRA-LIGAND FREE ENERGY PREDICTED BY IDOCK:    1.00 KCAL/MOL
REMARK 927      BINDING AFFINITY PREDICTED BY RF-SCORE:    0.00 PKD
ROOT
HETATM    1  C   UNL     1      -7.567   8.355  67.341  1.00  0.00    -0.098 C  
HETATM    2  C   UNL     1      -7.455   7.554  66.198  1.00  0.00    -0.083 C  
HETATM    3  C   UNL     1      -8.735   7.489  66.940  1.00  0.00    -0.131 C  
HETATM    4  C   UNL     1      -9.012   9.077  68.279  1.00  0.00    -0.133 C  
HETATM    5  C   UNL     1      -9.123   6.139  65.934  1.00  0.00    -0.101 C  
HETATM    6  C   UNL     1      -8.287   6.209  71.716  1.00  0.00    -0.125 C  
HETATM    7  C   UNL     1      -7.916  10.357  68.481  1.00  0.00    -0.114 C  
HETATM    8  C   UNL     1      -9.402   8.856  66.987  1.00  0.00    -0.194 C  
HETATM    9  C   UNL     1      -9.563   9.834  65.853  1.00  0.00    -0.313 C  
HETATM   10  C   UNL     1     -10.757   7.893  67.846  1.00  0.00    -0.147 C  
HETATM   11  C   UNL     1      -8.297   5.370  70.430  1.00  0.00    -0.113 C  
HETATM   12  C   UNL     1      -9.335   4.126  70.338  1.00  0.00    -0.225 C  
HETATM   13  C   UNL     1      -9.049   2.818  70.270  1.00  0.00    -0.183 C  
HETATM   14  C   UNL     1     -10.133   7.046  69.259  1.00  0.00    -0.173 C  
HETATM   15  C   UNL     1      -8.608   6.311  69.227  1.00  0.00    -0.124 C  
HETATM   16  O   UNL     1     -10.192   7.972  70.352  1.00  0.00    -0.197 OA 
HETATM   17  C   UNL     1      -7.354   7.336  68.832  1.00  0.00    -0.095 C  
HETATM   18  H   UNL     1      -9.855   7.515  71.113  1.00  0.00     0.000 HD 
HETATM   19  C   UNL     1      -6.039   6.547  68.711  1.00  0.00    -0.025 C  
HETATM   20  C   UNL     1      -5.740   5.681  69.922  1.00  0.00    -0.016 C  
HETATM   21  C   UNL     1      -6.874   4.778  70.304  1.00  0.00    -0.037 C  
HETATM   22  C   UNL     1      -6.665   3.499  70.659  1.00  0.00    -0.033 C  
HETATM   23  C   UNL     1      -7.869   2.907  71.256  1.00  0.00    -0.047 C  
HETATM   24  O   UNL     1      -7.949   2.583  72.434  1.00  0.00    -0.053 OA 
ENDROOT
BRANCH   4  25
HETATM   25  C   UNL     1     -10.334  10.255  68.676  1.00  0.00    -0.184 C  
HETATM   26  O   UNL     1     -10.610  10.562  69.847  1.00  0.00    -0.259 OA 
BRANCH  25  27
HETATM   27  C   UNL     1     -11.371  10.854  67.645  1.00  0.00    -0.345 C  
HETATM   28  C   UNL     1     -11.534  12.397  67.833  1.00  0.00    -0.385 C  
ENDBRANCH  25  27
ENDBRANCH   4  25
TORSDOF 2
ENDMDL
MODEL       76
REMARK 921   NORMALIZED FREE ENERGY PREDICTED BY IDOCK:   -3.55 KCAL/MOL
REMARK 922        TOTAL FREE ENERGY PREDICTED BY IDOCK:   -2.91 KCAL/MOL
REMARK 923 INTER-LIGAND FREE ENERGY PREDICTED BY IDOCK:   -4.40 KCAL/MOL
REMARK 924 INTRA-LIGAND FREE ENERGY PREDICTED BY IDOCK:    1.48 KCAL/MOL
REMARK 927      BINDING AFFINITY PREDICTED BY RF-SCORE:    0.00 PKD
ROOT
HETATM    1  C   UNL     1      -8.745   7.899  70.407  1.00  0.00    -0.137 C  
HETATM    2  C   UNL     1      -9.369   8.575  71.462  1.00  0.00    -0.289 C  
HETATM    3  C   UNL     1      -9.827   8.902  70.092  1.00  0.00    -0.199 C  
HETATM    4  C   UNL     1      -9.246   7.494  68.654  1.00  0.00    -0.144 C  
HETATM    5  C   UNL     1     -10.698  10.209  70.813  1.00  0.00    -0.163 C  
HETATM    6  C   UNL     1      -6.242  10.485  67.044  1.00  0.00    -0.066 C  
HETATM    7  C   UNL     1      -8.376   6.078  69.001  1.00  0.00    -0.111 C  
HETATM    8  C   UNL     1     -10.380   7.666  69.398  1.00  0.00    -0.214 C  
HETATM    9  C   UNL     1     -11.315   6.635  69.975  1.00  0.00    -0.440 C  
HETATM   10  C   UNL     1     -10.757   8.898  68.041  1.00  0.00    -0.168 C  
HETATM   11  C   UNL     1      -7.049  11.206  68.133  1.00  0.00    -0.071 C  
HETATM   12  C   UNL     1      -7.804  12.586  67.736  1.00  0.00    -0.151 C  
HETATM   13  C   UNL     1      -7.553  13.823  68.188  1.00  0.00    -0.128 C  
HETATM   14  C   UNL     1      -9.302   9.750  67.536  1.00  0.00    -0.133 C  
HETATM   15  C   UNL     1      -8.139  10.230  68.669  1.00  0.00    -0.114 C  
HETATM   16  O   UNL     1      -8.679   8.938  66.532  1.00  0.00    -0.122 OA 
HETATM   17  C   UNL     1      -7.532   8.992  69.606  1.00  0.00    -0.076 C  
HETATM   18  H   UNL     1      -7.894   9.397  66.260  1.00  0.00     0.000 HD 
HETATM   19  C   UNL     1      -6.582   9.551  70.678  1.00  0.00    -0.103 C  
HETATM   20  C   UNL     1      -5.500  10.456  70.116  1.00  0.00    -0.051 C  
HETATM   21  C   UNL     1      -6.034  11.554  69.247  1.00  0.00    -0.065 C  
HETATM   22  C   UNL     1      -5.562  12.810  69.331  1.00  0.00    -0.084 C  
HETATM   23  C   UNL     1      -6.025  13.631  68.205  1.00  0.00    -0.106 C  
HETATM   24  O   UNL     1      -5.282  14.059  67.332  1.00  0.00    -0.333 OA 
ENDROOT
BRANCH   4  25
HETATM   25  C   UNL     1     -10.042   6.576  67.307  1.00  0.00    -0.164 C  
HETATM   26  O   UNL     1     -11.266   6.362  67.291  1.00  0.00    -0.364 OA 
BRANCH  25  27
HETATM   27  C   UNL     1      -9.291   5.807  66.148  1.00  0.00    -0.160 C  
HETATM   28  C   UNL     1      -9.851   4.359  65.970  1.00  0.00    -0.241 C  
ENDBRANCH  25  27
ENDBRANCH   4  25
TORSDOF 2
ENDMDL
MODEL       77
REMARK 921   NORMALIZED FREE ENERGY PREDICTED BY IDOCK:   -3.18 KCAL/MOL
REMARK 922        TOTAL FREE ENERGY PREDICTED BY IDOCK:   -2.50 KCAL/MOL
REMARK 923 INTER-LIGAND FREE ENERGY PREDICTED BY IDOCK:   -4.18 KCAL/MOL
REMARK 924 INTRA-LIGAND FREE ENERGY PREDICTED BY IDOCK:    1.68 KCAL/MOL
REMARK 927      BINDING AFFINITY PREDICTED BY RF-SCORE:    0.00 PKD
ROOT
HETATM    1  C   UNL     1     -11.010   9.657  68.259  1.00  0.00    -0.172 C  
HETATM    2  C   UNL     1     -11.266   9.334  69.596  1.00  0.00    -0.061 C  
HETATM    3  C   UNL     1      -9.892   9.777  69.264  1.00  0.00    -0.208 C  
HETATM    4  C   UNL     1      -9.744  10.735  67.406  1.00  0.00    -0.194 C  
HETATM    5  C   UNL     1      -9.462   9.273  70.860  1.00  0.00    -0.330 C  
HETATM    6  C   UNL     1      -7.643   7.067  65.765  1.00  0.00    -0.094 C  
HETATM    7  C   UNL     1     -11.061  11.034  66.379  1.00  0.00    -0.137 C  
HETATM    8  C   UNL     1      -9.903  11.185  68.688  1.00  0.00    -0.207 C  
HETATM    9  C   UNL     1     -10.672  12.376  69.198  1.00  0.00    -0.081 C  
HETATM   10  C   UNL     1      -8.047  10.946  68.714  1.00  0.00    -0.145 C  
HETATM   11  C   UNL     1      -7.847   6.828  67.268  1.00  0.00    -0.110 C  
HETATM   12  C   UNL     1      -6.544   6.489  68.172  1.00  0.00    -0.059 C  
HETATM   13  C   UNL     1      -6.261   5.347  68.815  1.00  0.00    -0.033 C  
HETATM   14  C   UNL     1      -7.581   9.509  67.809  1.00  0.00    -0.087 C  
HETATM   15  C   UNL     1      -8.511   8.096  67.884  1.00  0.00    -0.132 C  
HETATM   16  O   UNL     1      -7.442   9.913  66.441  1.00  0.00    -0.097 OA 
HETATM   17  C   UNL     1     -10.110   8.295  67.456  1.00  0.00    -0.287 C  
HETATM   18  H   UNL     1      -7.191   9.138  65.953  1.00  0.00     0.000 HD 
HETATM   19  C   UNL     1     -10.888   6.987  67.677  1.00  0.00    -0.312 C  
HETATM   20  C   UNL     1     -10.243   5.781  67.019  1.00  0.00    -0.258 C  
HETATM   21  C   UNL     1      -8.797   5.611  67.373  1.00  0.00    -0.105 C  
HETATM   22  C   UNL     1      -8.280   4.404  67.662  1.00  0.00    -0.099 C  
HETATM   23  C   UNL     1      -6.813   4.445  67.696  1.00  0.00    -0.055 C  
HETATM   24  O   UNL     1      -6.102   3.878  66.875  1.00  0.00    -0.026 OA 
ENDROOT
BRANCH   4  25
HETATM   25  C   UNL     1      -9.001  12.259  66.762  1.00  0.00    -0.209 C  
HETATM   26  O   UNL     1      -7.780  12.475  66.832  1.00  0.00    -0.078 OA 
BRANCH  25  27
HETATM   27  C   UNL     1      -9.797  13.519  66.236  1.00  0.00    -0.306 C  
HETATM   28  C   UNL     1      -9.131  14.851  66.710  1.00  0.00    -0.295 C  
ENDBRANCH  25  27
ENDBRANCH   4  25
TORSDOF 2
ENDMDL
MODEL       78
REMARK 921   NORMALIZED FREE ENERGY PREDICTED BY IDOCK:   -3.16 KCAL/MOL
REMARK 922        TOTAL FREE ENERGY PREDICTED BY IDOCK:   -2.48 KCAL/MOL
REMARK 923 INTER-LIGAND FREE ENERGY PREDICTED BY IDOCK:   -3.50 KCAL/MOL
REMARK 924 INTRA-LIGAND FREE ENERGY PREDICTED BY IDOCK:    1.02 KCAL/MOL
REMARK 927      BINDING AFFINITY PREDICTED BY RF-SCORE:    0.00 PKD
ROOT
HETATM    1  C   UNL     1      -8.736   5.704  68.810  1.00  0.00    -0.106 C  
HETATM    2  C   UNL     1     -10.123   5.614  68.969  1.00  0.00    -0.259 C  
HETATM    3  C   UNL     1      -9.619   5.845  67.595  1.00  0.00    -0.113 C  
HETATM    4  C   UNL     1      -7.577   5.432  67.370  1.00  0.00    -0.088 C  
HETATM    5  C   UNL     1     -11.264   6.141  67.158  1.00  0.00    -0.192 C  
HETATM    6  C   UNL     1      -6.781   9.888  67.094  1.00  0.00    -0.074 C  
HETATM    7  C   UNL     1      -6.580   4.841  68.610  1.00  0.00    -0.045 C  
HETATM    8  C   UNL     1      -8.714   4.704  67.154  1.00  0.00    -0.104 C  
HETATM    9  C   UNL     1      -8.954   3.227  67.326  1.00  0.00    -0.180 C  
HETATM   10  C   UNL     1      -8.698   5.664  65.548  1.00  0.00    -0.151 C  
HETATM   11  C   UNL     1      -8.305   9.710  67.150  1.00  0.00    -0.121 C  
HETATM   12  C   UNL     1      -9.194  10.355  65.955  1.00  0.00    -0.200 C  
HETATM   13  C   UNL     1     -10.083  11.355  66.037  1.00  0.00    -0.275 C  
HETATM   14  C   UNL     1      -8.153   7.319  65.804  1.00  0.00    -0.129 C  
HETATM   15  C   UNL     1      -8.625   8.185  67.180  1.00  0.00    -0.124 C  
HETATM   16  O   UNL     1      -6.721   7.296  65.726  1.00  0.00    -0.050 OA 
HETATM   17  C   UNL     1      -8.247   7.447  68.627  1.00  0.00    -0.125 C  
HETATM   18  H   UNL     1      -6.427   8.188  65.864  1.00  0.00     0.000 HD 
HETATM   19  C   UNL     1      -8.826   8.251  69.803  1.00  0.00    -0.142 C  
HETATM   20  C   UNL     1      -8.452   9.723  69.772  1.00  0.00    -0.206 C  
HETATM   21  C   UNL     1      -8.759  10.388  68.464  1.00  0.00    -0.135 C  
HETATM   22  C   UNL     1      -9.309  11.613  68.411  1.00  0.00    -0.191 C  
HETATM   23  C   UNL     1      -9.252  12.165  67.051  1.00  0.00    -0.202 C  
HETATM   24  O   UNL     1      -8.561  13.126  66.741  1.00  0.00    -0.155 OA 
ENDROOT
BRANCH   4  25
HETATM   25  C   UNL     1      -6.536   4.508  66.206  1.00  0.00    -0.045 C  
HETATM   26  O   UNL     1      -5.457   4.958  65.790  1.00  0.00    -0.012 OA 
BRANCH  25  27
HETATM   27  C   UNL     1      -6.948   3.173  65.467  1.00  0.00    -0.053 C  
HETATM   28  C   UNL     1      -6.348   3.114  64.024  1.00  0.00    -0.023 C  
ENDBRANCH  25  27
ENDBRANCH   4  25
TORSDOF 2
ENDMDL
MODEL       79
REMARK 921   NORMALIZED FREE ENERGY PREDICTED BY IDOCK:   -3.07 KCAL/MOL
REMARK 922        TOTAL FREE ENERGY PREDICTED BY IDOCK:   -2.37 KCAL/MOL
REMARK 923 INTER-LIGAND FREE ENERGY PREDICTED BY IDOCK:   -3.41 KCAL/MOL
REMARK 924 INTRA-LIGAND FREE ENERGY PREDICTED BY IDOCK:    1.03 KCAL/MOL
REMARK 927      BINDING AFFINITY PREDICTED BY RF-SCORE:    0.00 PKD
ROOT
HETATM    1  C   UNL     1      -9.401   8.307  70.352  1.00  0.00    -0.162 C  
HETATM    2  C   UNL     1     -10.749   8.454  70.004  1.00  0.00    -0.236 C  
HETATM    3  C   UNL     1     -10.273   7.078  70.279  1.00  0.00    -0.206 C  
HETATM    4  C   UNL     1      -8.441   7.010  71.293  1.00  0.00    -0.118 C  
HETATM    5  C   UNL     1     -11.792   6.546  69.650  1.00  0.00    -0.063 C  
HETATM    6  C   UNL     1      -6.455   5.618  67.461  1.00  0.00    -0.047 C  
HETATM    7  C   UNL     1      -7.583   8.381  71.808  1.00  0.00    -0.139 C  
HETATM    8  C   UNL     1      -9.745   6.963  71.701  1.00  0.00    -0.163 C  
HETATM    9  C   UNL     1     -10.377   7.504  72.957  1.00  0.00    -0.376 C  
HETATM   10  C   UNL     1      -9.548   5.166  71.220  1.00  0.00    -0.218 C  
HETATM   11  C   UNL     1      -7.963   5.685  67.182  1.00  0.00    -0.102 C  
HETATM   12  C   UNL     1      -8.699   4.347  66.635  1.00  0.00    -0.112 C  
HETATM   13  C   UNL     1      -9.270   4.151  65.438  1.00  0.00    -0.151 C  
HETATM   14  C   UNL     1      -8.552   5.001  69.778  1.00  0.00    -0.088 C  
HETATM   15  C   UNL     1      -8.692   6.099  68.496  1.00  0.00    -0.111 C  
HETATM   16  O   UNL     1      -7.190   4.961  70.222  1.00  0.00    -0.048 OA 
HETATM   17  C   UNL     1      -8.459   7.693  68.922  1.00  0.00    -0.129 C  
HETATM   18  H   UNL     1      -6.653   4.873  69.444  1.00  0.00     0.000 HD 
HETATM   19  C   UNL     1      -8.728   8.611  67.718  1.00  0.00    -0.137 C  
HETATM   20  C   UNL     1      -7.962   8.212  66.469  1.00  0.00    -0.101 C  
HETATM   21  C   UNL     1      -8.141   6.772  66.096  1.00  0.00    -0.115 C  
HETATM   22  C   UNL     1      -8.331   6.394  64.820  1.00  0.00    -0.035 C  
HETATM   23  C   UNL     1      -8.195   4.940  64.667  1.00  0.00    -0.124 C  
HETATM   24  O   UNL     1      -7.281   4.408  64.050  1.00  0.00    -0.052 OA 
ENDROOT
BRANCH   4  25
HETATM   25  C   UNL     1      -7.761   6.144  72.735  1.00  0.00    -0.105 C  
HETATM   26  O   UNL     1      -6.615   5.665  72.734  1.00  0.00    -0.063 OA 
BRANCH  25  27
HETATM   27  C   UNL     1      -8.571   5.742  74.031  1.00  0.00    -0.116 C  
HETATM   28  C   UNL     1      -8.247   4.278  74.473  1.00  0.00    -0.090 C  
ENDBRANCH  25  27
ENDBRANCH   4  25
TORSDOF 2
ENDMDL
MODEL       80
REMARK 921   NORMALIZED FREE ENERGY PREDICTED BY IDOCK:   -2.84 KCAL/MOL
REMARK 922        TOTAL FREE ENERGY PREDICTED BY IDOCK:   -2.12 KCAL/MOL
REMARK 923 INTER-LIGAND FREE ENERGY PREDICTED BY IDOCK:   -3.17 KCAL/MOL
REMARK 924 INTRA-LIGAND FREE ENERGY PREDICTED BY IDOCK:    1.05 KCAL/MOL
REMARK 927      BINDING AFFINITY PREDICTED BY RF-SCORE:    0.00 PKD
ROOT
HETATM    1  C   UNL     1      -8.524   8.534  67.040  1.00  0.00    -0.114 C  
HETATM    2  C   UNL     1      -7.585   9.522  67.358  1.00  0.00    -0.095 C  
HETATM    3  C   UNL     1      -7.233   8.126  67.705  1.00  0.00    -0.092 C  
HETATM    4  C   UNL     1      -8.414   6.695  66.731  1.00  0.00    -0.117 C  
HETATM    5  C   UNL     1      -5.907   8.796  68.588  1.00  0.00    -0.044 C  
HETATM    6  C   UNL     1     -10.506   5.850  70.665  1.00  0.00    -0.316 C  
HETATM    7  C   UNL     1      -9.632   7.066  65.609  1.00  0.00     0.531 C  
HETATM    8  C   UNL     1      -7.195   7.253  66.459  1.00  0.00    -0.079 C  
HETATM    9  C   UNL     1      -6.566   7.582  65.131  1.00  0.00    -0.044 C  
HETATM   10  C   UNL     1      -6.631   5.956  67.684  1.00  0.00    -0.056 C  
HETATM   11  C   UNL     1      -9.375   6.845  70.966  1.00  0.00    -0.156 C  
HETATM   12  C   UNL     1      -8.283   6.441  72.095  1.00  0.00    -0.108 C  
HETATM   13  C   UNL     1      -8.069   7.026  73.282  1.00  0.00    -0.112 C  
HETATM   14  C   UNL     1      -7.797   5.768  68.990  1.00  0.00    -0.094 C  
HETATM   15  C   UNL     1      -8.588   7.113  69.648  1.00  0.00    -0.137 C  
HETATM   16  O   UNL     1      -8.772   4.819  68.537  1.00  0.00    -0.096 OA 
HETATM   17  C   UNL     1      -9.425   8.035  68.539  1.00  0.00    -0.143 C  
HETATM   18  H   UNL     1      -9.400   4.718  69.241  1.00  0.00     0.000 HD 
HETATM   19  C   UNL     1      -9.999   9.291  69.216  1.00  0.00    -0.180 C  
HETATM   20  C   UNL     1     -10.805   8.990  70.467  1.00  0.00    -0.296 C  
HETATM   21  C   UNL     1     -10.072   8.136  71.456  1.00  0.00    -0.243 C  
HETATM   22  C   UNL     1     -10.108   8.398  72.774  1.00  0.00    -0.268 C  
HETATM   23  C   UNL     1      -9.563   7.281  73.556  1.00  0.00    -0.247 C  
HETATM   24  O   UNL     1     -10.242   6.579  74.295  1.00  0.00    -0.339 OA 
ENDROOT
BRANCH   4  25
HETATM   25  C   UNL     1      -8.133   5.165  65.797  1.00  0.00    -0.110 C  
HETATM   26  O   UNL     1      -8.947   4.228  65.812  1.00  0.00    -0.121 OA 
BRANCH  25  27
HETATM   27  C   UNL     1      -6.798   4.780  65.045  1.00  0.00    -0.053 C  
HETATM   28  C   UNL     1      -6.553   3.236  65.076  1.00  0.00    -0.040 C  
ENDBRANCH  25  27
ENDBRANCH   4  25
TORSDOF 2
ENDMDL
MODEL       81
REMARK 921   NORMALIZED FREE ENERGY PREDICTED BY IDOCK:   -2.65 KCAL/MOL
REMARK 922        TOTAL FREE ENERGY PREDICTED BY IDOCK:   -1.91 KCAL/MOL
REMARK 923 INTER-LIGAND FREE ENERGY PREDICTED BY IDOCK:   -3.02 KCAL/MOL
REMARK 924 INTRA-LIGAND FREE ENERGY PREDICTED BY IDOCK:    1.12 KCAL/MOL
REMARK 927      BINDING AFFINITY PREDICTED BY RF-SCORE:    0.00 PKD
ROOT
HETATM    1  C   UNL     1      -8.426  16.164  67.990  1.00  0.00    -0.168 C  
HETATM    2  C   UNL     1      -9.434  16.565  68.874  1.00  0.00    -0.260 C  
HETATM    3  C   UNL     1      -9.154  15.113  68.790  1.00  0.00    -0.200 C  
HETATM    4  C   UNL     1      -7.320  14.662  67.882  1.00  0.00    -0.164 C  
HETATM    5  C   UNL     1     -10.590  14.893  69.725  1.00  0.00    -0.189 C  
HETATM    6  C   UNL     1      -9.570  13.198  64.227  1.00  0.00     0.688 C  
HETATM    7  C   UNL     1      -6.215  15.828  67.332  1.00  0.00    -0.144 C  
HETATM    8  C   UNL     1      -7.714  14.816  69.182  1.00  0.00    -0.144 C  
HETATM    9  C   UNL     1      -6.953  15.375  70.356  1.00  0.00     0.334 C  
HETATM   10  C   UNL     1      -8.271  13.047  68.938  1.00  0.00     0.234 C  
HETATM   11  C   UNL     1     -10.623  13.543  65.290  1.00  0.00    -0.335 C  
HETATM   12  C   UNL     1     -11.681  12.391  65.720  1.00  0.00    -0.470 C  
HETATM   13  C   UNL     1     -13.007  12.375  65.523  1.00  0.00     1.016 C  
HETATM   14  C   UNL     1      -8.926  12.805  67.322  1.00  0.00    -0.199 C  
HETATM   15  C   UNL     1      -9.887  13.991  66.589  1.00  0.00    -0.288 C  
HETATM   16  O   UNL     1      -7.814  12.501  66.470  1.00  0.00    -0.383 OA 
HETATM   17  C   UNL     1      -9.168  15.490  66.472  1.00  0.00    -0.324 C  
HETATM   18  H   UNL     1      -8.168  12.372  65.598  1.00  0.00     0.000 HD 
HETATM   19  C   UNL     1     -10.164  16.517  65.908  1.00  0.00    -0.368 C  
HETATM   20  C   UNL     1     -10.824  16.073  64.615  1.00  0.00    -0.202 C  
HETATM   21  C   UNL     1     -11.447  14.713  64.701  1.00  0.00    -0.389 C  
HETATM   22  C   UNL     1     -12.654  14.457  64.167  1.00  0.00    -0.077 C  
HETATM   23  C   UNL     1     -12.924  13.014  64.125  1.00  0.00     0.169 C  
HETATM   24  O   UNL     1     -13.004  12.373  63.084  1.00  0.00    -0.602 OA 
ENDROOT
BRANCH   4  25
HETATM   25  C   UNL     1      -5.894  13.600  68.242  1.00  0.00    -0.103 C  
HETATM   26  O   UNL     1      -5.264  13.019  67.343  1.00  0.00    -0.296 OA 
BRANCH  25  27
HETATM   27  C   UNL     1      -5.422  13.152  69.682  1.00  0.00    -0.091 C  
HETATM   28  C   UNL     1      -5.269  11.599  69.773  1.00  0.00    -0.069 C  
ENDBRANCH  25  27
ENDBRANCH   4  25
TORSDOF 2
ENDMDL
MODEL       82
REMARK 921   NORMALIZED FREE ENERGY PREDICTED BY IDOCK:   -2.60 KCAL/MOL
REMARK 922        TOTAL FREE ENERGY PREDICTED BY IDOCK:   -1.85 KCAL/MOL
REMARK 923 INTER-LIGAND FREE ENERGY PREDICTED BY IDOCK:   -3.30 KCAL/MOL
REMARK 924 INTRA-LIGAND FREE ENERGY PREDICTED BY IDOCK:    1.45 KCAL/MOL
REMARK 927      BINDING AFFINITY PREDICTED BY RF-SCORE:    0.00 PKD
ROOT
HETATM    1  C   UNL     1      -9.885  12.588  68.299  1.00  0.00    -0.227 C  
HETATM    2  C   UNL     1      -8.792  13.352  68.725  1.00  0.00     0.122 C  
HETATM    3  C   UNL     1      -9.006  13.244  67.263  1.00  0.00    -0.217 C  
HETATM    4  C   UNL     1     -10.917  12.561  66.742  1.00  0.00    -0.304 C  
HETATM    5  C   UNL     1      -7.451  13.979  67.093  1.00  0.00     0.085 C  
HETATM    6  C   UNL     1      -9.086   8.592  65.530  1.00  0.00    -0.190 C  
HETATM    7  C   UNL     1     -12.141  12.204  67.861  1.00  0.00    -0.027 C  
HETATM    8  C   UNL     1     -10.365  13.805  66.874  1.00  0.00    -0.266 C  
HETATM    9  C   UNL     1     -10.995  15.088  67.349  1.00  0.00    -0.315 C  
HETATM   10  C   UNL     1      -9.754  13.421  65.147  1.00  0.00     0.036 C  
HETATM   11  C   UNL     1      -7.924   9.525  65.898  1.00  0.00    -0.111 C  
HETATM   12  C   UNL     1      -6.761   9.769  64.793  1.00  0.00    -0.114 C  
HETATM   13  C   UNL     1      -5.473   9.405  64.858  1.00  0.00    -0.053 C  
HETATM   14  C   UNL     1      -9.303  11.726  64.998  1.00  0.00     0.017 C  
HETATM   15  C   UNL     1      -8.508  10.925  66.260  1.00  0.00    -0.166 C  
HETATM   16  O   UNL     1     -10.499  11.010  64.661  1.00  0.00    -0.324 OA 
HETATM   17  C   UNL     1      -9.312  10.962  67.719  1.00  0.00    -0.162 C  
HETATM   18  H   UNL     1     -10.255  10.096  64.580  1.00  0.00     0.000 HD 
HETATM   19  C   UNL     1      -8.451  10.317  68.819  1.00  0.00    -0.130 C  
HETATM   20  C   UNL     1      -7.943   8.933  68.456  1.00  0.00    -0.104 C  
HETATM   21  C   UNL     1      -7.245   8.884  67.131  1.00  0.00    -0.083 C  
HETATM   22  C   UNL     1      -6.106   8.191  66.961  1.00  0.00    -0.054 C  
HETATM   23  C   UNL     1      -5.769   8.055  65.538  1.00  0.00    -0.037 C  
HETATM   24  O   UNL     1      -5.792   6.988  64.938  1.00  0.00    -0.035 OA 
ENDROOT
BRANCH   4  25
HETATM   25  C   UNL     1     -12.227  13.057  65.589  1.00  0.00    -0.466 C  
HETATM   26  O   UNL     1     -13.083  12.253  65.183  1.00  0.00    -0.404 OA 
BRANCH  25  27
HETATM   27  C   UNL     1     -12.321  14.449  64.849  1.00  0.00    -0.414 C  
HETATM   28  C   UNL     1     -12.185  14.280  63.301  1.00  0.00     0.642 C  
ENDBRANCH  25  27
ENDBRANCH   4  25
TORSDOF 2
ENDMDL
MODEL       83
REMARK 921   NORMALIZED FREE ENERGY PREDICTED BY IDOCK:   -2.41 KCAL/MOL
REMARK 922        TOTAL FREE ENERGY PREDICTED BY IDOCK:   -1.64 KCAL/MOL
REMARK 923 INTER-LIGAND FREE ENERGY PREDICTED BY IDOCK:   -3.11 KCAL/MOL
REMARK 924 INTRA-LIGAND FREE ENERGY PREDICTED BY IDOCK:    1.47 KCAL/MOL
REMARK 927      BINDING AFFINITY PREDICTED BY RF-SCORE:    0.00 PKD
ROOT
HETATM    1  C   UNL     1      -5.824  14.777  67.943  1.00  0.00    -0.146 C  
HETATM    2  C   UNL     1      -5.127  15.528  68.896  1.00  0.00    -0.099 C  
HETATM    3  C   UNL     1      -6.532  15.182  69.212  1.00  0.00    -0.125 C  
HETATM    4  C   UNL     1      -7.306  13.642  68.020  1.00  0.00    -0.131 C  
HETATM    5  C   UNL     1      -6.392  16.285  70.535  1.00  0.00     0.504 C  
HETATM    6  C   UNL     1      -9.838  16.705  65.835  1.00  0.00    -0.301 C  
HETATM    7  C   UNL     1      -6.418  12.816  66.832  1.00  0.00     0.509 C  
HETATM    8  C   UNL     1      -6.720  13.672  69.255  1.00  0.00    -0.094 C  
HETATM    9  C   UNL     1      -5.824  12.658  69.917  1.00  0.00    -0.133 C  
HETATM   10  C   UNL     1      -8.455  14.150  69.768  1.00  0.00     0.980 C  
HETATM   11  C   UNL     1      -9.132  17.445  66.980  1.00  0.00    -0.251 C  
HETATM   12  C   UNL     1     -10.049  18.260  68.042  1.00  0.00    -0.381 C  
HETATM   13  C   UNL     1     -10.094  19.585  68.246  1.00  0.00    -0.542 C  
HETATM   14  C   UNL     1      -9.200  15.206  68.573  1.00  0.00    -0.192 C  
HETATM   15  C   UNL     1      -8.300  16.412  67.798  1.00  0.00    -0.172 C  
HETATM   16  O   UNL     1      -9.799  14.354  67.588  1.00  0.00    -0.220 OA 
HETATM   17  C   UNL     1      -6.943  15.860  67.002  1.00  0.00    -0.173 C  
HETATM   18  H   UNL     1     -10.201  14.924  66.943  1.00  0.00     0.000 HD 
HETATM   19  C   UNL     1      -6.135  17.043  66.442  1.00  0.00    -0.106 C  
HETATM   20  C   UNL     1      -6.965  18.001  65.606  1.00  0.00    -0.176 C  
HETATM   21  C   UNL     1      -8.203  18.479  66.302  1.00  0.00    -0.248 C  
HETATM   22  C   UNL     1      -8.589  19.765  66.246  1.00  0.00    -0.397 C  
HETATM   23  C   UNL     1      -9.957  19.935  66.752  1.00  0.00    -0.444 C  
HETATM   24  O   UNL     1     -10.904  20.254  66.044  1.00  0.00    -0.197 OA 
ENDROOT
BRANCH   4  25
HETATM   25  C   UNL     1      -8.226  12.101  68.286  1.00  0.00    -0.168 C  
HETATM   26  O   UNL     1      -9.459  12.040  68.149  1.00  0.00    -0.189 OA 
BRANCH  25  27
HETATM   27  C   UNL     1      -7.629  10.766  68.885  1.00  0.00    -0.121 C  
HETATM   28  C   UNL     1      -8.605  10.120  69.921  1.00  0.00    -0.100 C  
ENDBRANCH  25  27
ENDBRANCH   4  25
TORSDOF 2
ENDMDL
MODEL       84
REMARK 921   NORMALIZED FREE ENERGY PREDICTED BY IDOCK:   -2.39 KCAL/MOL
REMARK 922        TOTAL FREE ENERGY PREDICTED BY IDOCK:   -1.61 KCAL/MOL
REMARK 923 INTER-LIGAND FREE ENERGY PREDICTED BY IDOCK:   -3.22 KCAL/MOL
REMARK 924 INTRA-LIGAND FREE ENERGY PREDICTED BY IDOCK:    1.61 KCAL/MOL
REMARK 927      BINDING AFFINITY PREDICTED BY RF-SCORE:    0.00 PKD
ROOT
HETATM    1  C   UNL     1      -6.945   4.961  69.796  1.00  0.00    -0.053 C  
HETATM    2  C   UNL     1      -5.582   5.276  69.774  1.00  0.00    -0.012 C  
HETATM    3  C   UNL     1      -6.519   6.377  70.099  1.00  0.00    -0.040 C  
HETATM    4  C   UNL     1      -8.435   5.718  70.632  1.00  0.00    -0.128 C  
HETATM    5  C   UNL     1      -5.161   7.433  69.936  1.00  0.00    -0.023 C  
HETATM    6  C   UNL     1      -9.982   7.220  66.643  1.00  0.00    -0.246 C  
HETATM    7  C   UNL     1      -8.888   4.086  70.740  1.00  0.00    -0.134 C  
HETATM    8  C   UNL     1      -7.320   6.052  71.350  1.00  0.00    -0.084 C  
HETATM    9  C   UNL     1      -6.803   5.475  72.643  1.00  0.00    -0.077 C  
HETATM   10  C   UNL     1      -7.989   7.777  71.073  1.00  0.00    -0.090 C  
HETATM   11  C   UNL     1      -8.509   7.641  66.737  1.00  0.00    -0.127 C  
HETATM   12  C   UNL     1      -8.153   9.215  66.564  1.00  0.00    -0.107 C  
HETATM   13  C   UNL     1      -7.455   9.799  65.580  1.00  0.00    -0.115 C  
HETATM   14  C   UNL     1      -8.686   7.934  69.464  1.00  0.00    -0.134 C  
HETATM   15  C   UNL     1      -7.955   7.199  68.125  1.00  0.00    -0.119 C  
HETATM   16  O   UNL     1     -10.047   7.496  69.561  1.00  0.00    -0.181 OA 
HETATM   17  C   UNL     1      -7.740   5.553  68.271  1.00  0.00    -0.085 C  
HETATM   18  H   UNL     1     -10.423   7.581  68.694  1.00  0.00     0.000 HD 
HETATM   19  C   UNL     1      -6.961   5.008  67.062  1.00  0.00    -0.064 C  
HETATM   20  C   UNL     1      -7.558   5.412  65.725  1.00  0.00    -0.083 C  
HETATM   21  C   UNL     1      -7.784   6.888  65.596  1.00  0.00    -0.102 C  
HETATM   22  C   UNL     1      -7.483   7.550  64.465  1.00  0.00    -0.098 C  
HETATM   23  C   UNL     1      -8.048   8.906  64.474  1.00  0.00    -0.150 C  
HETATM   24  O   UNL     1      -8.947   9.266  63.725  1.00  0.00    -0.183 OA 
ENDROOT
BRANCH   4  25
HETATM   25  C   UNL     1      -9.623   6.050  71.963  1.00  0.00    -0.152 C  
HETATM   26  O   UNL     1     -10.465   6.959  71.880  1.00  0.00    -0.201 OA 
BRANCH  25  27
HETATM   27  C   UNL     1      -9.605   5.387  73.397  1.00  0.00    -0.151 C  
HETATM   28  C   UNL     1     -10.326   6.290  74.450  1.00  0.00    -0.278 C  
ENDBRANCH  25  27
ENDBRANCH   4  25
TORSDOF 2
ENDMDL
MODEL       85
REMARK 921   NORMALIZED FREE ENERGY PREDICTED BY IDOCK:   -2.37 KCAL/MOL
REMARK 922        TOTAL FREE ENERGY PREDICTED BY IDOCK:   -1.59 KCAL/MOL
REMARK 923 INTER-LIGAND FREE ENERGY PREDICTED BY IDOCK:   -3.03 KCAL/MOL
REMARK 924 INTRA-LIGAND FREE ENERGY PREDICTED BY IDOCK:    1.44 KCAL/MOL
REMARK 927      BINDING AFFINITY PREDICTED BY RF-SCORE:    0.00 PKD
ROOT
HETATM    1  C   UNL     1      -9.167   8.397  68.144  1.00  0.00    -0.141 C  
HETATM    2  C   UNL     1     -10.297   8.437  67.320  1.00  0.00    -0.369 C  
HETATM    3  C   UNL     1     -10.059   7.182  68.071  1.00  0.00    -0.201 C  
HETATM    4  C   UNL     1      -8.697   7.395  69.649  1.00  0.00    -0.137 C  
HETATM    5  C   UNL     1     -11.309   6.491  67.099  1.00  0.00    -0.108 C  
HETATM    6  C   UNL     1      -5.641   5.082  67.225  1.00  0.00    -0.013 C  
HETATM    7  C   UNL     1      -7.959   8.860  70.082  1.00  0.00    -0.111 C  
HETATM    8  C   UNL     1     -10.061   7.442  69.570  1.00  0.00    -0.187 C  
HETATM    9  C   UNL     1     -11.039   8.281  70.351  1.00  0.00    -0.238 C  
HETATM   10  C   UNL     1      -9.860   5.583  69.644  1.00  0.00    -0.258 C  
HETATM   11  C   UNL     1      -6.951   5.061  66.426  1.00  0.00    -0.067 C  
HETATM   12  C   UNL     1      -7.563   3.620  65.999  1.00  0.00    -0.081 C  
HETATM   13  C   UNL     1      -7.703   3.117  64.764  1.00  0.00    -0.078 C  
HETATM   14  C   UNL     1      -8.447   5.063  68.731  1.00  0.00    -0.086 C  
HETATM   15  C   UNL     1      -8.049   5.792  67.256  1.00  0.00    -0.102 C  
HETATM   16  O   UNL     1      -7.327   5.151  69.622  1.00  0.00    -0.058 OA 
HETATM   17  C   UNL     1      -7.846   7.445  67.334  1.00  0.00    -0.111 C  
HETATM   18  H   UNL     1      -6.566   4.871  69.130  1.00  0.00     0.000 HD 
HETATM   19  C   UNL     1      -7.611   8.020  65.927  1.00  0.00    -0.086 C  
HETATM   20  C   UNL     1      -6.499   7.320  65.165  1.00  0.00    -0.040 C  
HETATM   21  C   UNL     1      -6.657   5.830  65.116  1.00  0.00    -0.043 C  
HETATM   22  C   UNL     1      -6.428   5.135  63.989  1.00  0.00    -0.033 C  
HETATM   23  C   UNL     1      -6.369   3.692  64.254  1.00  0.00    -0.023 C  
HETATM   24  O   UNL     1      -5.345   3.028  64.147  1.00  0.00    -0.008 OA 
ENDROOT
BRANCH   4  25
HETATM   25  C   UNL     1      -8.626   6.935  71.403  1.00  0.00    -0.119 C  
HETATM   26  O   UNL     1      -9.628   6.980  72.135  1.00  0.00    -0.148 OA 
BRANCH  25  27
HETATM   27  C   UNL     1      -7.308   6.626  72.219  1.00  0.00    -0.089 C  
HETATM   28  C   UNL     1      -7.503   5.403  73.172  1.00  0.00    -0.092 C  
ENDBRANCH  25  27
ENDBRANCH   4  25
TORSDOF 2
ENDMDL
MODEL       86
REMARK 921   NORMALIZED FREE ENERGY PREDICTED BY IDOCK:   -2.31 KCAL/MOL
REMARK 922        TOTAL FREE ENERGY PREDICTED BY IDOCK:   -1.52 KCAL/MOL
REMARK 923 INTER-LIGAND FREE ENERGY PREDICTED BY IDOCK:   -3.68 KCAL/MOL
REMARK 924 INTRA-LIGAND FREE ENERGY PREDICTED BY IDOCK:    2.15 KCAL/MOL
REMARK 927      BINDING AFFINITY PREDICTED BY RF-SCORE:    0.00 PKD
ROOT
HETATM    1  C   UNL     1      -8.314   8.573  69.191  1.00  0.00    -0.120 C  
HETATM    2  C   UNL     1      -7.856   8.304  67.897  1.00  0.00    -0.114 C  
HETATM    3  C   UNL     1      -9.055   7.563  68.351  1.00  0.00    -0.133 C  
HETATM    4  C   UNL     1      -9.968   8.400  70.042  1.00  0.00    -0.188 C  
HETATM    5  C   UNL     1      -8.863   6.598  66.931  1.00  0.00    -0.118 C  
HETATM    6  C   UNL     1      -8.400   4.937  72.513  1.00  0.00    -0.119 C  
HETATM    7  C   UNL     1      -9.438   9.818  70.810  1.00  0.00     0.038 C  
HETATM    8  C   UNL     1     -10.184   8.524  68.697  1.00  0.00    -0.217 C  
HETATM    9  C   UNL     1     -10.641   9.721  67.905  1.00  0.00    -0.310 C  
HETATM   10  C   UNL     1     -11.124   6.930  68.977  1.00  0.00    -0.188 C  
HETATM   11  C   UNL     1      -8.034   4.643  71.052  1.00  0.00    -0.082 C  
HETATM   12  C   UNL     1      -8.529   3.238  70.408  1.00  0.00    -0.095 C  
HETATM   13  C   UNL     1      -7.775   2.209  69.996  1.00  0.00    -0.045 C  
HETATM   14  C   UNL     1     -10.301   5.906  70.149  1.00  0.00    -0.241 C  
HETATM   15  C   UNL     1      -8.613   5.781  70.158  1.00  0.00    -0.128 C  
HETATM   16  O   UNL     1     -10.753   6.321  71.445  1.00  0.00    -0.231 OA 
HETATM   17  C   UNL     1      -7.811   7.234  70.315  1.00  0.00    -0.096 C  
HETATM   18  H   UNL     1     -10.310   5.769  72.077  1.00  0.00     0.000 HD 
HETATM   19  C   UNL     1      -6.293   7.022  70.188  1.00  0.00    -0.035 C  
HETATM   20  C   UNL     1      -5.753   5.943  71.110  1.00  0.00    -0.018 C  
HETATM   21  C   UNL     1      -6.488   4.642  70.998  1.00  0.00    -0.026 C  
HETATM   22  C   UNL     1      -5.837   3.466  70.977  1.00  0.00    -0.014 C  
HETATM   23  C   UNL     1      -6.763   2.339  71.149  1.00  0.00    -0.031 C  
HETATM   24  O   UNL     1      -6.774   1.621  72.140  1.00  0.00    -0.014 OA 
ENDROOT
BRANCH   4  25
HETATM   25  C   UNL     1     -11.651   8.855  70.545  1.00  0.00    -0.160 C  
HETATM   26  O   UNL     1     -12.141   9.963  70.271  1.00  0.00    -0.207 OA 
BRANCH  25  27
HETATM   27  C   UNL     1     -12.579   8.018  71.511  1.00  0.00    -0.332 C  
HETATM   28  C   UNL     1     -13.400   8.949  72.461  1.00  0.00    -0.451 C  
ENDBRANCH  25  27
ENDBRANCH   4  25
TORSDOF 2
ENDMDL
MODEL       87
REMARK 921   NORMALIZED FREE ENERGY PREDICTED BY IDOCK:   -2.24 KCAL/MOL
REMARK 922        TOTAL FREE ENERGY PREDICTED BY IDOCK:   -1.45 KCAL/MOL
REMARK 923 INTER-LIGAND FREE ENERGY PREDICTED BY IDOCK:   -3.82 KCAL/MOL
REMARK 924 INTRA-LIGAND FREE ENERGY PREDICTED BY IDOCK:    2.37 KCAL/MOL
REMARK 927      BINDING AFFINITY PREDICTED BY RF-SCORE:    0.00 PKD
ROOT
HETATM    1  C   UNL     1      -8.283   8.445  68.850  1.00  0.00    -0.115 C  
HETATM    2  C   UNL     1      -8.442   9.524  67.974  1.00  0.00    -0.119 C  
HETATM    3  C   UNL     1      -9.448   8.440  67.892  1.00  0.00    -0.164 C  
HETATM    4  C   UNL     1      -9.450   7.169  69.557  1.00  0.00    -0.151 C  
HETATM    5  C   UNL     1     -10.003   9.214  66.450  1.00  0.00    -0.358 C  
HETATM    6  C   UNL     1      -7.555   3.938  67.001  1.00  0.00    -0.080 C  
HETATM    7  C   UNL     1      -8.443   7.365  70.909  1.00  0.00    -0.123 C  
HETATM    8  C   UNL     1     -10.175   8.277  69.218  1.00  0.00    -0.207 C  
HETATM    9  C   UNL     1     -10.728   9.368  70.098  1.00  0.00    -0.282 C  
HETATM   10  C   UNL     1     -11.149   7.009  68.247  1.00  0.00    -0.080 C  
HETATM   11  C   UNL     1      -7.869   5.116  66.069  1.00  0.00    -0.103 C  
HETATM   12  C   UNL     1      -8.791   4.834  64.764  1.00  0.00    -0.153 C  
HETATM   13  C   UNL     1      -8.438   4.909  63.473  1.00  0.00    -0.128 C  
HETATM   14  C   UNL     1     -10.085   5.794  67.545  1.00  0.00    -0.171 C  
HETATM   15  C   UNL     1      -8.582   6.227  66.898  1.00  0.00    -0.113 C  
HETATM   16  O   UNL     1      -9.899   4.785  68.545  1.00  0.00    -0.157 OA 
HETATM   17  C   UNL     1      -7.575   7.026  67.959  1.00  0.00    -0.111 C  
HETATM   18  H   UNL     1      -9.325   4.130  68.167  1.00  0.00     0.000 HD 
HETATM   19  C   UNL     1      -6.294   7.480  67.240  1.00  0.00    -0.053 C  
HETATM   20  C   UNL     1      -5.595   6.362  66.486  1.00  0.00    -0.013 C  
HETATM   21  C   UNL     1      -6.500   5.618  65.551  1.00  0.00    -0.039 C  
HETATM   22  C   UNL     1      -6.101   5.269  64.316  1.00  0.00    -0.022 C  
HETATM   23  C   UNL     1      -7.035   4.316  63.703  1.00  0.00    -0.045 C  
HETATM   24  O   UNL     1      -6.749   3.150  63.464  1.00  0.00    -0.033 OA 
ENDROOT
BRANCH   4  25
HETATM   25  C   UNL     1     -10.688   6.470  70.684  1.00  0.00    -0.248 C  
HETATM   26  O   UNL     1     -11.776   7.032  70.894  1.00  0.00    -0.309 OA 
BRANCH  25  27
HETATM   27  C   UNL     1     -10.468   5.229  71.637  1.00  0.00    -0.280 C  
HETATM   28  C   UNL     1      -9.020   4.656  71.499  1.00  0.00    -0.165 C  
ENDBRANCH  25  27
ENDBRANCH   4  25
TORSDOF 2
ENDMDL
MODEL       88
REMARK 921   NORMALIZED FREE ENERGY PREDICTED BY IDOCK:   -2.23 KCAL/MOL
REMARK 922        TOTAL FREE ENERGY PREDICTED BY IDOCK:   -1.44 KCAL/MOL
REMARK 923 INTER-LIGAND FREE ENERGY PREDICTED BY IDOCK:   -3.37 KCAL/MOL
REMARK 924 INTRA-LIGAND FREE ENERGY PREDICTED BY IDOCK:    1.93 KCAL/MOL
REMARK 927      BINDING AFFINITY PREDICTED BY RF-SCORE:    0.00 PKD
ROOT
HETATM    1  C   UNL     1     -11.788  13.153  68.499  1.00  0.00    -0.377 C  
HETATM    2  C   UNL     1     -11.744  13.881  69.694  1.00  0.00    -0.370 C  
HETATM    3  C   UNL     1     -10.641  14.105  68.731  1.00  0.00    -0.258 C  
HETATM    4  C   UNL     1     -11.060  13.411  66.798  1.00  0.00    -0.308 C  
HETATM    5  C   UNL     1      -9.860  14.983  69.997  1.00  0.00     0.089 C  
HETATM    6  C   UNL     1      -8.143  10.004  67.469  1.00  0.00    -0.110 C  
HETATM    7  C   UNL     1     -12.530  12.701  66.337  1.00  0.00     0.288 C  
HETATM    8  C   UNL     1     -11.178  14.629  67.407  1.00  0.00    -0.351 C  
HETATM    9  C   UNL     1     -12.210  15.708  67.202  1.00  0.00     1.033 C  
HETATM   10  C   UNL     1      -9.358  14.715  66.984  1.00  0.00    -0.244 C  
HETATM   11  C   UNL     1      -8.055  10.915  68.701  1.00  0.00    -0.143 C  
HETATM   12  C   UNL     1      -6.601  11.507  69.112  1.00  0.00    -0.102 C  
HETATM   13  C   UNL     1      -5.884  11.244  70.214  1.00  0.00    -0.146 C  
HETATM   14  C   UNL     1      -8.586  13.146  67.187  1.00  0.00    -0.192 C  
HETATM   15  C   UNL     1      -8.997  12.137  68.482  1.00  0.00    -0.082 C  
HETATM   16  O   UNL     1      -8.769  12.435  65.955  1.00  0.00    -0.407 OA 
HETATM   17  C   UNL     1     -10.619  11.762  68.580  1.00  0.00    -0.250 C  
HETATM   18  H   UNL     1      -8.353  11.589  66.065  1.00  0.00     0.000 HD 
HETATM   19  C   UNL     1     -10.902  10.948  69.854  1.00  0.00    -0.205 C  
HETATM   20  C   UNL     1     -10.002   9.735  70.010  1.00  0.00    -0.299 C  
HETATM   21  C   UNL     1      -8.543  10.058  69.893  1.00  0.00    -0.171 C  
HETATM   22  C   UNL     1      -7.635   9.520  70.725  1.00  0.00    -0.099 C  
HETATM   23  C   UNL     1      -6.266   9.752  70.245  1.00  0.00    -0.074 C  
HETATM   24  O   UNL     1      -5.531   8.859  69.845  1.00  0.00    -0.029 OA 
ENDROOT
BRANCH   4  25
HETATM   25  C   UNL     1     -10.935  14.056  65.107  1.00  0.00    -0.353 C  
HETATM   26  O   UNL     1     -10.111  13.611  64.293  1.00  0.00    -0.313 OA 
BRANCH  25  27
HETATM   27  C   UNL     1     -11.688  15.331  64.553  1.00  0.00    -0.306 C  
HETATM   28  C   UNL     1     -10.757  16.587  64.555  1.00  0.00     0.408 C  
ENDBRANCH  25  27
ENDBRANCH   4  25
TORSDOF 2
ENDMDL
MODEL       89
REMARK 921   NORMALIZED FREE ENERGY PREDICTED BY IDOCK:   -1.90 KCAL/MOL
REMARK 922        TOTAL FREE ENERGY PREDICTED BY IDOCK:   -1.07 KCAL/MOL
REMARK 923 INTER-LIGAND FREE ENERGY PREDICTED BY IDOCK:   -2.83 KCAL/MOL
REMARK 924 INTRA-LIGAND FREE ENERGY PREDICTED BY IDOCK:    1.76 KCAL/MOL
REMARK 927      BINDING AFFINITY PREDICTED BY RF-SCORE:    0.00 PKD
ROOT
HETATM    1  C   UNL     1      -8.696  10.514  69.325  1.00  0.00    -0.135 C  
HETATM    2  C   UNL     1      -8.538   9.757  70.491  1.00  0.00    -0.003 C  
HETATM    3  C   UNL     1      -7.392   9.789  69.551  1.00  0.00    -0.092 C  
HETATM    4  C   UNL     1      -7.505  11.337  68.143  1.00  0.00    -0.091 C  
HETATM    5  C   UNL     1      -6.707   8.531  70.516  1.00  0.00    -0.038 C  
HETATM    6  C   UNL     1      -8.460   8.262  64.949  1.00  0.00    -0.115 C  
HETATM    7  C   UNL     1      -8.750  12.489  68.089  1.00  0.00    -0.190 C  
HETATM    8  C   UNL     1      -6.892  11.213  69.359  1.00  0.00    -0.125 C  
HETATM    9  C   UNL     1      -6.657  12.252  70.425  1.00  0.00     0.698 C  
HETATM   10  C   UNL     1      -5.598  10.356  68.315  1.00  0.00    -0.037 C  
HETATM   11  C   UNL     1      -8.155   7.486  66.238  1.00  0.00    -0.113 C  
HETATM   12  C   UNL     1      -6.989   6.358  66.193  1.00  0.00    -0.066 C  
HETATM   13  C   UNL     1      -7.118   5.033  66.341  1.00  0.00    -0.072 C  
HETATM   14  C   UNL     1      -6.345   9.389  67.047  1.00  0.00    -0.066 C  
HETATM   15  C   UNL     1      -7.757   8.506  67.348  1.00  0.00    -0.098 C  
HETATM   16  O   UNL     1      -6.562  10.267  65.935  1.00  0.00    -0.097 OA 
HETATM   17  C   UNL     1      -9.034   9.414  67.916  1.00  0.00    -0.126 C  
HETATM   18  H   UNL     1      -6.965   9.746  65.252  1.00  0.00     0.000 HD 
HETATM   19  C   UNL     1     -10.221   8.502  68.272  1.00  0.00    -0.244 C  
HETATM   20  C   UNL     1     -10.616   7.558  67.150  1.00  0.00    -0.415 C  
HETATM   21  C   UNL     1      -9.468   6.759  66.612  1.00  0.00    -0.205 C  
HETATM   22  C   UNL     1      -9.593   5.451  66.330  1.00  0.00    -0.172 C  
HETATM   23  C   UNL     1      -8.443   4.958  65.560  1.00  0.00    -0.130 C  
HETATM   24  O   UNL     1      -8.519   4.593  64.394  1.00  0.00    -0.118 OA 
ENDROOT
BRANCH   4  25
HETATM   25  C   UNL     1      -6.398  12.624  67.503  1.00  0.00    -0.159 C  
HETATM   26  O   UNL     1      -5.337  12.347  66.920  1.00  0.00    -0.333 OA 
BRANCH  25  27
HETATM   27  C   UNL     1      -6.542  14.175  67.768  1.00  0.00    -0.188 C  
HETATM   28  C   UNL     1      -5.270  14.753  68.468  1.00  0.00    -0.103 C  
ENDBRANCH  25  27
ENDBRANCH   4  25
TORSDOF 2
ENDMDL
MODEL       90
REMARK 921   NORMALIZED FREE ENERGY PREDICTED BY IDOCK:   -1.74 KCAL/MOL
REMARK 922        TOTAL FREE ENERGY PREDICTED BY IDOCK:   -0.89 KCAL/MOL
REMARK 923 INTER-LIGAND FREE ENERGY PREDICTED BY IDOCK:   -3.19 KCAL/MOL
REMARK 924 INTRA-LIGAND FREE ENERGY PREDICTED BY IDOCK:    2.31 KCAL/MOL
REMARK 927      BINDING AFFINITY PREDICTED BY RF-SCORE:    0.00 PKD
ROOT
HETATM    1  C   UNL     1      -8.000  10.364  67.119  1.00  0.00    -0.115 C  
HETATM    2  C   UNL     1      -8.116   9.358  66.153  1.00  0.00    -0.111 C  
HETATM    3  C   UNL     1      -9.140   9.382  67.223  1.00  0.00    -0.150 C  
HETATM    4  C   UNL     1      -9.208  11.189  68.281  1.00  0.00    -0.169 C  
HETATM    5  C   UNL     1      -9.644   7.842  66.623  1.00  0.00    -0.286 C  
HETATM    6  C   UNL     1      -7.312   9.099  71.830  1.00  0.00     0.226 C  
HETATM    7  C   UNL     1      -8.232  12.534  67.936  1.00  0.00    -0.165 C  
HETATM    8  C   UNL     1      -9.904  10.698  67.211  1.00  0.00    -0.206 C  
HETATM    9  C   UNL     1     -10.458  11.422  66.012  1.00  0.00    -0.305 C  
HETATM   10  C   UNL     1     -10.877   9.862  68.573  1.00  0.00    -0.257 C  
HETATM   11  C   UNL     1      -7.579   8.022  70.770  1.00  0.00    -0.077 C  
HETATM   12  C   UNL     1      -8.474   6.737  71.195  1.00  0.00    -0.125 C  
HETATM   13  C   UNL     1      -8.087   5.456  71.284  1.00  0.00    -0.115 C  
HETATM   14  C   UNL     1      -9.819   9.343  69.881  1.00  0.00    -0.210 C  
HETATM   15  C   UNL     1      -8.292   8.689  69.555  1.00  0.00    -0.117 C  
HETATM   16  O   UNL     1      -9.677  10.464  70.763  1.00  0.00     0.003 OA 
HETATM   17  C   UNL     1      -7.297   9.672  68.648  1.00  0.00    -0.074 C  
HETATM   18  H   UNL     1      -9.106  10.184  71.468  1.00  0.00     0.000 HD 
HETATM   19  C   UNL     1      -5.990   8.938  68.306  1.00  0.00    -0.042 C  
HETATM   20  C   UNL     1      -5.293   8.345  69.518  1.00  0.00    -0.030 C  
HETATM   21  C   UNL     1      -6.189   7.485  70.357  1.00  0.00    -0.034 C  
HETATM   22  C   UNL     1      -5.766   6.312  70.861  1.00  0.00    -0.022 C  
HETATM   23  C   UNL     1      -6.703   5.795  71.867  1.00  0.00    -0.059 C  
HETATM   24  O   UNL     1      -6.433   5.708  73.058  1.00  0.00    -0.059 OA 
ENDROOT
BRANCH   4  25
HETATM   25  C   UNL     1     -10.488  12.359  68.816  1.00  0.00    -0.154 C  
HETATM   26  O   UNL     1     -11.185  12.154  69.823  1.00  0.00    -0.145 OA 
BRANCH  25  27
HETATM   27  C   UNL     1     -10.980  13.619  68.000  1.00  0.00    -0.270 C  
HETATM   28  C   UNL     1     -12.317  13.322  67.247  1.00  0.00    -0.126 C  
ENDBRANCH  25  27
ENDBRANCH   4  25
TORSDOF 2
ENDMDL
MODEL       91
REMARK 921   NORMALIZED FREE ENERGY PREDICTED BY IDOCK:   -1.43 KCAL/MOL
REMARK 922        TOTAL FREE ENERGY PREDICTED BY IDOCK:   -0.55 KCAL/MOL
REMARK 923 INTER-LIGAND FREE ENERGY PREDICTED BY IDOCK:   -1.60 KCAL/MOL
REMARK 924 INTRA-LIGAND FREE ENERGY PREDICTED BY IDOCK:    1.06 KCAL/MOL
REMARK 927      BINDING AFFINITY PREDICTED BY RF-SCORE:    0.00 PKD
ROOT
HETATM    1  C   UNL     1      -9.896  11.144  70.077  1.00  0.00     1.080 C  
HETATM    2  C   UNL     1     -11.194  11.075  70.596  1.00  0.00     0.199 C  
HETATM    3  C   UNL     1     -10.941  10.356  69.326  1.00  0.00    -0.287 C  
HETATM    4  C   UNL     1      -8.906  10.064  68.918  1.00  0.00    -0.148 C  
HETATM    5  C   UNL     1     -12.653  10.147  69.230  1.00  0.00     0.937 C  
HETATM    6  C   UNL     1      -9.184  13.205  65.659  1.00  0.00     0.365 C  
HETATM    7  C   UNL     1      -7.647  10.548  69.947  1.00  0.00    -0.053 C  
HETATM    8  C   UNL     1      -9.867   9.294  69.512  1.00  0.00    -0.188 C  
HETATM    9  C   UNL     1      -9.742   8.309  70.645  1.00  0.00    -0.191 C  
HETATM   10  C   UNL     1     -10.282   8.913  67.728  1.00  0.00    -0.283 C  
HETATM   11  C   UNL     1     -10.607  12.991  66.194  1.00  0.00    -0.289 C  
HETATM   12  C   UNL     1     -11.769  12.586  65.136  1.00  0.00    -0.422 C  
HETATM   13  C   UNL     1     -12.842  13.303  64.776  1.00  0.00    -0.259 C  
HETATM   14  C   UNL     1     -10.096  10.342  66.715  1.00  0.00    -0.216 C  
HETATM   15  C   UNL     1     -10.566  11.869  67.275  1.00  0.00    -0.261 C  
HETATM   16  O   UNL     1      -8.720  10.386  66.316  1.00  0.00    -0.146 OA 
HETATM   17  C   UNL     1      -9.844  12.336  68.703  1.00  0.00    -0.098 C  
HETATM   18  H   UNL     1      -8.620  11.156  65.770  1.00  0.00     0.000 HD 
HETATM   19  C   UNL     1     -10.429  13.674  69.184  1.00  0.00    -0.016 C  
HETATM   20  C   UNL     1     -10.405  14.761  68.124  1.00  0.00    -0.239 C  
HETATM   21  C   UNL     1     -11.025  14.340  66.826  1.00  0.00    -0.304 C  
HETATM   22  C   UNL     1     -11.840  15.158  66.137  1.00  0.00     0.097 C  
HETATM   23  C   UNL     1     -12.090  14.647  64.784  1.00  0.00    -0.421 C  
HETATM   24  O   UNL     1     -11.681  15.197  63.769  1.00  0.00    -0.114 OA 
ENDROOT
BRANCH   4  25
HETATM   25  C   UNL     1      -7.847   8.682  68.407  1.00  0.00    -0.105 C  
HETATM   26  O   UNL     1      -7.000   8.802  67.507  1.00  0.00    -0.073 OA 
BRANCH  25  27
HETATM   27  C   UNL     1      -7.998   7.183  68.884  1.00  0.00    -0.120 C  
HETATM   28  C   UNL     1      -6.702   6.680  69.599  1.00  0.00    -0.050 C  
ENDBRANCH  25  27
ENDBRANCH   4  25
TORSDOF 2
ENDMDL
MODEL       92
REMARK 921   NORMALIZED FREE ENERGY PREDICTED BY IDOCK:   -1.23 KCAL/MOL
REMARK 922        TOTAL FREE ENERGY PREDICTED BY IDOCK:   -0.32 KCAL/MOL
REMARK 923 INTER-LIGAND FREE ENERGY PREDICTED BY IDOCK:   -1.42 KCAL/MOL
REMARK 924 INTRA-LIGAND FREE ENERGY PREDICTED BY IDOCK:    1.10 KCAL/MOL
REMARK 927      BINDING AFFINITY PREDICTED BY RF-SCORE:    0.00 PKD
ROOT
HETATM    1  C   UNL     1      -9.653  11.322  66.548  1.00  0.00    -0.215 C  
HETATM    2  C   UNL     1     -10.770  10.781  67.193  1.00  0.00    -0.324 C  
HETATM    3  C   UNL     1      -9.510  10.840  67.971  1.00  0.00    -0.166 C  
HETATM    4  C   UNL     1      -8.075  12.124  67.145  1.00  0.00    -0.175 C  
HETATM    5  C   UNL     1     -10.314   9.856  69.141  1.00  0.00    -0.225 C  
HETATM    6  C   UNL     1      -5.676   8.497  65.859  1.00  0.00    -0.046 C  
HETATM    7  C   UNL     1      -8.319  13.059  65.750  1.00  0.00     1.727 C  
HETATM    8  C   UNL     1      -9.030  12.277  68.111  1.00  0.00    -0.192 C  
HETATM    9  C   UNL     1      -9.857  13.487  68.460  1.00  0.00    -0.189 C  
HETATM   10  C   UNL     1      -7.708  11.472  69.164  1.00  0.00     0.030 C  
HETATM   11  C   UNL     1      -6.863   7.977  66.683  1.00  0.00    -0.068 C  
HETATM   12  C   UNL     1      -6.547   7.040  67.969  1.00  0.00    -0.056 C  
HETATM   13  C   UNL     1      -6.856   5.747  68.143  1.00  0.00    -0.067 C  
HETATM   14  C   UNL     1      -6.852  10.226  68.262  1.00  0.00    -0.065 C  
HETATM   15  C   UNL     1      -7.679   9.200  67.200  1.00  0.00    -0.098 C  
HETATM   16  O   UNL     1      -5.793  10.885  67.555  1.00  0.00    -0.043 OA 
HETATM   17  C   UNL     1      -8.543   9.984  66.010  1.00  0.00    -0.148 C  
HETATM   18  H   UNL     1      -5.331  10.214  67.069  1.00  0.00     0.000 HD 
HETATM   19  C   UNL     1      -9.352   8.971  65.182  1.00  0.00    -0.099 C  
HETATM   20  C   UNL     1      -8.516   7.821  64.648  1.00  0.00     0.052 C  
HETATM   21  C   UNL     1      -7.711   7.129  65.706  1.00  0.00    -0.099 C  
HETATM   22  C   UNL     1      -7.613   5.789  65.750  1.00  0.00    -0.090 C  
HETATM   23  C   UNL     1      -6.561   5.361  66.682  1.00  0.00    -0.056 C  
HETATM   24  O   UNL     1      -5.524   4.818  66.324  1.00  0.00    -0.012 OA 
ENDROOT
BRANCH   4  25
HETATM   25  C   UNL     1      -6.989  13.449  67.743  1.00  0.00    -0.156 C  
HETATM   26  O   UNL     1      -5.788  13.505  67.432  1.00  0.00    -0.348 OA 
BRANCH  25  27
HETATM   27  C   UNL     1      -7.370  14.529  68.832  1.00  0.00    -0.128 C  
HETATM   28  C   UNL     1      -6.301  14.592  69.970  1.00  0.00    -0.165 C  
ENDBRANCH  25  27
ENDBRANCH   4  25
TORSDOF 2
ENDMDL
MODEL       93
REMARK 921   NORMALIZED FREE ENERGY PREDICTED BY IDOCK:   -0.59 KCAL/MOL
REMARK 922        TOTAL FREE ENERGY PREDICTED BY IDOCK:    0.39 KCAL/MOL
REMARK 923 INTER-LIGAND FREE ENERGY PREDICTED BY IDOCK:   -0.62 KCAL/MOL
REMARK 924 INTRA-LIGAND FREE ENERGY PREDICTED BY IDOCK:    1.01 KCAL/MOL
REMARK 927      BINDING AFFINITY PREDICTED BY RF-SCORE:    0.00 PKD
ROOT
HETATM    1  C   UNL     1      -8.242   5.416  68.590  1.00  0.00    -0.094 C  
HETATM    2  C   UNL     1      -7.384   4.721  67.730  1.00  0.00    -0.070 C  
HETATM    3  C   UNL     1      -6.840   5.934  68.384  1.00  0.00    -0.066 C  
HETATM    4  C   UNL     1      -7.972   6.583  70.023  1.00  0.00    -0.116 C  
HETATM    5  C   UNL     1      -5.495   5.775  67.311  1.00  0.00    -0.008 C  
HETATM    6  C   UNL     1      -9.445  10.075  67.533  1.00  0.00    -0.169 C  
HETATM    7  C   UNL     1      -9.355   5.788  70.603  1.00  0.00    -0.186 C  
HETATM    8  C   UNL     1      -6.866   5.789  69.898  1.00  0.00    -0.064 C  
HETATM    9  C   UNL     1      -6.449   4.589  70.708  1.00  0.00    -0.030 C  
HETATM   10  C   UNL     1      -6.013   7.453  69.826  1.00  0.00    -0.024 C  
HETATM   11  C   UNL     1      -8.401   9.333  66.687  1.00  0.00    -0.122 C  
HETATM   12  C   UNL     1      -7.137  10.177  66.120  1.00  0.00    -0.114 C  
HETATM   13  C   UNL     1      -6.839  10.459  64.843  1.00  0.00    -0.040 C  
HETATM   14  C   UNL     1      -6.977   8.620  68.927  1.00  0.00    -0.062 C  
HETATM   15  C   UNL     1      -7.821   8.160  67.533  1.00  0.00    -0.110 C  
HETATM   16  O   UNL     1      -7.892   9.205  69.863  1.00  0.00    -0.073 OA 
HETATM   17  C   UNL     1      -8.887   6.897  67.754  1.00  0.00    -0.119 C  
HETATM   18  H   UNL     1      -8.412   9.834  69.378  1.00  0.00     0.000 HD 
HETATM   19  C   UNL     1      -9.504   6.479  66.409  1.00  0.00    -0.165 C  
HETATM   20  C   UNL     1     -10.108   7.637  65.634  1.00  0.00     1.339 C  
HETATM   21  C   UNL     1      -9.167   8.790  65.457  1.00  0.00    -0.202 C  
HETATM   22  C   UNL     1      -9.064   9.441  64.285  1.00  0.00    -0.159 C  
HETATM   23  C   UNL     1      -8.306  10.690  64.432  1.00  0.00    -0.032 C  
HETATM   24  O   UNL     1      -8.805  11.801  64.310  1.00  0.00     0.397 OA 
ENDROOT
BRANCH   4  25
HETATM   25  C   UNL     1      -7.647   7.090  71.735  1.00  0.00    -0.088 C  
HETATM   26  O   UNL     1      -8.278   8.011  72.278  1.00  0.00    -0.117 OA 
BRANCH  25  27
HETATM   27  C   UNL     1      -6.450   6.580  72.632  1.00  0.00    -0.059 C  
HETATM   28  C   UNL     1      -5.915   7.714  73.565  1.00  0.00    -0.060 C  
ENDBRANCH  25  27
ENDBRANCH   4  25
TORSDOF 2
ENDMDL
MODEL       94
REMARK 921   NORMALIZED FREE ENERGY PREDICTED BY IDOCK:   -0.00 KCAL/MOL
REMARK 922        TOTAL FREE ENERGY PREDICTED BY IDOCK:    1.05 KCAL/MOL
REMARK 923 INTER-LIGAND FREE ENERGY PREDICTED BY IDOCK:   -1.32 KCAL/MOL
REMARK 924 INTRA-LIGAND FREE ENERGY PREDICTED BY IDOCK:    2.37 KCAL/MOL
REMARK 927      BINDING AFFINITY PREDICTED BY RF-SCORE:    0.00 PKD
ROOT
HETATM    1  C   UNL     1      -8.399  10.897  66.839  1.00  0.00    -0.133 C  
HETATM    2  C   UNL     1      -7.400  11.868  66.967  1.00  0.00    -0.118 C  
HETATM    3  C   UNL     1      -7.889  11.240  68.217  1.00  0.00    -0.130 C  
HETATM    4  C   UNL     1      -8.958   9.465  67.901  1.00  0.00    -0.126 C  
HETATM    5  C   UNL     1      -6.992  12.459  69.051  1.00  0.00    -0.071 C  
HETATM    6  C   UNL     1     -12.780  11.666  68.956  1.00  0.00     0.907 C  
HETATM    7  C   UNL     1      -9.213   8.762  66.378  1.00  0.00    -0.241 C  
HETATM    8  C   UNL     1      -7.650   9.737  68.195  1.00  0.00    -0.082 C  
HETATM    9  C   UNL     1      -6.400   9.016  67.763  1.00  0.00    -0.056 C  
HETATM   10  C   UNL     1      -8.346   9.850  69.928  1.00  0.00    -0.200 C  
HETATM   11  C   UNL     1     -11.622  12.645  69.193  1.00  0.00    -0.374 C  
HETATM   12  C   UNL     1     -11.482  13.321  70.662  1.00  0.00     0.502 C  
HETATM   13  C   UNL     1     -11.622  14.613  70.992  1.00  0.00    -0.277 C  
HETATM   14  C   UNL     1      -9.939  10.600  69.924  1.00  0.00     0.170 C  
HETATM   15  C   UNL     1     -10.281  11.906  68.903  1.00  0.00    -0.095 C  
HETATM   16  O   UNL     1     -10.886   9.550  69.686  1.00  0.00    -0.231 OA 
HETATM   17  C   UNL     1     -10.012  11.609  67.285  1.00  0.00    -0.210 C  
HETATM   18  H   UNL     1     -11.745   9.954  69.683  1.00  0.00     0.000 HD 
HETATM   19  C   UNL     1     -10.234  12.890  66.464  1.00  0.00    -0.264 C  
HETATM   20  C   UNL     1     -11.572  13.557  66.731  1.00  0.00    -0.397 C  
HETATM   21  C   UNL     1     -11.836  13.800  68.186  1.00  0.00    -0.411 C  
HETATM   22  C   UNL     1     -12.370  14.954  68.620  1.00  0.00     0.023 C  
HETATM   23  C   UNL     1     -12.795  14.852  70.023  1.00  0.00    -0.076 C  
HETATM   24  O   UNL     1     -13.966  14.883  70.377  1.00  0.00     0.269 OA 
ENDROOT
BRANCH   4  25
HETATM   25  C   UNL     1      -8.959   7.785  68.586  1.00  0.00    -0.133 C  
HETATM   26  O   UNL     1      -7.906   7.185  68.855  1.00  0.00    -0.110 OA 
BRANCH  25  27
HETATM   27  C   UNL     1     -10.227   6.854  68.733  1.00  0.00    -0.179 C  
HETATM   28  C   UNL     1     -11.467   7.461  68.001  1.00  0.00     0.720 C  
ENDBRANCH  25  27
ENDBRANCH   4  25
TORSDOF 2
ENDMDL
MODEL       95
REMARK 921   NORMALIZED FREE ENERGY PREDICTED BY IDOCK:    0.26 KCAL/MOL
REMARK 922        TOTAL FREE ENERGY PREDICTED BY IDOCK:    1.35 KCAL/MOL
REMARK 923 INTER-LIGAND FREE ENERGY PREDICTED BY IDOCK:   -0.44 KCAL/MOL
REMARK 924 INTRA-LIGAND FREE ENERGY PREDICTED BY IDOCK:    1.79 KCAL/MOL
REMARK 927      BINDING AFFINITY PREDICTED BY RF-SCORE:    0.00 PKD
ROOT
HETATM    1  C   UNL     1      -8.806  16.736  65.986  1.00  0.00    -0.218 C  
HETATM    2  C   UNL     1      -7.604  16.225  65.483  1.00  0.00     2.574 C  
HETATM    3  C   UNL     1      -8.003  15.785  66.840  1.00  0.00    -0.285 C  
HETATM    4  C   UNL     1     -10.019  16.153  67.282  1.00  0.00    -0.248 C  
HETATM    5  C   UNL     1      -6.421  15.103  66.966  1.00  0.00     0.545 C  
HETATM    6  C   UNL     1      -8.722  19.482  70.076  1.00  0.00     1.020 C  
HETATM    7  C   UNL     1     -11.125  16.841  66.195  1.00  0.00     0.305 C  
HETATM    8  C   UNL     1      -9.343  15.065  66.801  1.00  0.00    -0.271 C  
HETATM    9  C   UNL     1      -9.790  14.018  65.815  1.00  0.00    -0.280 C  
HETATM   10  C   UNL     1      -8.987  14.821  68.622  1.00  0.00    -0.185 C  
HETATM   11  C   UNL     1      -7.443  18.795  69.577  1.00  0.00     0.127 C  
HETATM   12  C   UNL     1      -6.407  18.215  70.682  1.00  0.00     0.847 C  
HETATM   13  C   UNL     1      -5.159  18.631  70.941  1.00  0.00    -0.270 C  
HETATM   14  C   UNL     1      -8.714  16.363  69.426  1.00  0.00     0.011 C  
HETATM   15  C   UNL     1      -7.847  17.600  68.662  1.00  0.00    -0.280 C  
HETATM   16  O   UNL     1     -10.002  16.857  69.815  1.00  0.00     0.008 OA 
HETATM   17  C   UNL     1      -8.460  18.062  67.182  1.00  0.00    -0.241 C  
HETATM   18  H   UNL     1      -9.856  17.688  70.248  1.00  0.00     0.000 HD 
HETATM   19  C   UNL     1      -7.533  19.097  66.521  1.00  0.00    -0.258 C  
HETATM   20  C   UNL     1      -7.202  20.275  67.421  1.00  0.00    -0.328 C  
HETATM   21  C   UNL     1      -6.680  19.868  68.765  1.00  0.00    -0.358 C  
HETATM   22  C   UNL     1      -5.638  20.499  69.335  1.00  0.00    -0.381 C  
HETATM   23  C   UNL     1      -5.492  20.122  70.747  1.00  0.00    -0.283 C  
HETATM   24  O   UNL     1      -5.686  20.896  71.675  1.00  0.00    -0.581 OA 
ENDROOT
BRANCH   4  25
HETATM   25  C   UNL     1     -11.410  15.218  67.978  1.00  0.00    -0.338 C  
HETATM   26  O   UNL     1     -11.976  14.313  67.343  1.00  0.00    -0.395 OA 
BRANCH  25  27
HETATM   27  C   UNL     1     -12.159  15.554  69.328  1.00  0.00    -0.284 C  
HETATM   28  C   UNL     1     -12.491  14.256  70.132  1.00  0.00    -0.393 C  
ENDBRANCH  25  27
ENDBRANCH   4  25
TORSDOF 2
ENDMDL
MODEL       96
REMARK 921   NORMALIZED FREE ENERGY PREDICTED BY IDOCK:    0.26 KCAL/MOL
REMARK 922        TOTAL FREE ENERGY PREDICTED BY IDOCK:    1.35 KCAL/MOL
REMARK 923 INTER-LIGAND FREE ENERGY PREDICTED BY IDOCK:   -2.25 KCAL/MOL
REMARK 924 INTRA-LIGAND FREE ENERGY PREDICTED BY IDOCK:    3.59 KCAL/MOL
REMARK 927      BINDING AFFINITY PREDICTED BY RF-SCORE:    0.00 PKD
ROOT
HETATM    1  C   UNL     1      -8.575  14.387  69.651  1.00  0.00     0.549 C  
HETATM    2  C   UNL     1      -9.495  14.932  70.554  1.00  0.00     1.144 C  
HETATM    3  C   UNL     1      -9.808  15.070  69.113  1.00  0.00    -0.223 C  
HETATM    4  C   UNL     1      -8.693  13.788  67.885  1.00  0.00    -0.183 C  
HETATM    5  C   UNL     1     -11.067  16.147  69.601  1.00  0.00    -0.344 C  
HETATM    6  C   UNL     1      -6.296  17.362  66.454  1.00  0.00    -0.268 C  
HETATM    7  C   UNL     1      -7.568  12.654  68.460  1.00  0.00    -0.121 C  
HETATM    8  C   UNL     1      -9.933  13.704  68.454  1.00  0.00    -0.235 C  
HETATM    9  C   UNL     1     -10.666  12.498  68.983  1.00  0.00    -0.139 C  
HETATM   10  C   UNL     1     -10.390  14.737  66.963  1.00  0.00    -0.255 C  
HETATM   11  C   UNL     1      -7.409  17.906  67.362  1.00  0.00    -0.205 C  
HETATM   12  C   UNL     1      -8.407  19.032  66.756  1.00  0.00    -0.298 C  
HETATM   13  C   UNL     1      -8.534  20.312  67.135  1.00  0.00    -0.407 C  
HETATM   14  C   UNL     1      -9.125  15.904  66.589  1.00  0.00    -0.260 C  
HETATM   15  C   UNL     1      -8.297  16.713  67.825  1.00  0.00    -0.184 C  
HETATM   16  O   UNL     1      -8.180  15.230  65.748  1.00  0.00     0.344 OA 
HETATM   17  C   UNL     1      -7.556  15.711  68.933  1.00  0.00    -0.173 C  
HETATM   18  H   UNL     1      -7.498  15.858  65.547  1.00  0.00     0.000 HD 
HETATM   19  C   UNL     1      -6.943  16.540  70.074  1.00  0.00     0.508 C  
HETATM   20  C   UNL     1      -6.040  17.661  69.589  1.00  0.00    -0.245 C  
HETATM   21  C   UNL     1      -6.687  18.549  68.570  1.00  0.00    -0.267 C  
HETATM   22  C   UNL     1      -6.552  19.885  68.613  1.00  0.00    -0.334 C  
HETATM   23  C   UNL     1      -7.026  20.511  67.372  1.00  0.00    -0.316 C  
HETATM   24  O   UNL     1      -6.286  21.072  66.574  1.00  0.00    -0.243 OA 
ENDROOT
BRANCH   4  25
HETATM   25  C   UNL     1      -9.032  12.639  66.523  1.00  0.00    -0.112 C  
HETATM   26  O   UNL     1     -10.187  12.404  66.134  1.00  0.00    -0.233 OA 
BRANCH  25  27
HETATM   27  C   UNL     1      -7.970  11.695  65.831  1.00  0.00     0.373 C  
HETATM   28  C   UNL     1      -6.699  11.518  66.724  1.00  0.00    -0.121 C  
ENDBRANCH  25  27
ENDBRANCH   4  25
TORSDOF 2
ENDMDL
MODEL       97
REMARK 921   NORMALIZED FREE ENERGY PREDICTED BY IDOCK:    0.57 KCAL/MOL
REMARK 922        TOTAL FREE ENERGY PREDICTED BY IDOCK:    1.69 KCAL/MOL
REMARK 923 INTER-LIGAND FREE ENERGY PREDICTED BY IDOCK:   -1.59 KCAL/MOL
REMARK 924 INTRA-LIGAND FREE ENERGY PREDICTED BY IDOCK:    3.28 KCAL/MOL
REMARK 927      BINDING AFFINITY PREDICTED BY RF-SCORE:    0.00 PKD
ROOT
HETATM    1  C   UNL     1      -9.059  16.542  69.101  1.00  0.00    -0.184 C  
HETATM    2  C   UNL     1      -7.942  15.812  69.522  1.00  0.00    -0.145 C  
HETATM    3  C   UNL     1      -8.829  15.166  68.527  1.00  0.00    -0.185 C  
HETATM    4  C   UNL     1     -10.132  16.502  67.572  1.00  0.00    -0.267 C  
HETATM    5  C   UNL     1      -7.925  13.723  68.820  1.00  0.00    -0.041 C  
HETATM    6  C   UNL     1     -13.565  14.743  69.956  1.00  0.00     0.971 C  
HETATM    7  C   UNL     1     -10.158  18.175  67.853  1.00  0.00    -0.366 C  
HETATM    8  C   UNL     1      -8.902  15.994  67.252  1.00  0.00    -0.207 C  
HETATM    9  C   UNL     1      -7.759  16.642  66.515  1.00  0.00    -0.337 C  
HETATM   10  C   UNL     1      -9.948  14.556  66.671  1.00  0.00    -0.276 C  
HETATM   11  C   UNL     1     -12.321  13.904  70.281  1.00  0.00    -0.413 C  
HETATM   12  C   UNL     1     -12.396  12.301  70.040  1.00  0.00    -0.159 C  
HETATM   13  C   UNL     1     -12.344  11.326  70.958  1.00  0.00    -0.472 C  
HETATM   14  C   UNL     1     -11.309  14.283  67.754  1.00  0.00    -0.307 C  
HETATM   15  C   UNL     1     -11.129  14.437  69.430  1.00  0.00    -0.294 C  
HETATM   16  O   UNL     1     -12.366  15.143  67.310  1.00  0.00    -0.199 OA 
HETATM   17  C   UNL     1     -10.553  15.919  69.932  1.00  0.00    -0.327 C  
HETATM   18  H   UNL     1     -13.100  14.996  67.894  1.00  0.00     0.000 HD 
HETATM   19  C   UNL     1     -10.310  15.910  71.451  1.00  0.00     1.285 C  
HETATM   20  C   UNL     1     -11.509  15.437  72.253  1.00  0.00    -0.506 C  
HETATM   21  C   UNL     1     -12.053  14.119  71.789  1.00  0.00    -0.144 C  
HETATM   22  C   UNL     1     -12.428  13.167  72.661  1.00  0.00     0.732 C  
HETATM   23  C   UNL     1     -13.182  12.099  71.993  1.00  0.00    -0.391 C  
HETATM   24  O   UNL     1     -14.372  11.890  72.188  1.00  0.00     0.619 OA 
ENDROOT
BRANCH   4  25
HETATM   25  C   UNL     1     -10.635  16.863  65.867  1.00  0.00    -0.233 C  
HETATM   26  O   UNL     1     -11.040  15.975  65.099  1.00  0.00    -0.349 OA 
BRANCH  25  27
HETATM   27  C   UNL     1     -10.445  18.246  65.126  1.00  0.00     0.855 C  
HETATM   28  C   UNL     1     -11.005  19.430  65.980  1.00  0.00    -0.255 C  
ENDBRANCH  25  27
ENDBRANCH   4  25
TORSDOF 2
ENDMDL
MODEL       98
REMARK 921   NORMALIZED FREE ENERGY PREDICTED BY IDOCK:    1.59 KCAL/MOL
REMARK 922        TOTAL FREE ENERGY PREDICTED BY IDOCK:    2.83 KCAL/MOL
REMARK 923 INTER-LIGAND FREE ENERGY PREDICTED BY IDOCK:    1.76 KCAL/MOL
REMARK 924 INTRA-LIGAND FREE ENERGY PREDICTED BY IDOCK:    1.07 KCAL/MOL
REMARK 927      BINDING AFFINITY PREDICTED BY RF-SCORE:    0.00 PKD
ROOT
HETATM    1  C   UNL     1      -7.697   5.334  69.886  1.00  0.00    -0.069 C  
HETATM    2  C   UNL     1      -6.384   4.859  69.973  1.00  0.00    -0.030 C  
HETATM    3  C   UNL     1      -7.009   5.337  71.228  1.00  0.00    -0.053 C  
HETATM    4  C   UNL     1      -9.094   5.512  71.113  1.00  0.00    -0.159 C  
HETATM    5  C   UNL     1      -5.435   5.216  71.930  1.00  0.00    -0.005 C  
HETATM    6  C   UNL     1      -8.640  10.023  71.064  1.00  0.00     1.295 C  
HETATM    7  C   UNL     1     -10.012   5.106  69.745  1.00  0.00    -0.313 C  
HETATM    8  C   UNL     1      -8.255   4.525  71.553  1.00  0.00    -0.101 C  
HETATM    9  C   UNL     1      -8.414   3.029  71.486  1.00  0.00    -0.090 C  
HETATM   10  C   UNL     1      -8.248   5.591  73.091  1.00  0.00    -0.118 C  
HETATM   11  C   UNL     1      -7.238   9.436  71.280  1.00  0.00     0.060 C  
HETATM   12  C   UNL     1      -6.399   9.920  72.582  1.00  0.00     1.075 C  
HETATM   13  C   UNL     1      -5.264  10.632  72.614  1.00  0.00     0.328 C  
HETATM   14  C   UNL     1      -8.261   7.302  72.676  1.00  0.00    -0.107 C  
HETATM   15  C   UNL     1      -7.358   7.885  71.368  1.00  0.00    -0.066 C  
HETATM   16  O   UNL     1      -9.635   7.673  72.507  1.00  0.00    -0.154 OA 
HETATM   17  C   UNL     1      -7.699   7.153  69.910  1.00  0.00    -0.108 C  
HETATM   18  H   UNL     1      -9.642   8.596  72.283  1.00  0.00     0.000 HD 
HETATM   19  C   UNL     1      -6.743   7.665  68.819  1.00  0.00    -0.054 C  
HETATM   20  C   UNL     1      -6.690   9.180  68.725  1.00  0.00    -0.053 C  
HETATM   21  C   UNL     1      -6.414   9.849  70.037  1.00  0.00    -0.082 C  
HETATM   22  C   UNL     1      -5.558  10.881  70.134  1.00  0.00    -0.080 C  
HETATM   23  C   UNL     1      -5.667  11.544  71.440  1.00  0.00     0.360 C  
HETATM   24  O   UNL     1      -6.100  12.680  71.586  1.00  0.00     0.258 OA 
ENDROOT
BRANCH   4  25
HETATM   25  C   UNL     1     -10.519   5.007  72.118  1.00  0.00    -0.210 C  
HETATM   26  O   UNL     1     -11.558   5.685  72.170  1.00  0.00    -0.240 OA 
BRANCH  25  27
HETATM   27  C   UNL     1     -10.539   3.809  73.147  1.00  0.00    -0.268 C  
HETATM   28  C   UNL     1     -11.927   3.691  73.856  1.00  0.00     0.746 C  
ENDBRANCH  25  27
ENDBRANCH   4  25
TORSDOF 2
ENDMDL
MODEL       99
REMARK 921   NORMALIZED FREE ENERGY PREDICTED BY IDOCK:    3.12 KCAL/MOL
REMARK 922        TOTAL FREE ENERGY PREDICTED BY IDOCK:    4.54 KCAL/MOL
REMARK 923 INTER-LIGAND FREE ENERGY PREDICTED BY IDOCK:    2.20 KCAL/MOL
REMARK 924 INTRA-LIGAND FREE ENERGY PREDICTED BY IDOCK:    2.34 KCAL/MOL
REMARK 927      BINDING AFFINITY PREDICTED BY RF-SCORE:    0.00 PKD
ROOT
HETATM    1  C   UNL     1     -10.564   9.423  68.227  1.00  0.00    -0.256 C  
HETATM    2  C   UNL     1      -9.168   9.407  68.141  1.00  0.00    -0.135 C  
HETATM    3  C   UNL     1      -9.771  10.389  69.071  1.00  0.00    -0.216 C  
HETATM    4  C   UNL     1     -11.775   9.986  69.534  1.00  0.00    -0.058 C  
HETATM    5  C   UNL     1      -8.189  11.073  69.201  1.00  0.00    -0.052 C  
HETATM    6  C   UNL     1     -13.002  13.511  66.959  1.00  0.00     1.390 C  
HETATM    7  C   UNL     1     -12.637   8.644  68.955  1.00  0.00     4.251 C  
HETATM    8  C   UNL     1     -10.588   9.685  70.144  1.00  0.00    -0.320 C  
HETATM    9  C   UNL     1     -10.199   8.463  70.935  1.00  0.00    -0.234 C  
HETATM   10  C   UNL     1     -10.788  11.430  70.789  1.00  0.00     1.799 C  
HETATM   11  C   UNL     1     -11.468  13.507  67.006  1.00  0.00    -0.369 C  
HETATM   12  C   UNL     1     -10.716  14.851  67.516  1.00  0.00    -0.276 C  
HETATM   13  C   UNL     1      -9.922  15.669  66.812  1.00  0.00    -0.258 C  
HETATM   14  C   UNL     1     -11.472  12.486  69.558  1.00  0.00    -0.230 C  
HETATM   15  C   UNL     1     -11.004  12.346  67.936  1.00  0.00    -0.266 C  
HETATM   16  O   UNL     1     -12.897  12.360  69.653  1.00  0.00     0.454 OA 
HETATM   17  C   UNL     1     -11.225  10.829  67.281  1.00  0.00    -0.272 C  
HETATM   18  H   UNL     1     -13.265  12.929  68.989  1.00  0.00     0.000 HD 
HETATM   19  C   UNL     1     -10.657  10.777  65.853  1.00  0.00    -0.216 C  
HETATM   20  C   UNL     1     -11.170  11.891  64.957  1.00  0.00    -0.350 C  
HETATM   21  C   UNL     1     -11.004  13.257  65.552  1.00  0.00    -0.297 C  
HETATM   22  C   UNL     1     -10.577  14.297  64.815  1.00  0.00    -0.434 C  
HETATM   23  C   UNL     1     -10.765  15.568  65.527  1.00  0.00    -0.381 C  
HETATM   24  O   UNL     1     -11.561  16.428  65.173  1.00  0.00     0.149 OA 
ENDROOT
BRANCH   4  25
HETATM   25  C   UNL     1     -12.789   9.887  71.035  1.00  0.00    -0.331 C  
HETATM   26  O   UNL     1     -12.791  10.790  71.887  1.00  0.00    -0.436 OA 
BRANCH  25  27
HETATM   27  C   UNL     1     -13.600   8.618  71.513  1.00  0.00    -0.356 C  
HETATM   28  C   UNL     1     -12.682   7.609  72.275  1.00  0.00    -0.104 C  
ENDBRANCH  25  27
ENDBRANCH   4  25
TORSDOF 2
ENDMDL
MODEL      100
REMARK 921   NORMALIZED FREE ENERGY PREDICTED BY IDOCK:    3.65 KCAL/MOL
REMARK 922        TOTAL FREE ENERGY PREDICTED BY IDOCK:    5.13 KCAL/MOL
REMARK 923 INTER-LIGAND FREE ENERGY PREDICTED BY IDOCK:    4.09 KCAL/MOL
REMARK 924 INTRA-LIGAND FREE ENERGY PREDICTED BY IDOCK:    1.04 KCAL/MOL
REMARK 927      BINDING AFFINITY PREDICTED BY RF-SCORE:    0.00 PKD
ROOT
HETATM    1  C   UNL     1      -6.868  14.269  68.820  1.00  0.00    -0.099 C  
HETATM    2  C   UNL     1      -5.896  13.691  67.996  1.00  0.00    -0.132 C  
HETATM    3  C   UNL     1      -6.662  14.828  67.434  1.00  0.00    -0.060 C  
HETATM    4  C   UNL     1      -7.682  15.950  68.880  1.00  0.00    -0.194 C  
HETATM    5  C   UNL     1      -5.938  14.424  65.918  1.00  0.00     7.870 C  
HETATM    6  C   UNL     1     -11.584  14.178  67.398  1.00  0.00    -0.399 C  
HETATM    7  C   UNL     1      -7.617  15.643  70.548  1.00  0.00     1.289 C  
HETATM    8  C   UNL     1      -6.463  16.081  68.274  1.00  0.00    -0.122 C  
HETATM    9  C   UNL     1      -5.168  16.613  68.829  1.00  0.00    -0.122 C  
HETATM   10  C   UNL     1      -7.516  16.850  66.932  1.00  0.00    -0.254 C  
HETATM   11  C   UNL     1     -10.481  13.676  66.456  1.00  0.00    -0.281 C  
HETATM   12  C   UNL     1     -10.646  13.959  64.867  1.00  0.00    -0.436 C  
HETATM   13  C   UNL     1     -10.822  13.065  63.884  1.00  0.00    -0.347 C  
HETATM   14  C   UNL     1      -9.050  16.002  66.767  1.00  0.00    -0.244 C  
HETATM   15  C   UNL     1      -9.128  14.316  66.893  1.00  0.00    -0.268 C  
HETATM   16  O   UNL     1      -9.949  16.591  67.715  1.00  0.00    -0.244 OA 
HETATM   17  C   UNL     1      -8.521  13.699  68.318  1.00  0.00    -0.170 C  
HETATM   18  H   UNL     1     -10.776  16.134  67.626  1.00  0.00     0.000 HD 
HETATM   19  C   UNL     1      -8.526  12.162  68.278  1.00  0.00    -0.176 C  
HETATM   20  C   UNL     1      -9.872  11.570  67.901  1.00  0.00    -0.192 C  
HETATM   21  C   UNL     1     -10.441  12.141  66.637  1.00  0.00    -0.248 C  
HETATM   22  C   UNL     1     -11.026  11.359  65.714  1.00  0.00    -0.256 C  
HETATM   23  C   UNL     1     -11.749  12.160  64.717  1.00  0.00    -0.327 C  
HETATM   24  O   UNL     1     -12.968  12.160  64.607  1.00  0.00    -0.651 OA 
ENDROOT
BRANCH   4  25
HETATM   25  C   UNL     1      -7.875  17.706  69.295  1.00  0.00     0.133 C  
HETATM   26  O   UNL     1      -8.956  18.172  69.690  1.00  0.00     0.547 OA 
BRANCH  25  27
HETATM   27  C   UNL     1      -6.802  18.836  69.032  1.00  0.00    -0.324 C  
HETATM   28  C   UNL     1      -7.461  20.114  68.420  1.00  0.00    -0.200 C  
ENDBRANCH  25  27
ENDBRANCH   4  25
TORSDOF 2
ENDMDL
MODEL      101
REMARK 921   NORMALIZED FREE ENERGY PREDICTED BY IDOCK:    4.14 KCAL/MOL
REMARK 922        TOTAL FREE ENERGY PREDICTED BY IDOCK:    5.68 KCAL/MOL
REMARK 923 INTER-LIGAND FREE ENERGY PREDICTED BY IDOCK:    3.71 KCAL/MOL
REMARK 924 INTRA-LIGAND FREE ENERGY PREDICTED BY IDOCK:    1.97 KCAL/MOL
REMARK 927      BINDING AFFINITY PREDICTED BY RF-SCORE:    0.00 PKD
ROOT
HETATM    1  C   UNL     1     -11.531  10.876  67.792  1.00  0.00    -0.323 C  
HETATM    2  C   UNL     1     -10.413  10.257  67.222  1.00  0.00    -0.307 C  
HETATM    3  C   UNL     1     -10.159  11.228  68.312  1.00  0.00    -0.198 C  
HETATM    4  C   UNL     1     -11.862  11.684  69.445  1.00  0.00    -0.408 C  
HETATM    5  C   UNL     1      -8.489  11.103  67.884  1.00  0.00    -0.131 C  
HETATM    6  C   UNL     1     -11.979  15.773  67.488  1.00  0.00     0.495 C  
HETATM    7  C   UNL     1     -13.389  10.987  69.195  1.00  0.00     2.766 C  
HETATM    8  C   UNL     1     -10.841  10.786  69.598  1.00  0.00    -0.294 C  
HETATM    9  C   UNL     1     -10.862   9.403  70.194  1.00  0.00    -0.287 C  
HETATM   10  C   UNL     1      -9.978  12.298  70.285  1.00  0.00     3.480 C  
HETATM   11  C   UNL     1     -10.701  15.079  66.994  1.00  0.00    -0.304 C  
HETATM   12  C   UNL     1      -9.285  15.838  67.218  1.00  0.00    -0.217 C  
HETATM   13  C   UNL     1      -8.455  16.327  66.286  1.00  0.00    -0.369 C  
HETATM   14  C   UNL     1     -10.413  13.743  69.378  1.00  0.00     0.171 C  
HETATM   15  C   UNL     1     -10.589  13.692  67.695  1.00  0.00    -0.245 C  
HETATM   16  O   UNL     1     -11.619  14.249  69.966  1.00  0.00    -0.266 OA 
HETATM   17  C   UNL     1     -11.694  12.570  67.148  1.00  0.00    -0.425 C  
HETATM   18  H   UNL     1     -11.854  15.027  69.477  1.00  0.00     0.000 HD 
HETATM   19  C   UNL     1     -11.685  12.519  65.611  1.00  0.00    -0.473 C  
HETATM   20  C   UNL     1     -11.850  13.881  64.960  1.00  0.00    -0.383 C  
HETATM   21  C   UNL     1     -10.881  14.905  65.468  1.00  0.00    -0.365 C  
HETATM   22  C   UNL     1     -10.258  15.757  64.636  1.00  0.00     0.559 C  
HETATM   23  C   UNL     1      -9.589  16.835  65.377  1.00  0.00     0.504 C  
HETATM   24  O   UNL     1      -9.944  18.005  65.331  1.00  0.00    -0.261 OA 
ENDROOT
BRANCH   4  25
HETATM   25  C   UNL     1     -12.288  11.787  71.205  1.00  0.00    -0.145 C  
HETATM   26  O   UNL     1     -12.166  10.816  71.969  1.00  0.00     0.064 OA 
BRANCH  25  27
HETATM   27  C   UNL     1     -13.012  13.005  71.905  1.00  0.00    -0.414 C  
HETATM   28  C   UNL     1     -14.390  13.311  71.232  1.00  0.00     1.486 C  
ENDBRANCH  25  27
ENDBRANCH   4  25
TORSDOF 2
ENDMDL
MODEL      102
REMARK 921   NORMALIZED FREE ENERGY PREDICTED BY IDOCK:    4.35 KCAL/MOL
REMARK 922        TOTAL FREE ENERGY PREDICTED BY IDOCK:    5.92 KCAL/MOL
REMARK 923 INTER-LIGAND FREE ENERGY PREDICTED BY IDOCK:    4.38 KCAL/MOL
REMARK 924 INTRA-LIGAND FREE ENERGY PREDICTED BY IDOCK:    1.53 KCAL/MOL
REMARK 927      BINDING AFFINITY PREDICTED BY RF-SCORE:    0.00 PKD
ROOT
HETATM    1  C   UNL     1     -11.485  15.047  69.429  1.00  0.00    -0.320 C  
HETATM    2  C   UNL     1     -12.633  15.625  68.876  1.00  0.00     0.530 C  
HETATM    3  C   UNL     1     -11.647  15.054  67.929  1.00  0.00    -0.350 C  
HETATM    4  C   UNL     1     -10.266  13.762  68.833  1.00  0.00    -0.111 C  
HETATM    5  C   UNL     1     -12.564  15.821  66.682  1.00  0.00     2.235 C  
HETATM    6  C   UNL     1      -7.072  16.942  68.333  1.00  0.00    -0.187 C  
HETATM    7  C   UNL     1     -10.281  13.350  70.480  1.00  0.00     3.359 C  
HETATM    8  C   UNL     1     -11.454  13.566  68.183  1.00  0.00    -0.338 C  
HETATM    9  C   UNL     1     -12.523  12.535  68.430  1.00  0.00     0.665 C  
HETATM   10  C   UNL     1     -10.344  13.705  66.683  1.00  0.00    -0.275 C  
HETATM   11  C   UNL     1      -8.336  17.466  67.636  1.00  0.00    -0.214 C  
HETATM   12  C   UNL     1      -8.225  17.895  66.075  1.00  0.00    -0.103 C  
HETATM   13  C   UNL     1      -8.360  19.119  65.545  1.00  0.00     0.677 C  
HETATM   14  C   UNL     1      -9.095  14.921  66.929  1.00  0.00    -0.250 C  
HETATM   15  C   UNL     1      -9.442  16.372  67.729  1.00  0.00    -0.222 C  
HETATM   16  O   UNL     1      -8.006  14.264  67.589  1.00  0.00    -0.151 OA 
HETATM   17  C   UNL     1     -10.077  16.185  69.259  1.00  0.00    -0.260 C  
HETATM   18  H   UNL     1      -7.333  14.920  67.722  1.00  0.00     0.000 HD 
HETATM   19  C   UNL     1     -10.469  17.552  69.845  1.00  0.00     0.515 C  
HETATM   20  C   UNL     1      -9.351  18.578  69.787  1.00  0.00     0.861 C  
HETATM   21  C   UNL     1      -8.754  18.732  68.421  1.00  0.00    -0.369 C  
HETATM   22  C   UNL     1      -8.460  19.941  67.914  1.00  0.00    -0.332 C  
HETATM   23  C   UNL     1      -7.635  19.827  66.704  1.00  0.00    -0.263 C  
HETATM   24  O   UNL     1      -6.468  20.193  66.646  1.00  0.00    -0.194 OA 
ENDROOT
BRANCH   4  25
HETATM   25  C   UNL     1      -9.599  12.106  68.509  1.00  0.00    -0.133 C  
HETATM   26  O   UNL     1     -10.338  11.125  68.325  1.00  0.00    -0.168 OA 
BRANCH  25  27
HETATM   27  C   UNL     1      -8.077  11.693  68.610  1.00  0.00    -0.121 C  
HETATM   28  C   UNL     1      -7.755  10.478  67.681  1.00  0.00    -0.097 C  
ENDBRANCH  25  27
ENDBRANCH   4  25
TORSDOF 2
ENDMDL
MODEL      103
REMARK 921   NORMALIZED FREE ENERGY PREDICTED BY IDOCK:    5.24 KCAL/MOL
REMARK 922        TOTAL FREE ENERGY PREDICTED BY IDOCK:    6.91 KCAL/MOL
REMARK 923 INTER-LIGAND FREE ENERGY PREDICTED BY IDOCK:    4.60 KCAL/MOL
REMARK 924 INTRA-LIGAND FREE ENERGY PREDICTED BY IDOCK:    2.31 KCAL/MOL
REMARK 927      BINDING AFFINITY PREDICTED BY RF-SCORE:    0.00 PKD
ROOT
HETATM    1  C   UNL     1     -10.387  16.897  67.856  1.00  0.00    -0.332 C  
HETATM    2  C   UNL     1      -9.496  17.899  68.256  1.00  0.00    -0.300 C  
HETATM    3  C   UNL     1      -9.180  17.184  66.997  1.00  0.00    -0.251 C  
HETATM    4  C   UNL     1     -10.801  16.113  66.212  1.00  0.00    -0.135 C  
HETATM    5  C   UNL     1      -7.647  17.978  67.060  1.00  0.00    -0.237 C  
HETATM    6  C   UNL     1      -8.770  12.259  67.471  1.00  0.00    -0.177 C  
HETATM    7  C   UNL     1     -12.352  16.087  66.900  1.00  0.00     1.944 C  
HETATM    8  C   UNL     1     -10.298  17.364  65.981  1.00  0.00    -0.309 C  
HETATM    9  C   UNL     1     -11.020  18.639  65.631  1.00  0.00     0.168 C  
HETATM   10  C   UNL     1      -9.126  16.395  64.889  1.00  0.00     2.751 C  
HETATM   11  C   UNL     1      -7.788  13.400  67.774  1.00  0.00    -0.158 C  
HETATM   12  C   UNL     1      -6.303  13.322  67.125  1.00  0.00     0.387 C  
HETATM   13  C   UNL     1      -5.132  13.180  67.761  1.00  0.00    -0.082 C  
HETATM   14  C   UNL     1      -8.698  14.856  65.628  1.00  0.00     1.251 C  
HETATM   15  C   UNL     1      -8.423  14.740  67.295  1.00  0.00    -0.234 C  
HETATM   16  O   UNL     1      -9.716  13.921  65.249  1.00  0.00    -0.556 OA 
HETATM   17  C   UNL     1      -9.691  15.261  68.244  1.00  0.00    -0.210 C  
HETATM   18  H   UNL     1      -9.485  13.091  65.648  1.00  0.00     0.000 HD 
HETATM   19  C   UNL     1      -9.293  15.230  69.729  1.00  0.00    -0.084 C  
HETATM   20  C   UNL     1      -8.727  13.893  70.176  1.00  0.00     2.437 C  
HETATM   21  C   UNL     1      -7.607  13.402  69.310  1.00  0.00     0.318 C  
HETATM   22  C   UNL     1      -6.501  12.849  69.838  1.00  0.00     0.046 C  
HETATM   23  C   UNL     1      -5.687  12.194  68.806  1.00  0.00    -0.054 C  
HETATM   24  O   UNL     1      -5.525  10.982  68.743  1.00  0.00    -0.041 OA 
ENDROOT
BRANCH   4  25
HETATM   25  C   UNL     1     -11.605  15.932  64.595  1.00  0.00    -0.200 C  
HETATM   26  O   UNL     1     -11.504  16.798  63.711  1.00  0.00    -0.902 OA 
BRANCH  25  27
HETATM   27  C   UNL     1     -12.638  14.803  64.204  1.00  0.00     0.029 C  
HETATM   28  C   UNL     1     -12.360  13.480  64.990  1.00  0.00    -0.468 C  
ENDBRANCH  25  27
ENDBRANCH   4  25
TORSDOF 2
ENDMDL
MODEL      104
REMARK 921   NORMALIZED FREE ENERGY PREDICTED BY IDOCK:    6.53 KCAL/MOL
REMARK 922        TOTAL FREE ENERGY PREDICTED BY IDOCK:    8.35 KCAL/MOL
REMARK 923 INTER-LIGAND FREE ENERGY PREDICTED BY IDOCK:    7.00 KCAL/MOL
REMARK 924 INTRA-LIGAND FREE ENERGY PREDICTED BY IDOCK:    1.35 KCAL/MOL
REMARK 927      BINDING AFFINITY PREDICTED BY RF-SCORE:    0.00 PKD
ROOT
HETATM    1  C   UNL     1      -9.060  11.499  66.982  1.00  0.00    -0.175 C  
HETATM    2  C   UNL     1     -10.405  11.323  67.324  1.00  0.00    -0.236 C  
HETATM    3  C   UNL     1      -9.589  12.170  68.225  1.00  0.00    -0.210 C  
HETATM    4  C   UNL     1      -7.785  12.808  67.371  1.00  0.00    -0.165 C  
HETATM    5  C   UNL     1     -10.930  12.114  69.313  1.00  0.00    -0.168 C  
HETATM    6  C   UNL     1      -5.567   9.925  70.079  1.00  0.00    -0.042 C  
HETATM    7  C   UNL     1      -7.299  12.449  65.785  1.00  0.00     2.481 C  
HETATM    8  C   UNL     1      -9.028  13.369  67.477  1.00  0.00    -0.207 C  
HETATM    9  C   UNL     1      -9.757  14.271  66.515  1.00  0.00    -0.304 C  
HETATM   10  C   UNL     1      -8.384  13.818  69.175  1.00  0.00     0.363 C  
HETATM   11  C   UNL     1      -7.047   9.871  70.487  1.00  0.00    -0.110 C  
HETATM   12  C   UNL     1      -7.424  10.169  72.036  1.00  0.00     3.063 C  
HETATM   13  C   UNL     1      -7.943   9.323  72.936  1.00  0.00     1.377 C  
HETATM   14  C   UNL     1      -7.401  12.519  69.844  1.00  0.00     1.105 C  
HETATM   15  C   UNL     1      -7.836  10.898  69.621  1.00  0.00     0.107 C  
HETATM   16  O   UNL     1      -6.067  12.722  69.359  1.00  0.00    -0.092 OA 
HETATM   17  C   UNL     1      -8.013  10.441  68.028  1.00  0.00    -0.105 C  
HETATM   18  H   UNL     1      -5.537  12.022  69.719  1.00  0.00     0.000 HD 
HETATM   19  C   UNL     1      -8.527   8.994  67.942  1.00  0.00    -0.121 C  
HETATM   20  C   UNL     1      -7.704   8.010  68.754  1.00  0.00    -0.108 C  
HETATM   21  C   UNL     1      -7.514   8.428  70.181  1.00  0.00    -0.063 C  
HETATM   22  C   UNL     1      -7.619   7.548  71.191  1.00  0.00    -0.081 C  
HETATM   23  C   UNL     1      -7.118   8.117  72.449  1.00  0.00    -0.092 C  
HETATM   24  O   UNL     1      -6.108   7.718  73.015  1.00  0.00    -0.057 OA 
ENDROOT
BRANCH   4  25
HETATM   25  C   UNL     1      -6.884  14.374  67.204  1.00  0.00     0.425 C  
HETATM   26  O   UNL     1      -5.843  14.604  67.841  1.00  0.00    -0.141 OA 
BRANCH  25  27
HETATM   27  C   UNL     1      -7.393  15.648  66.419  1.00  0.00     0.784 C  
HETATM   28  C   UNL     1      -6.873  16.967  67.077  1.00  0.00    -0.231 C  
ENDBRANCH  25  27
ENDBRANCH   4  25
TORSDOF 2
ENDMDL
MODEL      105
REMARK 921   NORMALIZED FREE ENERGY PREDICTED BY IDOCK:    6.98 KCAL/MOL
REMARK 922        TOTAL FREE ENERGY PREDICTED BY IDOCK:    8.85 KCAL/MOL
REMARK 923 INTER-LIGAND FREE ENERGY PREDICTED BY IDOCK:    5.27 KCAL/MOL
REMARK 924 INTRA-LIGAND FREE ENERGY PREDICTED BY IDOCK:    3.58 KCAL/MOL
REMARK 927      BINDING AFFINITY PREDICTED BY RF-SCORE:    0.00 PKD
ROOT
HETATM    1  C   UNL     1      -9.493  10.178  64.087  1.00  0.00    -0.353 C  
HETATM    2  C   UNL     1      -8.809  11.281  63.565  1.00  0.00     0.086 C  
HETATM    3  C   UNL     1      -8.355  10.772  64.880  1.00  0.00    -0.018 C  
HETATM    4  C   UNL     1      -9.051   8.844  65.319  1.00  0.00    -0.196 C  
HETATM    5  C   UNL     1      -7.391  12.202  64.978  1.00  0.00     3.786 C  
HETATM    6  C   UNL     1     -11.886  10.641  68.368  1.00  0.00    -0.043 C  
HETATM    7  C   UNL     1     -10.003   7.910  64.269  1.00  0.00     4.605 C  
HETATM    8  C   UNL     1      -7.895   9.326  64.769  1.00  0.00    -0.118 C  
HETATM    9  C   UNL     1      -7.018   8.725  63.702  1.00  0.00    -0.088 C  
HETATM   10  C   UNL     1      -7.464   9.582  66.571  1.00  0.00    -0.093 C  
HETATM   11  C   UNL     1     -11.015  11.789  67.839  1.00  0.00    -0.272 C  
HETATM   12  C   UNL     1     -10.181  12.673  68.913  1.00  0.00    -0.004 C  
HETATM   13  C   UNL     1     -10.344  13.968  69.220  1.00  0.00     0.018 C  
HETATM   14  C   UNL     1      -8.871  10.106  67.491  1.00  0.00    -0.125 C  
HETATM   15  C   UNL     1      -9.980  11.202  66.832  1.00  0.00    -0.230 C  
HETATM   16  O   UNL     1      -9.562   8.917  67.896  1.00  0.00    -0.144 OA 
HETATM   17  C   UNL     1     -10.648  10.723  65.382  1.00  0.00    -0.224 C  
HETATM   18  H   UNL     1     -10.321   9.199  68.392  1.00  0.00     0.000 HD 
HETATM   19  C   UNL     1     -11.541  11.839  64.813  1.00  0.00    -0.241 C  
HETATM   20  C   UNL     1     -12.574  12.351  65.801  1.00  0.00     0.376 C  
HETATM   21  C   UNL     1     -11.986  12.755  67.120  1.00  0.00    -0.351 C  
HETATM   22  C   UNL     1     -12.376  13.877  67.749  1.00  0.00    -0.039 C  
HETATM   23  C   UNL     1     -11.881  13.913  69.131  1.00  0.00    -0.358 C  
HETATM   24  O   UNL     1     -12.611  13.837  70.111  1.00  0.00    -0.291 OA 
ENDROOT
BRANCH   4  25
HETATM   25  C   UNL     1      -8.338   7.289  65.923  1.00  0.00    -0.144 C  
HETATM   26  O   UNL     1      -7.896   7.174  67.078  1.00  0.00    -0.105 OA 
BRANCH  25  27
HETATM   27  C   UNL     1      -8.030   6.015  65.041  1.00  0.00    -0.125 C  
HETATM   28  C   UNL     1      -6.928   6.316  63.973  1.00  0.00    -0.040 C  
ENDBRANCH  25  27
ENDBRANCH   4  25
TORSDOF 2
ENDMDL
MODEL      106
REMARK 921   NORMALIZED FREE ENERGY PREDICTED BY IDOCK:    7.12 KCAL/MOL
REMARK 922        TOTAL FREE ENERGY PREDICTED BY IDOCK:    9.00 KCAL/MOL
REMARK 923 INTER-LIGAND FREE ENERGY PREDICTED BY IDOCK:    7.33 KCAL/MOL
REMARK 924 INTRA-LIGAND FREE ENERGY PREDICTED BY IDOCK:    1.67 KCAL/MOL
REMARK 927      BINDING AFFINITY PREDICTED BY RF-SCORE:    0.00 PKD
ROOT
HETATM    1  C   UNL     1      -5.743  17.669  67.993  1.00  0.00    -0.150 C  
HETATM    2  C   UNL     1      -5.589  18.699  68.928  1.00  0.00    -0.200 C  
HETATM    3  C   UNL     1      -6.751  17.799  69.107  1.00  0.00    -0.239 C  
HETATM    4  C   UNL     1      -6.605  16.012  68.022  1.00  0.00    -0.145 C  
HETATM    5  C   UNL     1      -7.302  18.926  70.295  1.00  0.00     1.117 C  
HETATM    6  C   UNL     1      -9.792  17.556  65.190  1.00  0.00     1.321 C  
HETATM    7  C   UNL     1      -5.273  15.585  67.061  1.00  0.00     0.655 C  
HETATM    8  C   UNL     1      -6.295  16.361  69.307  1.00  0.00    -0.186 C  
HETATM    9  C   UNL     1      -5.178  15.871  70.192  1.00  0.00    -0.144 C  
HETATM   10  C   UNL     1      -8.128  16.071  69.541  1.00  0.00    -0.028 C  
HETATM   11  C   UNL     1      -9.658  18.590  66.316  1.00  0.00    -0.279 C  
HETATM   12  C   UNL     1     -10.991  18.988  67.151  1.00  0.00    -0.338 C  
HETATM   13  C   UNL     1     -11.618  20.172  67.187  1.00  0.00     1.402 C  
HETATM   14  C   UNL     1      -9.042  16.634  68.145  1.00  0.00    -0.213 C  
HETATM   15  C   UNL     1      -8.615  18.065  67.349  1.00  0.00    -0.244 C  
HETATM   16  O   UNL     1      -9.060  15.554  67.203  1.00  0.00    -0.201 OA 
HETATM   17  C   UNL     1      -7.042  18.109  66.798  1.00  0.00    -0.235 C  
HETATM   18  H   UNL     1      -9.552  15.858  66.450  1.00  0.00     0.000 HD 
HETATM   19  C   UNL     1      -6.723  19.491  66.204  1.00  0.00    -0.230 C  
HETATM   20  C   UNL     1      -7.729  19.949  65.163  1.00  0.00     0.466 C  
HETATM   21  C   UNL     1      -9.149  19.884  65.638  1.00  0.00     0.171 C  
HETATM   22  C   UNL     1     -10.023  20.873  65.381  1.00  0.00     1.347 C  
HETATM   23  C   UNL     1     -11.399  20.464  65.691  1.00  0.00     1.203 C  
HETATM   24  O   UNL     1     -12.263  20.303  64.838  1.00  0.00     2.752 OA 
ENDROOT
BRANCH   4  25
HETATM   25  C   UNL     1      -6.826  14.242  68.356  1.00  0.00    -0.104 C  
HETATM   26  O   UNL     1      -7.549  13.833  69.279  1.00  0.00     0.029 OA 
BRANCH  25  27
HETATM   27  C   UNL     1      -6.015  13.070  67.673  1.00  0.00    -0.145 C  
HETATM   28  C   UNL     1      -5.460  12.068  68.737  1.00  0.00    -0.049 C  
ENDBRANCH  25  27
ENDBRANCH   4  25
TORSDOF 2
ENDMDL
MODEL      107
REMARK 921   NORMALIZED FREE ENERGY PREDICTED BY IDOCK:    8.96 KCAL/MOL
REMARK 922        TOTAL FREE ENERGY PREDICTED BY IDOCK:   11.06 KCAL/MOL
REMARK 923 INTER-LIGAND FREE ENERGY PREDICTED BY IDOCK:    8.92 KCAL/MOL
REMARK 924 INTRA-LIGAND FREE ENERGY PREDICTED BY IDOCK:    2.14 KCAL/MOL
REMARK 927      BINDING AFFINITY PREDICTED BY RF-SCORE:    0.00 PKD
ROOT
HETATM    1  C   UNL     1     -11.353  10.052  67.120  1.00  0.00     0.393 C  
HETATM    2  C   UNL     1     -12.402  10.487  66.303  1.00  0.00     4.942 C  
HETATM    3  C   UNL     1     -11.282  11.432  66.515  1.00  0.00    -0.276 C  
HETATM    4  C   UNL     1      -9.553  10.528  67.279  1.00  0.00    -0.188 C  
HETATM    5  C   UNL     1     -12.283  12.618  65.756  1.00  0.00    -0.427 C  
HETATM    6  C   UNL     1     -10.369  12.510  71.275  1.00  0.00     7.828 C  
HETATM    7  C   UNL     1      -9.402   8.866  67.588  1.00  0.00    -0.156 C  
HETATM    8  C   UNL     1      -9.973  10.839  66.015  1.00  0.00    -0.295 C  
HETATM    9  C   UNL     1      -9.735  10.110  64.718  1.00  0.00    -0.389 C  
HETATM   10  C   UNL     1      -9.310  12.520  66.502  1.00  0.00    -0.233 C  
HETATM   11  C   UNL     1     -11.422  13.041  70.291  1.00  0.00     0.104 C  
HETATM   12  C   UNL     1     -11.543  14.647  70.095  1.00  0.00    -0.336 C  
HETATM   13  C   UNL     1     -12.571  15.442  70.423  1.00  0.00    -0.433 C  
HETATM   14  C   UNL     1      -9.656  12.873  68.192  1.00  0.00    -0.223 C  
HETATM   15  C   UNL     1     -11.136  12.432  68.885  1.00  0.00    -0.307 C  
HETATM   16  O   UNL     1      -8.586  12.304  68.957  1.00  0.00    -0.349 OA 
HETATM   17  C   UNL     1     -11.500  10.809  68.768  1.00  0.00    -0.364 C  
HETATM   18  H   UNL     1      -8.772  12.494  69.868  1.00  0.00     0.000 HD 
HETATM   19  C   UNL     1     -12.912  10.538  69.314  1.00  0.00     1.252 C  
HETATM   20  C   UNL     1     -13.139  11.098  70.707  1.00  0.00    -0.081 C  
HETATM   21  C   UNL     1     -12.786  12.549  70.830  1.00  0.00    -0.270 C  
HETATM   22  C   UNL     1     -13.569  13.409  71.505  1.00  0.00    -0.207 C  
HETATM   23  C   UNL     1     -12.886  14.690  71.729  1.00  0.00    -0.332 C  
HETATM   24  O   UNL     1     -12.540  15.085  72.835  1.00  0.00    -0.355 OA 
ENDROOT
BRANCH   4  25
HETATM   25  C   UNL     1      -7.780  10.533  66.895  1.00  0.00    -0.114 C  
HETATM   26  O   UNL     1      -7.194  11.560  66.513  1.00  0.00    -0.106 OA 
BRANCH  25  27
HETATM   27  C   UNL     1      -6.853   9.256  66.815  1.00  0.00    -0.080 C  
HETATM   28  C   UNL     1      -6.975   8.550  65.426  1.00  0.00    -0.078 C  
ENDBRANCH  25  27
ENDBRANCH   4  25
TORSDOF 2
ENDMDL
MODEL      108
REMARK 921   NORMALIZED FREE ENERGY PREDICTED BY IDOCK:   10.82 KCAL/MOL
REMARK 922        TOTAL FREE ENERGY PREDICTED BY IDOCK:   13.14 KCAL/MOL
REMARK 923 INTER-LIGAND FREE ENERGY PREDICTED BY IDOCK:   11.62 KCAL/MOL
REMARK 924 INTRA-LIGAND FREE ENERGY PREDICTED BY IDOCK:    1.53 KCAL/MOL
REMARK 927      BINDING AFFINITY PREDICTED BY RF-SCORE:    0.00 PKD
ROOT
HETATM    1  C   UNL     1      -8.413  19.456  67.281  1.00  0.00    -0.325 C  
HETATM    2  C   UNL     1      -9.685  19.884  66.885  1.00  0.00    -0.532 C  
HETATM    3  C   UNL     1      -9.596  19.138  68.162  1.00  0.00    -0.411 C  
HETATM    4  C   UNL     1      -7.649  19.017  68.929  1.00  0.00    -0.355 C  
HETATM    5  C   UNL     1     -11.322  19.079  68.121  1.00  0.00     0.865 C  
HETATM    6  C   UNL     1      -7.548  14.632  67.777  1.00  0.00    -0.173 C  
HETATM    7  C   UNL     1      -6.292  19.735  68.207  1.00  0.00    -0.286 C  
HETATM    8  C   UNL     1      -8.698  19.867  69.151  1.00  0.00     0.122 C  
HETATM    9  C   UNL     1      -8.688  21.340  69.463  1.00  0.00     3.993 C  
HETATM   10  C   UNL     1      -9.233  18.477  70.284  1.00  0.00     2.284 C  
HETATM   11  C   UNL     1      -8.966  15.138  67.478  1.00  0.00    -0.187 C  
HETATM   12  C   UNL     1     -10.215  14.360  68.162  1.00  0.00    -0.232 C  
HETATM   13  C   UNL     1     -11.175  13.648  67.554  1.00  0.00    -0.316 C  
HETATM   14  C   UNL     1      -8.861  16.907  69.579  1.00  0.00     0.429 C  
HETATM   15  C   UNL     1      -9.063  16.629  67.921  1.00  0.00    -0.218 C  
HETATM   16  O   UNL     1      -7.511  16.599  69.951  1.00  0.00     0.312 OA 
HETATM   17  C   UNL     1      -8.224  17.680  66.936  1.00  0.00    -0.248 C  
HETATM   18  H   UNL     1      -7.311  15.752  69.571  1.00  0.00     0.000 HD 
HETATM   19  C   UNL     1      -8.572  17.421  65.461  1.00  0.00     0.912 C  
HETATM   20  C   UNL     1      -8.416  15.968  65.048  1.00  0.00     3.914 C  
HETATM   21  C   UNL     1      -9.142  15.013  65.947  1.00  0.00    -0.024 C  
HETATM   22  C   UNL     1      -9.843  13.977  65.453  1.00  0.00    -0.216 C  
HETATM   23  C   UNL     1     -10.220  13.034  66.513  1.00  0.00    -0.268 C  
HETATM   24  O   UNL     1      -9.768  11.899  66.600  1.00  0.00    -0.197 OA 
ENDROOT
BRANCH   4  25
HETATM   25  C   UNL     1      -6.841  19.293  70.530  1.00  0.00     0.575 C  
HETATM   26  O   UNL     1      -6.582  18.357  71.304  1.00  0.00     1.653 OA 
BRANCH  25  27
HETATM   27  C   UNL     1      -6.560  20.702  71.186  1.00  0.00     0.735 C  
HETATM   28  C   UNL     1      -5.143  20.751  71.843  1.00  0.00    -0.189 C  
ENDBRANCH  25  27
ENDBRANCH   4  25
TORSDOF 2
ENDMDL
MODEL      109
REMARK 921   NORMALIZED FREE ENERGY PREDICTED BY IDOCK:   12.70 KCAL/MOL
REMARK 922        TOTAL FREE ENERGY PREDICTED BY IDOCK:   15.24 KCAL/MOL
REMARK 923 INTER-LIGAND FREE ENERGY PREDICTED BY IDOCK:   13.74 KCAL/MOL
REMARK 924 INTRA-LIGAND FREE ENERGY PREDICTED BY IDOCK:    1.50 KCAL/MOL
REMARK 927      BINDING AFFINITY PREDICTED BY RF-SCORE:    0.00 PKD
ROOT
HETATM    1  C   UNL     1     -11.636   9.493  69.045  1.00  0.00     0.374 C  
HETATM    2  C   UNL     1     -12.351   9.680  67.857  1.00  0.00     4.668 C  
HETATM    3  C   UNL     1     -11.033  10.348  67.958  1.00  0.00    -0.347 C  
HETATM    4  C   UNL     1      -9.826   9.594  69.497  1.00  0.00    -0.219 C  
HETATM    5  C   UNL     1     -11.471  11.188  66.513  1.00  0.00     0.115 C  
HETATM    6  C   UNL     1     -10.566  13.403  71.844  1.00  0.00     7.168 C  
HETATM    7  C   UNL     1     -10.267   8.309  70.514  1.00  0.00    -0.213 C  
HETATM    8  C   UNL     1      -9.924   9.326  68.159  1.00  0.00    -0.206 C  
HETATM    9  C   UNL     1      -9.737   8.023  67.426  1.00  0.00    -0.216 C  
HETATM   10  C   UNL     1      -8.839  10.846  68.051  1.00  0.00    -0.135 C  
HETATM   11  C   UNL     1     -11.227  13.590  70.471  1.00  0.00     0.636 C  
HETATM   12  C   UNL     1     -10.794  14.877  69.583  1.00  0.00    -0.269 C  
HETATM   13  C   UNL     1     -11.549  15.927  69.230  1.00  0.00    -0.372 C  
HETATM   14  C   UNL     1      -9.309  12.046  69.250  1.00  0.00     0.722 C  
HETATM   15  C   UNL     1     -10.940  12.325  69.607  1.00  0.00     0.087 C  
HETATM   16  O   UNL     1      -8.609  11.717  70.457  1.00  0.00     2.633 OA 
HETATM   17  C   UNL     1     -11.784  10.972  70.093  1.00  0.00    -0.442 C  
HETATM   18  H   UNL     1      -8.863  12.364  71.104  1.00  0.00     0.000 HD 
HETATM   19  C   UNL     1     -13.274  11.308  70.271  1.00  0.00     0.459 C  
HETATM   20  C   UNL     1     -13.521  12.513  71.161  1.00  0.00     0.409 C  
HETATM   21  C   UNL     1     -12.743  13.726  70.750  1.00  0.00    -0.361 C  
HETATM   22  C   UNL     1     -13.301  14.949  70.737  1.00  0.00    -0.338 C  
HETATM   23  C   UNL     1     -12.286  15.999  70.580  1.00  0.00    -0.150 C  
HETATM   24  O   UNL     1     -12.005  16.803  71.459  1.00  0.00     0.072 OA 
ENDROOT
BRANCH   4  25
HETATM   25  C   UNL     1      -8.109   9.037  69.675  1.00  0.00    -0.103 C  
HETATM   26  O   UNL     1      -7.476   8.544  68.727  1.00  0.00    -0.088 OA 
BRANCH  25  27
HETATM   27  C   UNL     1      -7.312   8.937  71.036  1.00  0.00    -0.114 C  
HETATM   28  C   UNL     1      -5.851   8.432  70.804  1.00  0.00    -0.032 C  
ENDBRANCH  25  27
ENDBRANCH   4  25
TORSDOF 2
ENDMDL
MODEL      110
REMARK 921   NORMALIZED FREE ENERGY PREDICTED BY IDOCK:   13.82 KCAL/MOL
REMARK 922        TOTAL FREE ENERGY PREDICTED BY IDOCK:   16.49 KCAL/MOL
REMARK 923 INTER-LIGAND FREE ENERGY PREDICTED BY IDOCK:   14.08 KCAL/MOL
REMARK 924 INTRA-LIGAND FREE ENERGY PREDICTED BY IDOCK:    2.41 KCAL/MOL
REMARK 927      BINDING AFFINITY PREDICTED BY RF-SCORE:    0.00 PKD
ROOT
HETATM    1  C   UNL     1      -7.783   4.866  70.717  1.00  0.00    -0.070 C  
HETATM    2  C   UNL     1      -6.923   4.260  71.639  1.00  0.00    -0.038 C  
HETATM    3  C   UNL     1      -8.087   4.990  72.190  1.00  0.00    -0.112 C  
HETATM    4  C   UNL     1      -9.576   5.389  70.770  1.00  0.00    -0.228 C  
HETATM    5  C   UNL     1      -7.342   4.793  73.736  1.00  0.00    -0.082 C  
HETATM    6  C   UNL     1      -8.359   9.757  70.828  1.00  0.00     0.259 C  
HETATM    7  C   UNL     1      -9.507   4.892  69.149  1.00  0.00    -0.205 C  
HETATM    8  C   UNL     1      -9.390   4.389  71.684  1.00  0.00    -0.199 C  
HETATM    9  C   UNL     1      -9.750   2.929  71.595  1.00  0.00    -0.226 C  
HETATM   10  C   UNL     1     -10.138   5.666  72.829  1.00  0.00    -0.205 C  
HETATM   11  C   UNL     1      -7.531   9.050  71.910  1.00  0.00     0.122 C  
HETATM   12  C   UNL     1      -7.606   9.623  73.426  1.00  0.00     2.592 C  
HETATM   13  C   UNL     1      -6.626  10.193  74.141  1.00  0.00     1.706 C  
HETATM   14  C   UNL     1      -9.573   7.285  72.428  1.00  0.00    -0.150 C  
HETATM   15  C   UNL     1      -7.966   7.554  71.967  1.00  0.00    -0.103 C  
HETATM   16  O   UNL     1     -10.449   7.785  71.409  1.00  0.00    -0.207 OA 
HETATM   17  C   UNL     1      -7.462   6.655  70.657  1.00  0.00    -0.083 C  
HETATM   18  H   UNL     1     -10.144   8.657  71.193  1.00  0.00     0.000 HD 
HETATM   19  C   UNL     1      -5.962   6.882  70.401  1.00  0.00    -0.024 C  
HETATM   20  C   UNL     1      -5.580   8.348  70.298  1.00  0.00    -0.021 C  
HETATM   21  C   UNL     1      -6.057   9.171  71.456  1.00  0.00    -0.076 C  
HETATM   22  C   UNL     1      -5.271  10.098  72.031  1.00  0.00     0.005 C  
HETATM   23  C   UNL     1      -6.038  10.958  72.941  1.00  0.00     2.457 C  
HETATM   24  O   UNL     1      -6.248  12.146  72.730  1.00  0.00     2.302 OA 
ENDROOT
BRANCH   4  25
HETATM   25  C   UNL     1     -11.379   5.213  70.661  1.00  0.00     1.048 C  
HETATM   26  O   UNL     1     -12.021   4.524  71.471  1.00  0.00     2.307 OA 
BRANCH  25  27
HETATM   27  C   UNL     1     -12.282   5.727  69.472  1.00  0.00     3.253 C  
HETATM   28  C   UNL     1     -11.525   6.777  68.595  1.00  0.00     0.059 C  
ENDBRANCH  25  27
ENDBRANCH   4  25
TORSDOF 2
ENDMDL
MODEL      111
REMARK 921   NORMALIZED FREE ENERGY PREDICTED BY IDOCK:   14.51 KCAL/MOL
REMARK 922        TOTAL FREE ENERGY PREDICTED BY IDOCK:   17.26 KCAL/MOL
REMARK 923 INTER-LIGAND FREE ENERGY PREDICTED BY IDOCK:   14.12 KCAL/MOL
REMARK 924 INTRA-LIGAND FREE ENERGY PREDICTED BY IDOCK:    3.14 KCAL/MOL
REMARK 927      BINDING AFFINITY PREDICTED BY RF-SCORE:    0.00 PKD
ROOT
HETATM    1  C   UNL     1      -9.935  19.302  67.970  1.00  0.00    -0.473 C  
HETATM    2  C   UNL     1     -10.930  19.139  68.939  1.00  0.00     1.134 C  
HETATM    3  C   UNL     1      -9.961  18.030  68.781  1.00  0.00    -0.380 C  
HETATM    4  C   UNL     1      -8.233  18.570  67.725  1.00  0.00    -0.265 C  
HETATM    5  C   UNL     1     -11.005  17.116  69.810  1.00  0.00     0.344 C  
HETATM    6  C   UNL     1      -9.721  16.146  64.194  1.00  0.00     4.821 C  
HETATM    7  C   UNL     1      -7.921  20.132  67.139  1.00  0.00    -0.363 C  
HETATM    8  C   UNL     1      -8.543  18.509  69.056  1.00  0.00    -0.078 C  
HETATM    9  C   UNL     1      -8.078  19.384  70.190  1.00  0.00     1.099 C  
HETATM   10  C   UNL     1      -8.144  16.701  68.788  1.00  0.00    -0.247 C  
HETATM   11  C   UNL     1     -10.712  15.914  65.343  1.00  0.00    -0.415 C  
HETATM   12  C   UNL     1     -11.001  14.385  65.806  1.00  0.00    -0.314 C  
HETATM   13  C   UNL     1     -12.146  13.696  65.706  1.00  0.00    -0.463 C  
HETATM   14  C   UNL     1      -8.716  16.151  67.216  1.00  0.00    -0.183 C  
HETATM   15  C   UNL     1     -10.201  16.680  66.600  1.00  0.00    -0.304 C  
HETATM   16  O   UNL     1      -7.678  16.450  66.274  1.00  0.00    -0.267 OA 
HETATM   17  C   UNL     1     -10.354  18.336  66.486  1.00  0.00    -0.410 C  
HETATM   18  H   UNL     1      -7.986  16.154  65.427  1.00  0.00     0.000 HD 
HETATM   19  C   UNL     1     -11.776  18.711  66.035  1.00  0.00     2.653 C  
HETATM   20  C   UNL     1     -12.222  17.986  64.778  1.00  0.00     6.654 C  
HETATM   21  C   UNL     1     -12.060  16.499  64.859  1.00  0.00     1.447 C  
HETATM   22  C   UNL     1     -13.010  15.662  64.406  1.00  0.00     1.163 C  
HETATM   23  C   UNL     1     -12.514  14.282  64.330  1.00  0.00    -0.272 C  
HETATM   24  O   UNL     1     -12.342  13.684  63.275  1.00  0.00    -0.743 OA 
ENDROOT
BRANCH   4  25
HETATM   25  C   UNL     1      -6.441  18.382  67.941  1.00  0.00    -0.200 C  
HETATM   26  O   UNL     1      -5.869  18.707  68.994  1.00  0.00    -0.206 OA 
BRANCH  25  27
HETATM   27  C   UNL     1      -5.416  17.987  66.806  1.00  0.00    -0.167 C  
HETATM   28  C   UNL     1      -5.421  16.445  66.546  1.00  0.00     0.560 C  
ENDBRANCH  25  27
ENDBRANCH   4  25
TORSDOF 2
ENDMDL
MODEL      112
REMARK 921   NORMALIZED FREE ENERGY PREDICTED BY IDOCK:   14.70 KCAL/MOL
REMARK 922        TOTAL FREE ENERGY PREDICTED BY IDOCK:   17.47 KCAL/MOL
REMARK 923 INTER-LIGAND FREE ENERGY PREDICTED BY IDOCK:   13.23 KCAL/MOL
REMARK 924 INTRA-LIGAND FREE ENERGY PREDICTED BY IDOCK:    4.25 KCAL/MOL
REMARK 927      BINDING AFFINITY PREDICTED BY RF-SCORE:    0.00 PKD
ROOT
HETATM    1  C   UNL     1     -10.866  18.508  67.966  1.00  0.00    -0.161 C  
HETATM    2  C   UNL     1     -11.224  18.861  69.272  1.00  0.00     2.557 C  
HETATM    3  C   UNL     1      -9.881  18.264  69.083  1.00  0.00    -0.174 C  
HETATM    4  C   UNL     1      -9.232  18.272  67.090  1.00  0.00    -0.264 C  
HETATM    5  C   UNL     1      -9.804  18.161  70.806  1.00  0.00     3.256 C  
HETATM    6  C   UNL     1      -9.900  13.790  66.930  1.00  0.00    -0.264 C  
HETATM    7  C   UNL     1     -10.115  18.936  65.801  1.00  0.00    -0.092 C  
HETATM    8  C   UNL     1      -9.038  19.118  68.147  1.00  0.00    -0.371 C  
HETATM    9  C   UNL     1      -8.890  20.617  68.161  1.00  0.00     0.204 C  
HETATM   10  C   UNL     1      -7.728  17.851  68.570  1.00  0.00    -0.299 C  
HETATM   11  C   UNL     1     -10.161  14.228  68.378  1.00  0.00    -0.245 C  
HETATM   12  C   UNL     1      -9.318  13.503  69.560  1.00  0.00     1.176 C  
HETATM   13  C   UNL     1      -9.781  12.706  70.533  1.00  0.00     5.667 C  
HETATM   14  C   UNL     1      -8.278  16.221  68.197  1.00  0.00    -0.163 C  
HETATM   15  C   UNL     1      -9.879  15.757  68.492  1.00  0.00    -0.209 C  
HETATM   16  O   UNL     1      -7.962  15.987  66.818  1.00  0.00    -0.225 OA 
HETATM   17  C   UNL     1     -11.025  16.710  67.746  1.00  0.00    -0.234 C  
HETATM   18  H   UNL     1      -8.259  15.108  66.617  1.00  0.00     0.000 HD 
HETATM   19  C   UNL     1     -12.438  16.280  68.177  1.00  0.00     1.584 C  
HETATM   20  C   UNL     1     -12.698  14.794  68.004  1.00  0.00     1.034 C  
HETATM   21  C   UNL     1     -11.655  13.929  68.645  1.00  0.00    -0.363 C  
HETATM   22  C   UNL     1     -11.987  12.829  69.343  1.00  0.00    -0.321 C  
HETATM   23  C   UNL     1     -10.807  12.001  69.627  1.00  0.00     0.205 C  
HETATM   24  O   UNL     1     -10.626  10.894  69.136  1.00  0.00    -0.203 OA 
ENDROOT
BRANCH   4  25
HETATM   25  C   UNL     1      -7.727  18.743  66.193  1.00  0.00    -0.247 C  
HETATM   26  O   UNL     1      -6.657  18.128  66.337  1.00  0.00    -0.185 OA 
BRANCH  25  27
HETATM   27  C   UNL     1      -7.549  20.044  65.315  1.00  0.00     0.118 C  
HETATM   28  C   UNL     1      -8.824  20.946  65.370  1.00  0.00     1.442 C  
ENDBRANCH  25  27
ENDBRANCH   4  25
TORSDOF 2
ENDMDL
MODEL      113
REMARK 921   NORMALIZED FREE ENERGY PREDICTED BY IDOCK:   26.59 KCAL/MOL
REMARK 922        TOTAL FREE ENERGY PREDICTED BY IDOCK:   30.75 KCAL/MOL
REMARK 923 INTER-LIGAND FREE ENERGY PREDICTED BY IDOCK:   27.98 KCAL/MOL
REMARK 924 INTRA-LIGAND FREE ENERGY PREDICTED BY IDOCK:    2.77 KCAL/MOL
REMARK 927      BINDING AFFINITY PREDICTED BY RF-SCORE:    0.00 PKD
ROOT
HETATM    1  C   UNL     1      -5.999  14.424  69.282  1.00  0.00    -0.097 C  
HETATM    2  C   UNL     1      -5.380  15.071  68.207  1.00  0.00    -0.114 C  
HETATM    3  C   UNL     1      -6.594  15.711  68.766  1.00  0.00    -0.110 C  
HETATM    4  C   UNL     1      -7.124  14.992  70.662  1.00  0.00     0.613 C  
HETATM    5  C   UNL     1      -6.543  16.757  67.392  1.00  0.00    -0.189 C  
HETATM    6  C   UNL     1     -10.628  12.816  68.777  1.00  0.00    -0.216 C  
HETATM    7  C   UNL     1      -6.240  13.826  71.522  1.00  0.00     0.504 C  
HETATM    8  C   UNL     1      -6.391  16.064  70.232  1.00  0.00     0.095 C  
HETATM    9  C   UNL     1      -5.185  16.714  70.857  1.00  0.00    -0.165 C  
HETATM   10  C   UNL     1      -8.097  16.806  70.035  1.00  0.00     1.593 C  
HETATM   11  C   UNL     1      -9.971  13.648  67.667  1.00  0.00    -0.239 C  
HETATM   12  C   UNL     1     -10.898  14.700  66.851  1.00  0.00    -0.305 C  
HETATM   13  C   UNL     1     -11.242  14.663  65.556  1.00  0.00    -0.343 C  
HETATM   14  C   UNL     1      -9.247  15.606  69.456  1.00  0.00    -0.259 C  
HETATM   15  C   UNL     1      -8.798  14.464  68.289  1.00  0.00    -0.182 C  
HETATM   16  O   UNL     1      -9.751  14.927  70.614  1.00  0.00    -0.016 OA 
HETATM   17  C   UNL     1      -7.476  13.536  68.701  1.00  0.00    -0.108 C  
HETATM   18  H   UNL     1     -10.371  14.279  70.301  1.00  0.00     0.000 HD 
HETATM   19  C   UNL     1      -7.078  12.624  67.529  1.00  0.00    -0.152 C  
HETATM   20  C   UNL     1      -8.233  11.803  66.981  1.00  0.00    -0.172 C  
HETATM   21  C   UNL     1      -9.437  12.626  66.636  1.00  0.00    -0.244 C  
HETATM   22  C   UNL     1     -10.135  12.411  65.508  1.00  0.00    -0.287 C  
HETATM   23  C   UNL     1     -11.414  13.133  65.526  1.00  0.00    -0.315 C  
HETATM   24  O   UNL     1     -12.503  12.576  65.583  1.00  0.00    -0.648 OA 
ENDROOT
BRANCH   4  25
HETATM   25  C   UNL     1      -7.582  15.708  72.265  1.00  0.00     7.211 C  
HETATM   26  O   UNL     1      -8.359  15.131  73.043  1.00  0.00     7.008 OA 
BRANCH  25  27
HETATM   27  C   UNL     1      -7.223  17.166  72.756  1.00  0.00    10.886 C  
HETATM   28  C   UNL     1      -5.722  17.269  73.183  1.00  0.00     4.230 C  
ENDBRANCH  25  27
ENDBRANCH   4  25
TORSDOF 2
ENDMDL
MODEL      114
REMARK 921   NORMALIZED FREE ENERGY PREDICTED BY IDOCK:   26.62 KCAL/MOL
REMARK 922        TOTAL FREE ENERGY PREDICTED BY IDOCK:   30.79 KCAL/MOL
REMARK 923 INTER-LIGAND FREE ENERGY PREDICTED BY IDOCK:   27.24 KCAL/MOL
REMARK 924 INTRA-LIGAND FREE ENERGY PREDICTED BY IDOCK:    3.55 KCAL/MOL
REMARK 927      BINDING AFFINITY PREDICTED BY RF-SCORE:    0.00 PKD
ROOT
HETATM    1  C   UNL     1     -12.755  16.417  70.387  1.00  0.00     1.592 C  
HETATM    2  C   UNL     1     -13.723  16.849  69.474  1.00  0.00     7.876 C  
HETATM    3  C   UNL     1     -12.745  15.847  68.991  1.00  0.00     0.929 C  
HETATM    4  C   UNL     1     -11.705  14.878  70.531  1.00  0.00    -0.344 C  
HETATM    5  C   UNL     1     -13.379  16.151  67.412  1.00  0.00     5.509 C  
HETATM    6  C   UNL     1      -7.996  17.235  69.410  1.00  0.00     0.288 C  
HETATM    7  C   UNL     1     -11.970  15.156  72.184  1.00  0.00    -0.489 C  
HETATM    8  C   UNL     1     -12.828  14.570  69.814  1.00  0.00     0.111 C  
HETATM    9  C   UNL     1     -14.074  13.842  70.249  1.00  0.00     2.324 C  
HETATM   10  C   UNL     1     -11.551  13.982  68.580  1.00  0.00    -0.357 C  
HETATM   11  C   UNL     1      -9.071  17.572  68.367  1.00  0.00    -0.276 C  
HETATM   12  C   UNL     1      -8.718  17.333  66.801  1.00  0.00    -0.275 C  
HETATM   13  C   UNL     1      -8.590  18.253  65.835  1.00  0.00     0.160 C  
HETATM   14  C   UNL     1     -10.155  15.054  68.554  1.00  0.00    -0.225 C  
HETATM   15  C   UNL     1     -10.345  16.732  68.679  1.00  0.00    -0.318 C  
HETATM   16  O   UNL     1      -9.268  14.599  69.585  1.00  0.00    -0.403 OA 
HETATM   17  C   UNL     1     -11.168  17.235  70.039  1.00  0.00     1.014 C  
HETATM   18  H   UNL     1      -8.516  15.177  69.571  1.00  0.00     0.000 HD 
HETATM   19  C   UNL     1     -11.393  18.756  69.992  1.00  0.00     4.358 C  
HETATM   20  C   UNL     1     -10.123  19.549  69.739  1.00  0.00     0.191 C  
HETATM   21  C   UNL     1      -9.360  19.083  68.537  1.00  0.00    -0.425 C  
HETATM   22  C   UNL     1      -8.817  19.953  67.668  1.00  0.00    -0.406 C  
HETATM   23  C   UNL     1      -7.892  19.280  66.746  1.00  0.00    -0.262 C  
HETATM   24  O   UNL     1      -6.682  19.465  66.750  1.00  0.00    -0.195 OA 
ENDROOT
BRANCH   4  25
HETATM   25  C   UNL     1     -11.287  13.168  70.970  1.00  0.00     1.772 C  
HETATM   26  O   UNL     1     -11.866  12.565  71.888  1.00  0.00     1.360 OA 
BRANCH  25  27
HETATM   27  C   UNL     1     -10.066  12.345  70.397  1.00  0.00     3.871 C  
HETATM   28  C   UNL     1     -10.455  11.585  69.088  1.00  0.00    -0.135 C  
ENDBRANCH  25  27
ENDBRANCH   4  25
TORSDOF 2
ENDMDL
MODEL      115
REMARK 921   NORMALIZED FREE ENERGY PREDICTED BY IDOCK:   34.62 KCAL/MOL
REMARK 922        TOTAL FREE ENERGY PREDICTED BY IDOCK:   39.72 KCAL/MOL
REMARK 923 INTER-LIGAND FREE ENERGY PREDICTED BY IDOCK:   38.06 KCAL/MOL
REMARK 924 INTRA-LIGAND FREE ENERGY PREDICTED BY IDOCK:    1.66 KCAL/MOL
REMARK 927      BINDING AFFINITY PREDICTED BY RF-SCORE:    0.00 PKD
ROOT
HETATM    1  C   UNL     1      -8.771  12.238  68.253  1.00  0.00    -0.178 C  
HETATM    2  C   UNL     1      -9.370  11.582  69.334  1.00  0.00     0.577 C  
HETATM    3  C   UNL     1     -10.106  12.729  68.755  1.00  0.00    -0.057 C  
HETATM    4  C   UNL     1      -9.424  13.293  66.856  1.00  0.00    -0.249 C  
HETATM    5  C   UNL     1     -11.152  12.609  70.125  1.00  0.00     0.616 C  
HETATM    6  C   UNL     1      -7.562  16.993  68.701  1.00  0.00    -0.238 C  
HETATM    7  C   UNL     1      -8.183  12.499  66.013  1.00  0.00     0.893 C  
HETATM    8  C   UNL     1     -10.432  12.478  67.291  1.00  0.00    -0.232 C  
HETATM    9  C   UNL     1     -10.975  11.213  66.679  1.00  0.00    -0.289 C  
HETATM   10  C   UNL     1     -11.317  14.118  67.461  1.00  0.00    -0.343 C  
HETATM   11  C   UNL     1      -8.342  16.283  69.817  1.00  0.00     0.551 C  
HETATM   12  C   UNL     1      -9.473  17.129  70.616  1.00  0.00     3.492 C  
HETATM   13  C   UNL     1      -9.473  17.492  71.906  1.00  0.00     9.843 C  
HETATM   14  C   UNL     1     -10.221  15.373  68.030  1.00  0.00    -0.235 C  
HETATM   15  C   UNL     1      -9.053  15.037  69.208  1.00  0.00    -0.157 C  
HETATM   16  O   UNL     1      -9.581  15.916  66.868  1.00  0.00    -0.220 OA 
HETATM   17  C   UNL     1      -8.014  13.793  68.817  1.00  0.00    -0.041 C  
HETATM   18  H   UNL     1      -8.990  16.593  67.175  1.00  0.00     0.000 HD 
HETATM   19  C   UNL     1      -7.078  13.489  70.000  1.00  0.00     0.609 C  
HETATM   20  C   UNL     1      -6.361  14.716  70.535  1.00  0.00    -0.109 C  
HETATM   21  C   UNL     1      -7.284  15.851  70.859  1.00  0.00     2.220 C  
HETATM   22  C   UNL     1      -7.136  16.580  71.979  1.00  0.00     7.139 C  
HETATM   23  C   UNL     1      -7.962  17.793  71.940  1.00  0.00    11.815 C  
HETATM   24  O   UNL     1      -7.498  18.923  71.871  1.00  0.00     4.360 OA 
ENDROOT
BRANCH   4  25
HETATM   25  C   UNL     1     -10.167  13.668  65.243  1.00  0.00    -0.323 C  
HETATM   26  O   UNL     1     -10.492  14.823  64.923  1.00  0.00    -0.412 OA 
BRANCH  25  27
HETATM   27  C   UNL     1     -10.646  12.600  64.182  1.00  0.00    -0.434 C  
HETATM   28  C   UNL     1     -12.170  12.754  63.868  1.00  0.00    -0.543 C  
ENDBRANCH  25  27
ENDBRANCH   4  25
TORSDOF 2
ENDMDL
MODEL      116
REMARK 921   NORMALIZED FREE ENERGY PREDICTED BY IDOCK:   37.93 KCAL/MOL
REMARK 922        TOTAL FREE ENERGY PREDICTED BY IDOCK:   43.42 KCAL/MOL
REMARK 923 INTER-LIGAND FREE ENERGY PREDICTED BY IDOCK:   40.88 KCAL/MOL
REMARK 924 INTRA-LIGAND FREE ENERGY PREDICTED BY IDOCK:    2.54 KCAL/MOL
REMARK 927      BINDING AFFINITY PREDICTED BY RF-SCORE:    0.00 PKD
ROOT
HETATM    1  C   UNL     1      -9.143  20.266  70.425  1.00  0.00     1.477 C  
HETATM    2  C   UNL     1      -9.655  21.261  69.584  1.00  0.00     2.649 C  
HETATM    3  C   UNL     1     -10.118  19.875  69.342  1.00  0.00    -0.186 C  
HETATM    4  C   UNL     1      -9.740  18.573  70.940  1.00  0.00     3.565 C  
HETATM    5  C   UNL     1     -10.817  20.480  67.883  1.00  0.00     0.425 C  
HETATM    6  C   UNL     1      -6.480  16.610  68.473  1.00  0.00    -0.139 C  
HETATM    7  C   UNL     1      -9.020  19.041  72.403  1.00  0.00     7.819 C  
HETATM    8  C   UNL     1     -10.825  19.320  70.570  1.00  0.00     2.726 C  
HETATM    9  C   UNL     1     -11.848  20.016  71.429  1.00  0.00    11.957 C  
HETATM   10  C   UNL     1     -11.108  17.855  69.441  1.00  0.00     1.339 C  
HETATM   11  C   UNL     1      -7.169  17.638  67.564  1.00  0.00    -0.194 C  
HETATM   12  C   UNL     1      -7.781  17.121  66.153  1.00  0.00    -0.302 C  
HETATM   13  C   UNL     1      -7.382  17.443  64.914  1.00  0.00     3.601 C  
HETATM   14  C   UNL     1      -9.585  17.237  68.810  1.00  0.00    -0.269 C  
HETATM   15  C   UNL     1      -8.342  18.292  68.356  1.00  0.00    -0.323 C  
HETATM   16  O   UNL     1      -9.087  16.306  69.780  1.00  0.00     0.057 OA 
HETATM   17  C   UNL     1      -7.844  19.334  69.558  1.00  0.00     0.087 C  
HETATM   18  H   UNL     1      -8.266  15.973  69.440  1.00  0.00     0.000 HD 
HETATM   19  C   UNL     1      -6.805  20.326  69.007  1.00  0.00    -0.183 C  
HETATM   20  C   UNL     1      -5.649  19.653  68.288  1.00  0.00    -0.224 C  
HETATM   21  C   UNL     1      -6.087  18.691  67.226  1.00  0.00    -0.174 C  
HETATM   22  C   UNL     1      -5.478  18.639  66.029  1.00  0.00    -0.193 C  
HETATM   23  C   UNL     1      -5.885  17.447  65.273  1.00  0.00     0.943 C  
HETATM   24  O   UNL     1      -5.127  16.520  65.018  1.00  0.00     2.488 OA 
ENDROOT
BRANCH   4  25
HETATM   25  C   UNL     1     -10.675  17.341  71.889  1.00  0.00     2.779 C  
HETATM   26  O   UNL     1     -10.920  17.490  73.097  1.00  0.00     1.652 OA 
BRANCH  25  27
HETATM   27  C   UNL     1     -11.101  15.911  71.369  1.00  0.00    -0.152 C  
HETATM   28  C   UNL     1     -11.557  14.990  72.547  1.00  0.00    -0.348 C  
ENDBRANCH  25  27
ENDBRANCH   4  25
TORSDOF 2
ENDMDL
MODEL      117
REMARK 921   NORMALIZED FREE ENERGY PREDICTED BY IDOCK:   51.57 KCAL/MOL
REMARK 922        TOTAL FREE ENERGY PREDICTED BY IDOCK:   58.66 KCAL/MOL
REMARK 923 INTER-LIGAND FREE ENERGY PREDICTED BY IDOCK:   54.74 KCAL/MOL
REMARK 924 INTRA-LIGAND FREE ENERGY PREDICTED BY IDOCK:    3.92 KCAL/MOL
REMARK 927      BINDING AFFINITY PREDICTED BY RF-SCORE:    0.00 PKD
ROOT
HETATM    1  C   UNL     1      -8.011  14.627  70.583  1.00  0.00     1.720 C  
HETATM    2  C   UNL     1      -8.688  14.865  71.784  1.00  0.00     5.079 C  
HETATM    3  C   UNL     1      -9.367  14.000  70.791  1.00  0.00     4.201 C  
HETATM    4  C   UNL     1      -8.088  13.273  69.298  1.00  0.00     0.613 C  
HETATM    5  C   UNL     1     -10.766  14.130  71.796  1.00  0.00     3.138 C  
HETATM    6  C   UNL     1     -10.043  16.108  66.346  1.00  0.00    -0.321 C  
HETATM    7  C   UNL     1      -6.422  13.586  69.233  1.00  0.00    -0.111 C  
HETATM    8  C   UNL     1      -8.530  12.766  70.488  1.00  0.00     6.198 C  
HETATM    9  C   UNL     1      -7.818  11.879  71.477  1.00  0.00    10.179 C  
HETATM   10  C   UNL     1     -10.013  12.320  69.438  1.00  0.00     0.697 C  
HETATM   11  C   UNL     1     -10.821  16.230  67.664  1.00  0.00    -0.293 C  
HETATM   12  C   UNL     1     -12.423  15.973  67.631  1.00  0.00     1.730 C  
HETATM   13  C   UNL     1     -13.404  16.856  67.866  1.00  0.00     6.314 C  
HETATM   14  C   UNL     1     -10.365  13.588  68.268  1.00  0.00    -0.252 C  
HETATM   15  C   UNL     1     -10.221  15.222  68.689  1.00  0.00    -0.223 C  
HETATM   16  O   UNL     1      -9.555  13.321  67.117  1.00  0.00    -0.225 OA 
HETATM   17  C   UNL     1      -8.717  15.659  69.261  1.00  0.00    -0.267 C  
HETATM   18  H   UNL     1      -9.744  14.005  66.486  1.00  0.00     0.000 HD 
HETATM   19  C   UNL     1      -8.730  17.124  69.728  1.00  0.00     1.170 C  
HETATM   20  C   UNL     1      -9.271  18.087  68.686  1.00  0.00    -0.276 C  
HETATM   21  C   UNL     1     -10.609  17.685  68.143  1.00  0.00    -0.359 C  
HETATM   22  C   UNL     1     -11.588  18.586  67.949  1.00  0.00     1.384 C  
HETATM   23  C   UNL     1     -12.686  18.018  67.156  1.00  0.00     6.416 C  
HETATM   24  O   UNL     1     -12.957  18.384  66.019  1.00  0.00     8.650 OA 
ENDROOT
BRANCH   4  25
HETATM   25  C   UNL     1      -7.734  11.669  68.529  1.00  0.00    -0.134 C  
HETATM   26  O   UNL     1      -8.376  10.646  68.818  1.00  0.00    -0.127 OA 
BRANCH  25  27
HETATM   27  C   UNL     1      -6.503  11.351  67.591  1.00  0.00    -0.063 C  
HETATM   28  C   UNL     1      -5.372  12.417  67.756  1.00  0.00    -0.095 C  
ENDBRANCH  25  27
ENDBRANCH   4  25
TORSDOF 2
ENDMDL
MODEL      118
REMARK 921   NORMALIZED FREE ENERGY PREDICTED BY IDOCK:   56.99 KCAL/MOL
REMARK 922        TOTAL FREE ENERGY PREDICTED BY IDOCK:   64.70 KCAL/MOL
REMARK 923 INTER-LIGAND FREE ENERGY PREDICTED BY IDOCK:   62.67 KCAL/MOL
REMARK 924 INTRA-LIGAND FREE ENERGY PREDICTED BY IDOCK:    2.03 KCAL/MOL
REMARK 927      BINDING AFFINITY PREDICTED BY RF-SCORE:    0.00 PKD
ROOT
HETATM    1  C   UNL     1      -6.891  17.185  69.016  1.00  0.00    -0.231 C  
HETATM    2  C   UNL     1      -6.543  18.517  69.267  1.00  0.00    -0.267 C  
HETATM    3  C   UNL     1      -7.754  18.002  69.946  1.00  0.00     1.240 C  
HETATM    4  C   UNL     1      -7.890  15.911  69.948  1.00  0.00     0.369 C  
HETATM    5  C   UNL     1      -8.066  19.641  70.395  1.00  0.00     1.366 C  
HETATM    6  C   UNL     1     -11.222  16.197  66.885  1.00  0.00     0.128 C  
HETATM    7  C   UNL     1      -6.717  14.877  69.288  1.00  0.00    -0.141 C  
HETATM    8  C   UNL     1      -7.409  16.824  70.845  1.00  0.00     3.879 C  
HETATM    9  C   UNL     1      -6.249  16.712  71.800  1.00  0.00     2.612 C  
HETATM   10  C   UNL     1      -9.224  16.944  71.284  1.00  0.00     6.598 C  
HETATM   11  C   UNL     1     -10.870  17.633  67.297  1.00  0.00    -0.141 C  
HETATM   12  C   UNL     1     -12.061  18.578  67.864  1.00  0.00     3.356 C  
HETATM   13  C   UNL     1     -12.572  19.685  67.307  1.00  0.00     4.224 C  
HETATM   14  C   UNL     1     -10.233  16.829  69.846  1.00  0.00     0.138 C  
HETATM   15  C   UNL     1      -9.771  17.577  68.400  1.00  0.00    -0.316 C  
HETATM   16  O   UNL     1     -10.452  15.432  69.609  1.00  0.00    -0.246 OA 
HETATM   17  C   UNL     1      -8.271  17.121  67.832  1.00  0.00    -0.202 C  
HETATM   18  H   UNL     1     -10.996  15.371  68.833  1.00  0.00     0.000 HD 
HETATM   19  C   UNL     1      -7.898  17.946  66.589  1.00  0.00    -0.272 C  
HETATM   20  C   UNL     1      -8.968  17.936  65.512  1.00  0.00     0.983 C  
HETATM   21  C   UNL     1     -10.326  18.315  66.019  1.00  0.00    -0.377 C  
HETATM   22  C   UNL     1     -11.131  19.139  65.326  1.00  0.00     0.657 C  
HETATM   23  C   UNL     1     -12.495  19.136  65.870  1.00  0.00     7.065 C  
HETATM   24  O   UNL     1     -13.460  18.679  65.270  1.00  0.00    14.403 OA 
ENDROOT
BRANCH   4  25
HETATM   25  C   UNL     1      -8.230  14.611  71.167  1.00  0.00     3.396 C  
HETATM   26  O   UNL     1      -8.343  14.859  72.379  1.00  0.00     4.773 OA 
BRANCH  25  27
HETATM   27  C   UNL     1      -8.232  13.057  70.878  1.00  0.00     7.686 C  
HETATM   28  C   UNL     1      -9.200  12.698  69.705  1.00  0.00     1.994 C  
ENDBRANCH  25  27
ENDBRANCH   4  25
TORSDOF 2
ENDMDL
MODEL      119
REMARK 921   NORMALIZED FREE ENERGY PREDICTED BY IDOCK:   61.55 KCAL/MOL
REMARK 922        TOTAL FREE ENERGY PREDICTED BY IDOCK:   69.80 KCAL/MOL
REMARK 923 INTER-LIGAND FREE ENERGY PREDICTED BY IDOCK:   62.99 KCAL/MOL
REMARK 924 INTRA-LIGAND FREE ENERGY PREDICTED BY IDOCK:    6.81 KCAL/MOL
REMARK 927      BINDING AFFINITY PREDICTED BY RF-SCORE:    0.00 PKD
ROOT
HETATM    1  C   UNL     1     -12.479  15.798  70.232  1.00  0.00    -0.291 C  
HETATM    2  C   UNL     1     -13.523  15.092  70.841  1.00  0.00    -0.432 C  
HETATM    3  C   UNL     1     -12.214  15.084  71.535  1.00  0.00    -0.399 C  
HETATM    4  C   UNL     1     -10.897  16.569  70.861  1.00  0.00     0.345 C  
HETATM    5  C   UNL     1     -12.888  13.868  72.561  1.00  0.00    -0.371 C  
HETATM    6  C   UNL     1      -8.446  13.358  68.800  1.00  0.00     0.103 C  
HETATM    7  C   UNL     1     -11.282  17.717  69.672  1.00  0.00     1.724 C  
HETATM    8  C   UNL     1     -11.786  16.498  71.898  1.00  0.00    -0.279 C  
HETATM    9  C   UNL     1     -12.636  17.582  72.508  1.00  0.00     4.396 C  
HETATM   10  C   UNL     1     -10.358  15.596  72.704  1.00  0.00     3.271 C  
HETATM   11  C   UNL     1      -9.547  12.639  69.592  1.00  0.00     1.765 C  
HETATM   12  C   UNL     1      -9.100  11.510  70.669  1.00  0.00     5.431 C  
HETATM   13  C   UNL     1      -9.339  10.192  70.630  1.00  0.00     0.640 C  
HETATM   14  C   UNL     1      -9.517  14.575  71.542  1.00  0.00     4.657 C  
HETATM   15  C   UNL     1     -10.375  13.705  70.370  1.00  0.00     2.165 C  
HETATM   16  O   UNL     1      -8.541  15.404  70.898  1.00  0.00     1.095 OA 
HETATM   17  C   UNL     1     -11.356  14.637  69.395  1.00  0.00    -0.314 C  
HETATM   18  H   UNL     1      -8.088  14.854  70.271  1.00  0.00     0.000 HD 
HETATM   19  C   UNL     1     -12.178  13.742  68.454  1.00  0.00    -0.181 C  
HETATM   20  C   UNL     1     -11.335  12.750  67.672  1.00  0.00    -0.359 C  
HETATM   21  C   UNL     1     -10.427  11.928  68.537  1.00  0.00    -0.240 C  
HETATM   22  C   UNL     1     -10.269  10.609  68.336  1.00  0.00    -0.191 C  
HETATM   23  C   UNL     1      -9.135  10.083  69.107  1.00  0.00    -0.184 C  
HETATM   24  O   UNL     1      -8.104   9.668  68.593  1.00  0.00    -0.097 OA 
ENDROOT
BRANCH   4  25
HETATM   25  C   UNL     1      -9.829  17.827  71.614  1.00  0.00     6.616 C  
HETATM   26  O   UNL     1      -9.386  18.788  70.963  1.00  0.00     3.496 OA 
BRANCH  25  27
HETATM   27  C   UNL     1      -9.203  17.753  73.063  1.00  0.00    13.551 C  
HETATM   28  C   UNL     1      -8.744  16.300  73.411  1.00  0.00    17.080 C  
ENDBRANCH  25  27
ENDBRANCH   4  25
TORSDOF 2
ENDMDL
MODEL      120
REMARK 921   NORMALIZED FREE ENERGY PREDICTED BY IDOCK:   73.25 KCAL/MOL
REMARK 922        TOTAL FREE ENERGY PREDICTED BY IDOCK:   82.86 KCAL/MOL
REMARK 923 INTER-LIGAND FREE ENERGY PREDICTED BY IDOCK:   79.54 KCAL/MOL
REMARK 924 INTRA-LIGAND FREE ENERGY PREDICTED BY IDOCK:    3.32 KCAL/MOL
REMARK 927      BINDING AFFINITY PREDICTED BY RF-SCORE:    0.00 PKD
ROOT
HETATM    1  C   UNL     1      -6.831  12.834  69.715  1.00  0.00     0.265 C  
HETATM    2  C   UNL     1      -7.305  12.725  68.403  1.00  0.00    -0.118 C  
HETATM    3  C   UNL     1      -8.300  13.051  69.451  1.00  0.00     1.054 C  
HETATM    4  C   UNL     1      -7.443  13.714  71.245  1.00  0.00     4.472 C  
HETATM    5  C   UNL     1      -9.502  12.771  68.243  1.00  0.00    -0.203 C  
HETATM    6  C   UNL     1      -8.548   9.751  73.153  1.00  0.00     4.889 C  
HETATM    7  C   UNL     1      -5.776  13.918  71.489  1.00  0.00    -0.211 C  
HETATM    8  C   UNL     1      -7.944  14.357  70.146  1.00  0.00     0.960 C  
HETATM    9  C   UNL     1      -7.499  15.644  69.502  1.00  0.00    -0.192 C  
HETATM   10  C   UNL     1      -9.560  14.040  71.034  1.00  0.00     4.856 C  
HETATM   11  C   UNL     1      -9.147   9.748  71.739  1.00  0.00     2.002 C  
HETATM   12  C   UNL     1     -10.742   9.488  71.586  1.00  0.00    -0.164 C  
HETATM   13  C   UNL     1     -11.355   8.443  71.013  1.00  0.00    -0.303 C  
HETATM   14  C   UNL     1      -9.553  12.465  71.821  1.00  0.00    16.692 C  
HETATM   15  C   UNL     1      -8.845  11.123  71.070  1.00  0.00     6.206 C  
HETATM   16  O   UNL     1      -8.960  12.654  73.112  1.00  0.00    18.485 OA 
HETATM   17  C   UNL     1      -7.246  11.329  70.648  1.00  0.00     1.956 C  
HETATM   18  H   UNL     1      -8.955  11.805  73.536  1.00  0.00     0.000 HD 
HETATM   19  C   UNL     1      -6.738  10.105  69.867  1.00  0.00    -0.110 C  
HETATM   20  C   UNL     1      -7.001   8.785  70.572  1.00  0.00    -0.048 C  
HETATM   21  C   UNL     1      -8.431   8.605  70.983  1.00  0.00    -0.199 C  
HETATM   22  C   UNL     1      -9.067   7.431  70.819  1.00  0.00    -0.151 C  
HETATM   23  C   UNL     1     -10.344   7.410  71.544  1.00  0.00    -0.200 C  
HETATM   24  O   UNL     1     -10.556   6.696  72.515  1.00  0.00    -0.204 OA 
ENDROOT
BRANCH   4  25
HETATM   25  C   UNL     1      -7.697  15.091  72.400  1.00  0.00     5.822 C  
HETATM   26  O   UNL     1      -8.476  16.024  72.148  1.00  0.00     8.080 OA 
BRANCH  25  27
HETATM   27  C   UNL     1      -6.855  15.357  73.710  1.00  0.00     5.205 C  
HETATM   28  C   UNL     1      -5.331  15.108  73.468  1.00  0.00     0.704 C  
ENDBRANCH  25  27
ENDBRANCH   4  25
TORSDOF 2
ENDMDL
MODEL      121
REMARK 921   NORMALIZED FREE ENERGY PREDICTED BY IDOCK:   76.30 KCAL/MOL
REMARK 922        TOTAL FREE ENERGY PREDICTED BY IDOCK:   86.28 KCAL/MOL
REMARK 923 INTER-LIGAND FREE ENERGY PREDICTED BY IDOCK:   84.09 KCAL/MOL
REMARK 924 INTRA-LIGAND FREE ENERGY PREDICTED BY IDOCK:    2.18 KCAL/MOL
REMARK 927      BINDING AFFINITY PREDICTED BY RF-SCORE:    0.00 PKD
ROOT
HETATM    1  C   UNL     1     -12.115  13.997  69.668  1.00  0.00    -0.408 C  
HETATM    2  C   UNL     1     -12.154  14.816  68.534  1.00  0.00    -0.210 C  
HETATM    3  C   UNL     1     -10.816  14.403  69.017  1.00  0.00    -0.267 C  
HETATM    4  C   UNL     1     -10.867  12.784  70.346  1.00  0.00     1.766 C  
HETATM    5  C   UNL     1     -10.177  15.556  67.900  1.00  0.00    -0.238 C  
HETATM    6  C   UNL     1      -9.861  15.626  73.734  1.00  0.00     9.399 C  
HETATM    7  C   UNL     1     -12.283  11.970  70.806  1.00  0.00    -0.382 C  
HETATM    8  C   UNL     1     -10.679  12.888  68.996  1.00  0.00    -0.132 C  
HETATM    9  C   UNL     1     -11.093  11.948  67.894  1.00  0.00    -0.297 C  
HETATM   10  C   UNL     1      -8.934  13.284  69.543  1.00  0.00     1.451 C  
HETATM   11  C   UNL     1      -9.802  16.442  72.435  1.00  0.00     7.273 C  
HETATM   12  C   UNL     1      -8.430  17.240  72.096  1.00  0.00    14.511 C  
HETATM   13  C   UNL     1      -8.243  18.566  72.028  1.00  0.00    10.731 C  
HETATM   14  C   UNL     1      -8.935  14.258  71.010  1.00  0.00     4.502 C  
HETATM   15  C   UNL     1     -10.079  15.485  71.236  1.00  0.00     1.287 C  
HETATM   16  O   UNL     1      -9.000  13.341  72.110  1.00  0.00    12.696 OA 
HETATM   17  C   UNL     1     -11.665  14.983  71.128  1.00  0.00    -0.385 C  
HETATM   18  H   UNL     1      -9.001  13.866  72.901  1.00  0.00     0.000 HD 
HETATM   19  C   UNL     1     -12.614  16.190  71.224  1.00  0.00     0.024 C  
HETATM   20  C   UNL     1     -12.351  17.072  72.432  1.00  0.00     1.398 C  
HETATM   21  C   UNL     1     -10.921  17.503  72.555  1.00  0.00     2.545 C  
HETATM   22  C   UNL     1     -10.593  18.763  72.887  1.00  0.00     3.356 C  
HETATM   23  C   UNL     1      -9.167  18.874  73.221  1.00  0.00     7.263 C  
HETATM   24  O   UNL     1      -8.755  19.115  74.348  1.00  0.00     4.033 OA 
ENDROOT
BRANCH   4  25
HETATM   25  C   UNL     1      -9.995  11.204  70.536  1.00  0.00     2.424 C  
HETATM   26  O   UNL     1     -10.542  10.208  71.038  1.00  0.00    -0.112 OA 
BRANCH  25  27
HETATM   27  C   UNL     1      -8.454  10.968  70.280  1.00  0.00     2.006 C  
HETATM   28  C   UNL     1      -8.193   9.573  69.624  1.00  0.00    -0.143 C  
ENDBRANCH  25  27
ENDBRANCH   4  25
TORSDOF 2
ENDMDL
