MODEL        1
REMARK 921   NORMALIZED FREE ENERGY PREDICTED BY IDOCK:   -7.91 KCAL/MOL
REMARK 922        TOTAL FREE ENERGY PREDICTED BY IDOCK:  -10.65 KCAL/MOL
REMARK 923 INTER-LIGAND FREE ENERGY PREDICTED BY IDOCK:   -9.76 KCAL/MOL
REMARK 924 INTRA-LIGAND FREE ENERGY PREDICTED BY IDOCK:   -0.89 KCAL/MOL
REMARK 927      BINDING AFFINITY PREDICTED BY RF-SCORE:    0.00 PKD
ROOT
HETATM    1  C   UNL     1     -11.606  14.722  71.010  1.00  0.00    -0.313 C  
HETATM    2  C   UNL     1     -11.588  13.759  69.871  1.00  0.00    -0.298 A  
HETATM    3  C   UNL     1     -11.151  13.952  68.552  1.00  0.00    -0.265 A  
HETATM    4  C   UNL     1     -11.998  12.398  69.967  1.00  0.00    -0.299 A  
HETATM    5  N   UNL     1     -11.339  12.702  67.923  1.00  0.00    -0.268 NA 
HETATM    6  N   UNL     1     -11.756  11.753  68.817  1.00  0.00    -0.307 NA 
ENDROOT
BRANCH   3   7
HETATM    7  C   UNL     1     -10.553  15.184  67.972  1.00  0.00    -0.258 A  
HETATM    8  C   UNL     1      -9.391  15.092  67.180  1.00  0.00    -0.223 A  
HETATM    9  C   UNL     1     -10.496  17.602  67.607  1.00  0.00    -0.372 A  
HETATM   10  C   UNL     1     -11.108  16.462  68.152  1.00  0.00    -0.320 A  
HETATM   11  C   UNL     1      -8.817  16.218  66.577  1.00  0.00    -0.318 A  
HETATM   12 CL   UNL     1      -8.642  18.865  66.101  1.00  0.00    -0.254 Cl 
HETATM   13  C   UNL     1      -9.365  17.474  66.807  1.00  0.00    -0.265 A  
ENDBRANCH   3   7
BRANCH   5  14
HETATM   14  C   UNL     1     -11.094  12.243  66.586  1.00  0.00    -0.297 A  
HETATM   15  C   UNL     1     -10.315  11.068  66.448  1.00  0.00    -0.302 A  
HETATM   16  C   UNL     1     -10.337  11.270  64.052  1.00  0.00    -0.371 A  
HETATM   17  C   UNL     1     -11.153  12.394  64.161  1.00  0.00    -0.425 A  
HETATM   18 CL   UNL     1     -12.884  13.984  65.391  1.00  0.00    -0.515 Cl 
HETATM   19  C   UNL     1     -11.580  12.850  65.420  1.00  0.00    -0.350 A  
HETATM   20  C   UNL     1      -9.948  10.581  65.192  1.00  0.00    -0.375 A  
HETATM   21 CL   UNL     1      -9.853  10.702  62.503  1.00  0.00    -0.168 Cl 
ENDBRANCH   5  14
BRANCH   4  22
HETATM   22  C   UNL     1     -12.597  11.694  71.138  1.00  0.00    -0.335 C  
HETATM   23  O   UNL     1     -13.410  12.243  71.880  1.00  0.00    -0.463 OA 
HETATM   24  N   UNL     1     -12.146  10.388  71.266  1.00  0.00    -0.370 N  
HETATM   25  H   UNL     1     -11.442  10.079  70.597  1.00  0.00     0.000 HD 
BRANCH  24  26
HETATM   26  N   UNL     1     -12.564   9.449  72.225  1.00  0.00    -0.340 NA 
HETATM   27  C   UNL     1     -13.991   9.140  72.219  1.00  0.00    -0.420 C  
HETATM   28  C   UNL     1     -14.342   7.906  71.397  1.00  0.00    -0.502 C  
HETATM   29  C   UNL     1     -13.568   6.698  71.911  1.00  0.00    -0.022 C  
HETATM   30  C   UNL     1     -12.070   6.972  71.867  1.00  0.00    -0.358 C  
HETATM   31  C   UNL     1     -11.682   8.313  72.505  1.00  0.00    -0.383 C  
ENDBRANCH  24  26
ENDBRANCH   4  22
TORSDOF 4
ENDMDL
MODEL        2
REMARK 921   NORMALIZED FREE ENERGY PREDICTED BY IDOCK:   -7.63 KCAL/MOL
REMARK 922        TOTAL FREE ENERGY PREDICTED BY IDOCK:  -10.31 KCAL/MOL
REMARK 923 INTER-LIGAND FREE ENERGY PREDICTED BY IDOCK:   -9.10 KCAL/MOL
REMARK 924 INTRA-LIGAND FREE ENERGY PREDICTED BY IDOCK:   -1.21 KCAL/MOL
REMARK 927      BINDING AFFINITY PREDICTED BY RF-SCORE:    0.00 PKD
ROOT
HETATM    1  C   UNL     1     -10.942  11.099  66.693  1.00  0.00    -0.289 C  
HETATM    2  C   UNL     1     -11.039  10.634  68.106  1.00  0.00    -0.343 A  
HETATM    3  C   UNL     1     -10.784   9.363  68.642  1.00  0.00    -0.160 A  
HETATM    4  C   UNL     1     -11.388  11.474  69.203  1.00  0.00    -0.286 A  
HETATM    5  N   UNL     1     -11.011   9.503  70.028  1.00  0.00    -0.242 NA 
HETATM    6  N   UNL     1     -11.276  10.805  70.359  1.00  0.00    -0.260 NA 
ENDROOT
BRANCH   3   7
HETATM    7  C   UNL     1     -10.308   8.157  67.913  1.00  0.00    -0.280 A  
HETATM    8  C   UNL     1      -8.963   8.075  67.499  1.00  0.00    -0.143 A  
HETATM    9  C   UNL     1     -10.649   5.951  66.915  1.00  0.00    -0.384 A  
HETATM   10  C   UNL     1     -11.135   7.058  67.629  1.00  0.00    -0.190 A  
HETATM   11  C   UNL     1      -8.457   6.943  66.850  1.00  0.00    -0.115 A  
HETATM   12 CL   UNL     1      -8.704   4.511  65.713  1.00  0.00    -0.119 Cl 
HETATM   13  C   UNL     1      -9.310   5.888  66.545  1.00  0.00    -0.153 A  
ENDBRANCH   3   7
BRANCH   5  14
HETATM   14  C   UNL     1     -10.926   8.580  71.123  1.00  0.00    -0.253 A  
HETATM   15  C   UNL     1      -9.790   8.687  71.961  1.00  0.00    -0.396 A  
HETATM   16  C   UNL     1     -10.467   6.752  73.217  1.00  0.00    -0.296 A  
HETATM   17  C   UNL     1     -11.622   6.662  72.444  1.00  0.00    -0.281 A  
HETATM   18 CL   UNL     1     -13.505   7.614  70.836  1.00  0.00    -0.035 Cl 
HETATM   19  C   UNL     1     -11.883   7.606  71.435  1.00  0.00    -0.293 A  
HETATM   20  C   UNL     1      -9.568   7.787  73.005  1.00  0.00    -0.320 A  
HETATM   21 CL   UNL     1     -10.179   5.613  74.473  1.00  0.00    -0.288 Cl 
ENDBRANCH   5  14
BRANCH   4  22
HETATM   22  C   UNL     1     -11.807  12.905  69.173  1.00  0.00    -0.303 C  
HETATM   23  O   UNL     1     -12.131  13.466  68.128  1.00  0.00    -0.335 OA 
HETATM   24  N   UNL     1     -11.797  13.491  70.431  1.00  0.00    -0.511 N  
HETATM   25  H   UNL     1     -11.469  12.913  71.204  1.00  0.00     0.000 HD 
BRANCH  24  26
HETATM   26  N   UNL     1     -12.195  14.803  70.745  1.00  0.00    -0.290 NA 
HETATM   27  C   UNL     1     -13.635  15.009  70.866  1.00  0.00    -0.307 C  
HETATM   28  C   UNL     1     -14.145  14.905  72.299  1.00  0.00    -0.600 C  
HETATM   29  C   UNL     1     -13.418  15.907  73.187  1.00  0.00    -0.650 C  
HETATM   30  C   UNL     1     -11.913  15.671  73.128  1.00  0.00    -0.584 C  
HETATM   31  C   UNL     1     -11.375  15.561  71.694  1.00  0.00    -0.388 C  
ENDBRANCH  24  26
ENDBRANCH   4  22
TORSDOF 4
ENDMDL
MODEL        3
REMARK 921   NORMALIZED FREE ENERGY PREDICTED BY IDOCK:   -7.57 KCAL/MOL
REMARK 922        TOTAL FREE ENERGY PREDICTED BY IDOCK:  -10.23 KCAL/MOL
REMARK 923 INTER-LIGAND FREE ENERGY PREDICTED BY IDOCK:   -9.06 KCAL/MOL
REMARK 924 INTRA-LIGAND FREE ENERGY PREDICTED BY IDOCK:   -1.17 KCAL/MOL
REMARK 927      BINDING AFFINITY PREDICTED BY RF-SCORE:    0.00 PKD
ROOT
HETATM    1  C   UNL     1     -10.945  11.030  66.426  1.00  0.00    -0.202 C  
HETATM    2  C   UNL     1     -10.975  10.533  67.831  1.00  0.00    -0.352 A  
HETATM    3  C   UNL     1     -10.655   9.262  68.331  1.00  0.00    -0.190 A  
HETATM    4  C   UNL     1     -11.313  11.338  68.957  1.00  0.00    -0.278 A  
HETATM    5  N   UNL     1     -10.836   9.367  69.727  1.00  0.00    -0.233 NA 
HETATM    6  N   UNL     1     -11.136  10.651  70.094  1.00  0.00    -0.289 NA 
ENDROOT
BRANCH   3   7
HETATM    7  C   UNL     1     -10.162   8.089  67.560  1.00  0.00    -0.311 A  
HETATM    8  C   UNL     1     -10.996   6.966  67.387  1.00  0.00    -0.374 A  
HETATM    9  C   UNL     1      -8.461   6.907  66.261  1.00  0.00    -0.131 A  
HETATM   10  C   UNL     1      -8.894   8.046  66.958  1.00  0.00    -0.143 A  
HETATM   11  C   UNL     1     -10.594   5.857  66.633  1.00  0.00    -0.330 A  
HETATM   12 CL   UNL     1      -8.804   4.449  65.190  1.00  0.00    -0.132 Cl 
HETATM   13  C   UNL     1      -9.317   5.825  66.085  1.00  0.00    -0.144 A  
ENDBRANCH   3   7
BRANCH   5  14
HETATM   14  C   UNL     1     -10.678   8.425  70.798  1.00  0.00    -0.212 A  
HETATM   15  C   UNL     1     -11.721   7.484  70.977  1.00  0.00    -0.317 A  
HETATM   16  C   UNL     1     -10.663   6.608  72.951  1.00  0.00    -0.255 A  
HETATM   17  C   UNL     1      -9.597   7.484  72.761  1.00  0.00    -0.229 A  
HETATM   18 CL   UNL     1      -8.042   9.084  71.326  1.00  0.00    -0.180 Cl 
HETATM   19  C   UNL     1      -9.574   8.353  71.656  1.00  0.00    -0.221 A  
HETATM   20  C   UNL     1     -11.708   6.577  72.039  1.00  0.00    -0.367 A  
HETATM   21 CL   UNL     1     -10.661   5.523  74.286  1.00  0.00    -0.266 Cl 
ENDBRANCH   5  14
BRANCH   4  22
HETATM   22  C   UNL     1     -11.784  12.754  68.973  1.00  0.00    -0.323 C  
HETATM   23  O   UNL     1     -12.147  13.329  67.949  1.00  0.00    -0.331 OA 
HETATM   24  N   UNL     1     -11.772  13.307  70.245  1.00  0.00    -0.539 N  
HETATM   25  H   UNL     1     -11.410  12.721  70.997  1.00  0.00     0.000 HD 
BRANCH  24  26
HETATM   26  N   UNL     1     -12.211  14.595  70.601  1.00  0.00    -0.302 NA 
HETATM   27  C   UNL     1     -13.646  14.724  70.837  1.00  0.00    -0.223 C  
HETATM   28  C   UNL     1     -14.034  14.588  72.305  1.00  0.00    -0.600 C  
HETATM   29  C   UNL     1     -13.292  15.622  73.141  1.00  0.00    -0.660 C  
HETATM   30  C   UNL     1     -11.786  15.466  72.961  1.00  0.00    -0.532 C  
HETATM   31  C   UNL     1     -11.359  15.390  71.488  1.00  0.00    -0.396 C  
ENDBRANCH  24  26
ENDBRANCH   4  22
TORSDOF 4
ENDMDL
MODEL        4
REMARK 921   NORMALIZED FREE ENERGY PREDICTED BY IDOCK:   -7.53 KCAL/MOL
REMARK 922        TOTAL FREE ENERGY PREDICTED BY IDOCK:  -10.18 KCAL/MOL
REMARK 923 INTER-LIGAND FREE ENERGY PREDICTED BY IDOCK:   -9.62 KCAL/MOL
REMARK 924 INTRA-LIGAND FREE ENERGY PREDICTED BY IDOCK:   -0.57 KCAL/MOL
REMARK 927      BINDING AFFINITY PREDICTED BY RF-SCORE:    0.00 PKD
ROOT
HETATM    1  C   UNL     1     -11.641  16.077  68.380  1.00  0.00    -0.279 C  
HETATM    2  C   UNL     1     -11.029  15.127  67.408  1.00  0.00    -0.314 A  
HETATM    3  C   UNL     1     -10.927  13.730  67.475  1.00  0.00    -0.272 A  
HETATM    4  C   UNL     1     -10.454  15.515  66.163  1.00  0.00    -0.313 A  
HETATM    5  N   UNL     1     -10.281  13.356  66.277  1.00  0.00    -0.291 NA 
HETATM    6  N   UNL     1     -10.094  14.435  65.456  1.00  0.00    -0.349 NA 
ENDROOT
BRANCH   3   7
HETATM    7  C   UNL     1     -11.454  12.839  68.544  1.00  0.00    -0.344 A  
HETATM    8  C   UNL     1     -11.816  13.383  69.793  1.00  0.00    -0.393 A  
HETATM    9  C   UNL     1     -12.116  10.651  69.413  1.00  0.00    -0.250 A  
HETATM   10  C   UNL     1     -11.640  11.458  68.367  1.00  0.00    -0.385 A  
HETATM   11  C   UNL     1     -12.357  12.593  70.814  1.00  0.00    -0.372 A  
HETATM   12 CL   UNL     1     -13.118  10.241  71.889  1.00  0.00    -0.564 Cl 
HETATM   13  C   UNL     1     -12.491  11.222  70.624  1.00  0.00    -0.348 A  
ENDBRANCH   3   7
BRANCH   5  14
HETATM   14  C   UNL     1      -9.884  12.084  65.746  1.00  0.00    -0.242 A  
HETATM   15  C   UNL     1      -8.845  11.404  66.430  1.00  0.00    -0.193 A  
HETATM   16  C   UNL     1      -8.821   9.663  64.772  1.00  0.00    -0.207 A  
HETATM   17  C   UNL     1      -9.882  10.281  64.115  1.00  0.00    -0.319 A  
HETATM   18 CL   UNL     1     -11.985  11.891  63.955  1.00  0.00    -0.508 Cl 
HETATM   19  C   UNL     1     -10.453  11.459  64.629  1.00  0.00    -0.315 A  
HETATM   20  C   UNL     1      -8.326  10.200  65.951  1.00  0.00    -0.137 A  
HETATM   21 CL   UNL     1      -8.157   8.202  64.152  1.00  0.00    -0.151 Cl 
ENDBRANCH   5  14
BRANCH   4  22
HETATM   22  C   UNL     1     -10.258  16.893  65.627  1.00  0.00    -0.206 C  
HETATM   23  O   UNL     1     -10.994  17.364  64.761  1.00  0.00    -0.964 OA 
HETATM   24  N   UNL     1      -9.190  17.552  66.219  1.00  0.00    -0.239 N  
HETATM   25  H   UNL     1      -8.645  17.022  66.899  1.00  0.00     0.000 HD 
BRANCH  24  26
HETATM   26  N   UNL     1      -8.786  18.876  65.977  1.00  0.00    -0.465 NA 
HETATM   27  C   UNL     1      -9.414  19.887  66.822  1.00  0.00    -0.395 C  
HETATM   28  C   UNL     1      -8.589  20.251  68.050  1.00  0.00    -0.138 C  
HETATM   29  C   UNL     1      -7.208  20.736  67.628  1.00  0.00    -0.332 C  
HETATM   30  C   UNL     1      -6.504  19.670  66.797  1.00  0.00    -0.199 C  
HETATM   31  C   UNL     1      -7.376  19.118  65.660  1.00  0.00    -0.136 C  
ENDBRANCH  24  26
ENDBRANCH   4  22
TORSDOF 4
ENDMDL
MODEL        5
REMARK 921   NORMALIZED FREE ENERGY PREDICTED BY IDOCK:   -7.51 KCAL/MOL
REMARK 922        TOTAL FREE ENERGY PREDICTED BY IDOCK:  -10.16 KCAL/MOL
REMARK 923 INTER-LIGAND FREE ENERGY PREDICTED BY IDOCK:   -9.75 KCAL/MOL
REMARK 924 INTRA-LIGAND FREE ENERGY PREDICTED BY IDOCK:   -0.41 KCAL/MOL
REMARK 927      BINDING AFFINITY PREDICTED BY RF-SCORE:    0.00 PKD
ROOT
HETATM    1  C   UNL     1     -11.388  16.326  70.627  1.00  0.00    -0.321 C  
HETATM    2  C   UNL     1     -11.058  15.735  69.299  1.00  0.00    -0.297 A  
HETATM    3  C   UNL     1     -11.186  14.409  68.860  1.00  0.00    -0.262 A  
HETATM    4  C   UNL     1     -10.571  16.484  68.189  1.00  0.00    -0.329 A  
HETATM    5  N   UNL     1     -10.753  14.429  67.517  1.00  0.00    -0.268 NA 
HETATM    6  N   UNL     1     -10.481  15.705  67.102  1.00  0.00    -0.297 NA 
ENDROOT
BRANCH   3   7
HETATM    7  C   UNL     1     -11.731  13.256  69.626  1.00  0.00    -0.369 A  
HETATM    8  C   UNL     1     -12.425  13.482  70.831  1.00  0.00    -0.448 A  
HETATM    9  C   UNL     1     -12.119  10.865  69.961  1.00  0.00    -0.433 A  
HETATM   10  C   UNL     1     -11.612  11.925  69.193  1.00  0.00    -0.373 A  
HETATM   11  C   UNL     1     -12.994  12.433  71.564  1.00  0.00    -0.385 A  
HETATM   12 CL   UNL     1     -13.486   9.828  72.049  1.00  0.00    -0.501 Cl 
HETATM   13  C   UNL     1     -12.824  11.123  71.133  1.00  0.00    -0.374 A  
ENDBRANCH   3   7
BRANCH   5  14
HETATM   14  C   UNL     1     -10.637  13.404  66.520  1.00  0.00    -0.287 A  
HETATM   15  C   UNL     1      -9.548  12.508  66.651  1.00  0.00    -0.239 A  
HETATM   16  C   UNL     1     -10.114  11.433  64.575  1.00  0.00    -0.287 A  
HETATM   17  C   UNL     1     -11.226  12.264  64.456  1.00  0.00    -0.378 A  
HETATM   18 CL   UNL     1     -13.114  13.882  65.380  1.00  0.00    -0.382 Cl 
HETATM   19  C   UNL     1     -11.523  13.210  65.452  1.00  0.00    -0.304 A  
HETATM   20  C   UNL     1      -9.295  11.525  65.691  1.00  0.00    -0.221 A  
HETATM   21 CL   UNL     1      -9.785  10.254  63.367  1.00  0.00    -0.317 Cl 
ENDBRANCH   5  14
BRANCH   4  22
HETATM   22  C   UNL     1     -10.208  17.930  68.138  1.00  0.00    -0.382 C  
HETATM   23  O   UNL     1     -11.023  18.793  67.817  1.00  0.00    -0.341 OA 
HETATM   24  N   UNL     1      -8.890  18.164  68.500  1.00  0.00    -0.306 N  
HETATM   25  H   UNL     1      -8.318  17.345  68.707  1.00  0.00     0.000 HD 
BRANCH  24  26
HETATM   26  N   UNL     1      -8.262  19.418  68.611  1.00  0.00    -0.365 NA 
HETATM   27  C   UNL     1      -7.125  19.470  69.524  1.00  0.00    -0.227 C  
HETATM   28  C   UNL     1      -5.781  19.272  68.833  1.00  0.00    -0.229 C  
HETATM   29  C   UNL     1      -5.596  20.315  67.739  1.00  0.00    -0.216 C  
HETATM   30  C   UNL     1      -6.739  20.237  66.734  1.00  0.00    -0.273 C  
HETATM   31  C   UNL     1      -8.125  20.227  67.397  1.00  0.00    -0.336 C  
ENDBRANCH  24  26
ENDBRANCH   4  22
TORSDOF 4
ENDMDL
MODEL        6
REMARK 921   NORMALIZED FREE ENERGY PREDICTED BY IDOCK:   -7.40 KCAL/MOL
REMARK 922        TOTAL FREE ENERGY PREDICTED BY IDOCK:  -10.03 KCAL/MOL
REMARK 923 INTER-LIGAND FREE ENERGY PREDICTED BY IDOCK:   -9.15 KCAL/MOL
REMARK 924 INTRA-LIGAND FREE ENERGY PREDICTED BY IDOCK:   -0.88 KCAL/MOL
REMARK 927      BINDING AFFINITY PREDICTED BY RF-SCORE:    0.00 PKD
ROOT
HETATM    1  C   UNL     1     -11.369  15.374  68.171  1.00  0.00    -0.353 C  
HETATM    2  C   UNL     1     -10.888  14.571  67.011  1.00  0.00    -0.297 A  
HETATM    3  C   UNL     1     -10.650  13.192  66.924  1.00  0.00    -0.263 A  
HETATM    4  C   UNL     1     -10.620  15.111  65.720  1.00  0.00    -0.351 A  
HETATM    5  N   UNL     1     -10.235  12.980  65.591  1.00  0.00    -0.286 NA 
HETATM    6  N   UNL     1     -10.319  14.131  64.856  1.00  0.00    -0.428 NA 
ENDROOT
BRANCH   3   7
HETATM    7  C   UNL     1     -10.861  12.172  67.986  1.00  0.00    -0.258 A  
HETATM    8  C   UNL     1      -9.763  11.442  68.485  1.00  0.00    -0.199 A  
HETATM    9  C   UNL     1     -12.277  10.917  69.536  1.00  0.00    -0.331 A  
HETATM   10  C   UNL     1     -12.119  11.906  68.553  1.00  0.00    -0.122 A  
HETATM   11  C   UNL     1      -9.905  10.505  69.514  1.00  0.00    -0.170 A  
HETATM   12 CL   UNL     1     -11.355   9.054  71.264  1.00  0.00    -0.361 Cl 
HETATM   13  C   UNL     1     -11.169  10.233  70.026  1.00  0.00    -0.311 A  
ENDBRANCH   3   7
BRANCH   5  14
HETATM   14  C   UNL     1      -9.843  11.801  64.873  1.00  0.00    -0.223 A  
HETATM   15  C   UNL     1      -8.742  11.076  65.392  1.00  0.00    -0.122 A  
HETATM   16  C   UNL     1      -8.790   9.564  63.522  1.00  0.00    -0.212 A  
HETATM   17  C   UNL     1      -9.910  10.225  63.024  1.00  0.00    -0.086 A  
HETATM   18 CL   UNL     1     -12.059  11.768  63.215  1.00  0.00    -0.491 Cl 
HETATM   19  C   UNL     1     -10.473  11.307  63.724  1.00  0.00    -0.399 A  
HETATM   20  C   UNL     1      -8.227   9.961  64.726  1.00  0.00    -0.151 A  
HETATM   21 CL   UNL     1      -8.134   8.219  62.675  1.00  0.00    -0.169 Cl 
ENDBRANCH   5  14
BRANCH   4  22
HETATM   22  C   UNL     1     -10.664  16.538  65.288  1.00  0.00    -0.254 C  
HETATM   23  O   UNL     1     -11.382  16.916  64.364  1.00  0.00    -1.133 OA 
HETATM   24  N   UNL     1      -9.835  17.352  66.046  1.00  0.00    -0.228 N  
HETATM   25  H   UNL     1      -9.268  16.893  66.759  1.00  0.00     0.000 HD 
BRANCH  24  26
HETATM   26  N   UNL     1      -9.698  18.747  65.929  1.00  0.00    -0.467 NA 
HETATM   27  C   UNL     1     -10.736  19.535  66.588  1.00  0.00    -0.445 C  
HETATM   28  C   UNL     1     -10.356  19.986  67.993  1.00  0.00    -0.501 C  
HETATM   29  C   UNL     1      -9.064  20.791  67.953  1.00  0.00    -0.015 C  
HETATM   30  C   UNL     1      -7.946  19.965  67.328  1.00  0.00    -0.337 C  
HETATM   31  C   UNL     1      -8.349  19.313  65.997  1.00  0.00    -0.182 C  
ENDBRANCH  24  26
ENDBRANCH   4  22
TORSDOF 4
ENDMDL
MODEL        7
REMARK 921   NORMALIZED FREE ENERGY PREDICTED BY IDOCK:   -7.38 KCAL/MOL
REMARK 922        TOTAL FREE ENERGY PREDICTED BY IDOCK:   -9.99 KCAL/MOL
REMARK 923 INTER-LIGAND FREE ENERGY PREDICTED BY IDOCK:   -8.72 KCAL/MOL
REMARK 924 INTRA-LIGAND FREE ENERGY PREDICTED BY IDOCK:   -1.27 KCAL/MOL
REMARK 927      BINDING AFFINITY PREDICTED BY RF-SCORE:    0.00 PKD
ROOT
HETATM    1  C   UNL     1     -12.826  10.773  71.659  1.00  0.00    -0.562 C  
HETATM    2  C   UNL     1     -11.704  10.557  70.700  1.00  0.00    -0.453 A  
HETATM    3  C   UNL     1     -10.894   9.427  70.521  1.00  0.00    -0.277 A  
HETATM    4  C   UNL     1     -11.286  11.514  69.730  1.00  0.00    -0.161 A  
HETATM    5  N   UNL     1     -10.022   9.771  69.466  1.00  0.00    -0.200 NA 
HETATM    6  N   UNL     1     -10.339  10.993  68.937  1.00  0.00    -0.199 NA 
ENDROOT
BRANCH   3   7
HETATM    7  C   UNL     1     -10.989   8.128  71.239  1.00  0.00    -0.281 A  
HETATM    8  C   UNL     1     -10.665   8.060  72.609  1.00  0.00    -0.426 A  
HETATM    9  C   UNL     1     -11.468   5.731  71.333  1.00  0.00    -0.095 A  
HETATM   10  C   UNL     1     -11.418   6.941  70.622  1.00  0.00    -0.383 A  
HETATM   11  C   UNL     1     -10.781   6.871  73.339  1.00  0.00    -0.352 A  
HETATM   12 CL   UNL     1     -11.275   4.231  73.572  1.00  0.00    -0.374 Cl 
HETATM   13  C   UNL     1     -11.168   5.704  72.691  1.00  0.00    -0.300 A  
ENDBRANCH   3   7
BRANCH   5  14
HETATM   14  C   UNL     1      -8.962   9.058  68.813  1.00  0.00    -0.137 A  
HETATM   15  C   UNL     1      -7.695   9.079  69.447  1.00  0.00    -0.083 A  
HETATM   16  C   UNL     1      -6.699   7.883  67.614  1.00  0.00    -0.068 A  
HETATM   17  C   UNL     1      -7.946   7.798  67.000  1.00  0.00    -0.116 A  
HETATM   18 CL   UNL     1     -10.598   7.818  66.957  1.00  0.00    -0.422 Cl 
HETATM   19  C   UNL     1      -9.088   8.333  67.621  1.00  0.00    -0.131 A  
HETATM   20  C   UNL     1      -6.576   8.488  68.857  1.00  0.00    -0.053 A  
HETATM   21 CL   UNL     1      -5.316   7.190  66.861  1.00  0.00    -0.021 Cl 
ENDBRANCH   5  14
BRANCH   4  22
HETATM   22  C   UNL     1     -11.784  12.906  69.531  1.00  0.00    -0.323 C  
HETATM   23  O   UNL     1     -12.152  13.313  68.431  1.00  0.00    -0.333 OA 
HETATM   24  N   UNL     1     -11.791  13.644  70.705  1.00  0.00    -0.519 N  
HETATM   25  H   UNL     1     -11.422  13.186  71.538  1.00  0.00     0.000 HD 
BRANCH  24  26
HETATM   26  N   UNL     1     -12.257  14.962  70.862  1.00  0.00    -0.301 NA 
HETATM   27  C   UNL     1     -13.702  15.100  71.023  1.00  0.00    -0.382 C  
HETATM   28  C   UNL     1     -14.147  15.162  72.479  1.00  0.00    -0.535 C  
HETATM   29  C   UNL     1     -13.449  16.314  73.191  1.00  0.00    -0.265 C  
HETATM   30  C   UNL     1     -11.936  16.158  73.093  1.00  0.00    -0.576 C  
HETATM   31  C   UNL     1     -11.450  15.886  71.662  1.00  0.00    -0.392 C  
ENDBRANCH  24  26
ENDBRANCH   4  22
TORSDOF 4
ENDMDL
MODEL        8
REMARK 921   NORMALIZED FREE ENERGY PREDICTED BY IDOCK:   -7.33 KCAL/MOL
REMARK 922        TOTAL FREE ENERGY PREDICTED BY IDOCK:   -9.93 KCAL/MOL
REMARK 923 INTER-LIGAND FREE ENERGY PREDICTED BY IDOCK:   -9.19 KCAL/MOL
REMARK 924 INTRA-LIGAND FREE ENERGY PREDICTED BY IDOCK:   -0.74 KCAL/MOL
REMARK 927      BINDING AFFINITY PREDICTED BY RF-SCORE:    0.00 PKD
ROOT
HETATM    1  C   UNL     1     -11.489   9.643  71.179  1.00  0.00    -0.456 C  
HETATM    2  C   UNL     1     -11.232  10.389  69.914  1.00  0.00    -0.371 A  
HETATM    3  C   UNL     1     -11.537  11.719  69.590  1.00  0.00    -0.323 A  
HETATM    4  C   UNL     1     -10.557   9.842  68.785  1.00  0.00    -0.219 A  
HETATM    5  N   UNL     1     -11.045  11.894  68.278  1.00  0.00    -0.221 NA 
HETATM    6  N   UNL     1     -10.370  10.782  67.849  1.00  0.00    -0.177 NA 
ENDROOT
BRANCH   3   7
HETATM    7  C   UNL     1     -12.173  12.737  70.469  1.00  0.00    -0.389 A  
HETATM    8  C   UNL     1     -11.855  14.101  70.303  1.00  0.00    -0.373 A  
HETATM    9  C   UNL     1     -13.669  13.405  72.284  1.00  0.00    -0.705 A  
HETATM   10  C   UNL     1     -13.113  12.413  71.460  1.00  0.00    -0.362 A  
HETATM   11  C   UNL     1     -12.460  15.099  71.075  1.00  0.00    -0.419 A  
HETATM   12 CL   UNL     1     -14.073  15.963  73.055  1.00  0.00    -0.433 Cl 
HETATM   13  C   UNL     1     -13.356  14.744  72.078  1.00  0.00    -0.363 A  
ENDBRANCH   3   7
BRANCH   5  14
HETATM   14  C   UNL     1     -11.046  13.015  67.384  1.00  0.00    -0.272 A  
HETATM   15  C   UNL     1     -12.248  13.265  66.677  1.00  0.00    -0.359 A  
HETATM   16  C   UNL     1     -11.212  15.049  65.441  1.00  0.00    -0.356 A  
HETATM   17  C   UNL     1     -10.037  14.861  66.165  1.00  0.00    -0.316 A  
HETATM   18 CL   UNL     1      -8.617  14.025  68.244  1.00  0.00    -0.175 Cl 
HETATM   19  C   UNL     1      -9.968  13.885  67.175  1.00  0.00    -0.239 A  
HETATM   20  C   UNL     1     -12.332  14.279  65.721  1.00  0.00    -0.420 A  
HETATM   21 CL   UNL     1     -11.295  16.272  64.234  1.00  0.00    -0.262 Cl 
ENDBRANCH   5  14
BRANCH   4  22
HETATM   22  C   UNL     1     -10.068   8.446  68.589  1.00  0.00    -0.193 C  
HETATM   23  O   UNL     1      -8.878   8.153  68.690  1.00  0.00    -0.134 OA 
HETATM   24  N   UNL     1     -11.094   7.555  68.304  1.00  0.00    -0.435 N  
HETATM   25  H   UNL     1     -12.031   7.948  68.215  1.00  0.00     0.000 HD 
BRANCH  24  26
HETATM   26  N   UNL     1     -10.970   6.166  68.127  1.00  0.00    -0.326 NA 
HETATM   27  C   UNL     1     -10.635   5.735  66.773  1.00  0.00    -0.306 C  
HETATM   28  C   UNL     1      -9.142   5.524  66.554  1.00  0.00    -0.138 C  
HETATM   29  C   UNL     1      -8.605   4.506  67.552  1.00  0.00    -0.105 C  
HETATM   30  C   UNL     1      -8.885   4.965  68.978  1.00  0.00    -0.117 C  
HETATM   31  C   UNL     1     -10.344   5.389  69.200  1.00  0.00    -0.230 C  
ENDBRANCH  24  26
ENDBRANCH   4  22
TORSDOF 4
ENDMDL
MODEL        9
REMARK 921   NORMALIZED FREE ENERGY PREDICTED BY IDOCK:   -7.31 KCAL/MOL
REMARK 922        TOTAL FREE ENERGY PREDICTED BY IDOCK:   -9.91 KCAL/MOL
REMARK 923 INTER-LIGAND FREE ENERGY PREDICTED BY IDOCK:   -8.60 KCAL/MOL
REMARK 924 INTRA-LIGAND FREE ENERGY PREDICTED BY IDOCK:   -1.31 KCAL/MOL
REMARK 927      BINDING AFFINITY PREDICTED BY RF-SCORE:    0.00 PKD
ROOT
HETATM    1  C   UNL     1     -10.737  11.027  64.899  1.00  0.00    -0.278 C  
HETATM    2  C   UNL     1     -10.740  10.968  66.389  1.00  0.00    -0.286 A  
HETATM    3  C   UNL     1     -10.459   9.886  67.235  1.00  0.00    -0.258 A  
HETATM    4  C   UNL     1     -11.005  12.085  67.233  1.00  0.00    -0.262 A  
HETATM    5  N   UNL     1     -10.587  10.406  68.542  1.00  0.00    -0.196 NA 
HETATM    6  N   UNL     1     -10.819  11.755  68.519  1.00  0.00    -0.212 NA 
ENDROOT
BRANCH   3   7
HETATM    7  C   UNL     1     -10.044   8.515  66.836  1.00  0.00    -0.364 A  
HETATM    8  C   UNL     1     -10.885   7.419  67.120  1.00  0.00    -0.340 A  
HETATM    9  C   UNL     1      -8.483   6.931  65.819  1.00  0.00    -0.150 A  
HETATM   10  C   UNL     1      -8.847   8.245  66.154  1.00  0.00    -0.200 A  
HETATM   11  C   UNL     1     -10.559   6.116  66.725  1.00  0.00    -0.351 A  
HETATM   12 CL   UNL     1      -8.924   4.270  65.636  1.00  0.00    -0.125 Cl 
HETATM   13  C   UNL     1      -9.348   5.874  66.088  1.00  0.00    -0.132 A  
ENDBRANCH   3   7
BRANCH   5  14
HETATM   14  C   UNL     1     -10.435   9.815  69.840  1.00  0.00    -0.261 A  
HETATM   15  C   UNL     1      -9.130   9.401  70.202  1.00  0.00    -0.262 A  
HETATM   16  C   UNL     1      -9.941   8.464  72.263  1.00  0.00    -0.313 A  
HETATM   17  C   UNL     1     -11.223   8.915  71.956  1.00  0.00    -0.422 A  
HETATM   18 CL   UNL     1     -12.980  10.466  70.712  1.00  0.00    -0.450 Cl 
HETATM   19  C   UNL     1     -11.463   9.639  70.775  1.00  0.00    -0.328 A  
HETATM   20  C   UNL     1      -8.884   8.740  71.408  1.00  0.00    -0.292 A  
HETATM   21 CL   UNL     1      -9.655   7.613  73.730  1.00  0.00    -0.331 Cl 
ENDBRANCH   5  14
BRANCH   4  22
HETATM   22  C   UNL     1     -11.412  13.465  66.839  1.00  0.00    -0.342 C  
HETATM   23  O   UNL     1     -12.508  13.700  66.333  1.00  0.00    -0.399 OA 
HETATM   24  N   UNL     1     -10.439  14.412  67.122  1.00  0.00    -0.262 N  
HETATM   25  H   UNL     1      -9.561  14.066  67.510  1.00  0.00     0.000 HD 
BRANCH  24  26
HETATM   26  N   UNL     1     -10.541  15.801  66.927  1.00  0.00    -0.317 NA 
HETATM   27  C   UNL     1     -10.696  16.594  68.143  1.00  0.00    -0.349 C  
HETATM   28  C   UNL     1      -9.379  17.139  68.684  1.00  0.00    -0.269 C  
HETATM   29  C   UNL     1      -8.685  17.980  67.621  1.00  0.00    -0.247 C  
HETATM   30  C   UNL     1      -8.452  17.154  66.362  1.00  0.00    -0.307 C  
HETATM   31  C   UNL     1      -9.710  16.412  65.886  1.00  0.00    -0.294 C  
ENDBRANCH  24  26
ENDBRANCH   4  22
TORSDOF 4
ENDMDL
MODEL       10
REMARK 921   NORMALIZED FREE ENERGY PREDICTED BY IDOCK:   -7.25 KCAL/MOL
REMARK 922        TOTAL FREE ENERGY PREDICTED BY IDOCK:   -9.84 KCAL/MOL
REMARK 923 INTER-LIGAND FREE ENERGY PREDICTED BY IDOCK:   -8.51 KCAL/MOL
REMARK 924 INTRA-LIGAND FREE ENERGY PREDICTED BY IDOCK:   -1.34 KCAL/MOL
REMARK 927      BINDING AFFINITY PREDICTED BY RF-SCORE:    0.00 PKD
ROOT
HETATM    1  C   UNL     1     -11.851  12.077  69.943  1.00  0.00    -0.405 C  
HETATM    2  C   UNL     1     -11.328  11.102  68.943  1.00  0.00    -0.344 A  
HETATM    3  C   UNL     1     -10.842   9.802  69.140  1.00  0.00    -0.207 A  
HETATM    4  C   UNL     1     -11.278  11.346  67.540  1.00  0.00    -0.292 A  
HETATM    5  N   UNL     1     -10.510   9.340  67.848  1.00  0.00    -0.231 NA 
HETATM    6  N   UNL     1     -10.872  10.247  66.888  1.00  0.00    -0.185 NA 
ENDROOT
BRANCH   3   7
HETATM    7  C   UNL     1     -10.767   9.053  70.423  1.00  0.00    -0.267 A  
HETATM    8  C   UNL     1      -9.534   8.945  71.098  1.00  0.00    -0.335 A  
HETATM    9  C   UNL     1     -11.762   7.737  72.228  1.00  0.00    -0.390 A  
HETATM   10  C   UNL     1     -11.884   8.456  71.028  1.00  0.00    -0.278 A  
HETATM   11  C   UNL     1      -9.422   8.289  72.330  1.00  0.00    -0.357 A  
HETATM   12 CL   UNL     1     -10.397   6.832  74.377  1.00  0.00    -0.275 Cl 
HETATM   13  C   UNL     1     -10.537   7.672  72.884  1.00  0.00    -0.354 A  
ENDBRANCH   3   7
BRANCH   5  14
HETATM   14  C   UNL     1      -9.965   8.102  67.371  1.00  0.00    -0.209 A  
HETATM   15  C   UNL     1     -10.876   7.032  67.191  1.00  0.00    -0.427 A  
HETATM   16  C   UNL     1      -9.085   5.533  66.621  1.00  0.00    -0.126 A  
HETATM   17  C   UNL     1      -8.177   6.583  66.733  1.00  0.00    -0.110 A  
HETATM   18 CL   UNL     1      -7.470   9.140  66.771  1.00  0.00    -0.086 Cl 
HETATM   19  C   UNL     1      -8.619   7.880  67.052  1.00  0.00    -0.128 A  
HETATM   20  C   UNL     1     -10.440   5.762  66.810  1.00  0.00    -0.350 A  
HETATM   21 CL   UNL     1      -8.535   3.960  66.193  1.00  0.00    -0.109 Cl 
ENDBRANCH   5  14
BRANCH   4  22
HETATM   22  C   UNL     1     -11.627  12.597  66.806  1.00  0.00    -0.374 C  
HETATM   23  O   UNL     1     -12.493  12.618  65.933  1.00  0.00    -0.584 OA 
HETATM   24  N   UNL     1     -10.888  13.691  67.232  1.00  0.00    -0.282 N  
HETATM   25  H   UNL     1     -10.177  13.516  67.941  1.00  0.00     0.000 HD 
BRANCH  24  26
HETATM   26  N   UNL     1     -11.022  15.017  66.783  1.00  0.00    -0.320 NA 
HETATM   27  C   UNL     1     -11.196  16.018  67.831  1.00  0.00    -0.276 C  
HETATM   28  C   UNL     1      -9.892  16.684  68.257  1.00  0.00    -0.253 C  
HETATM   29  C   UNL     1      -9.217  17.328  67.053  1.00  0.00    -0.252 C  
HETATM   30  C   UNL     1      -8.966  16.288  65.968  1.00  0.00    -0.325 C  
HETATM   31  C   UNL     1     -10.206  15.443  65.644  1.00  0.00    -0.376 C  
ENDBRANCH  24  26
ENDBRANCH   4  22
TORSDOF 4
ENDMDL
MODEL       11
REMARK 921   NORMALIZED FREE ENERGY PREDICTED BY IDOCK:   -7.25 KCAL/MOL
REMARK 922        TOTAL FREE ENERGY PREDICTED BY IDOCK:   -9.84 KCAL/MOL
REMARK 923 INTER-LIGAND FREE ENERGY PREDICTED BY IDOCK:   -8.53 KCAL/MOL
REMARK 924 INTRA-LIGAND FREE ENERGY PREDICTED BY IDOCK:   -1.31 KCAL/MOL
REMARK 927      BINDING AFFINITY PREDICTED BY RF-SCORE:    0.00 PKD
ROOT
HETATM    1  C   UNL     1     -12.760  10.804  71.357  1.00  0.00    -0.544 C  
HETATM    2  C   UNL     1     -11.635  10.509  70.424  1.00  0.00    -0.430 A  
HETATM    3  C   UNL     1     -10.803   9.382  70.365  1.00  0.00    -0.269 A  
HETATM    4  C   UNL     1     -11.237  11.363  69.355  1.00  0.00    -0.268 A  
HETATM    5  N   UNL     1      -9.938   9.627  69.277  1.00  0.00    -0.180 NA 
HETATM    6  N   UNL     1     -10.280  10.778  68.620  1.00  0.00    -0.177 NA 
ENDROOT
BRANCH   3   7
HETATM    7  C   UNL     1     -10.871   8.166  71.220  1.00  0.00    -0.278 A  
HETATM    8  C   UNL     1     -11.322   6.949  70.670  1.00  0.00    -0.366 A  
HETATM    9  C   UNL     1     -10.585   6.990  73.345  1.00  0.00    -0.399 A  
HETATM   10  C   UNL     1     -10.479   8.155  72.568  1.00  0.00    -0.409 A  
HETATM   11  C   UNL     1     -11.362   5.769  71.422  1.00  0.00    -0.175 A  
HETATM   12 CL   UNL     1     -11.092   4.360  73.705  1.00  0.00    -0.366 Cl 
HETATM   13  C   UNL     1     -11.007   5.798  72.766  1.00  0.00    -0.272 A  
ENDBRANCH   3   7
BRANCH   5  14
HETATM   14  C   UNL     1      -8.864   8.869  68.702  1.00  0.00    -0.137 A  
HETATM   15  C   UNL     1      -7.578   9.059  69.264  1.00  0.00    -0.079 A  
HETATM   16  C   UNL     1      -6.584   7.625  67.610  1.00  0.00    -0.062 A  
HETATM   17  C   UNL     1      -7.847   7.375  67.077  1.00  0.00    -0.116 A  
HETATM   18 CL   UNL     1     -10.496   7.254  67.155  1.00  0.00    -0.363 Cl 
HETATM   19  C   UNL     1      -8.993   7.949  67.653  1.00  0.00    -0.131 A  
HETATM   20  C   UNL     1      -6.450   8.435  68.728  1.00  0.00    -0.053 A  
HETATM   21 CL   UNL     1      -5.194   6.886  66.917  1.00  0.00    -0.016 Cl 
ENDBRANCH   5  14
BRANCH   4  22
HETATM   22  C   UNL     1     -11.763  12.715  69.008  1.00  0.00    -0.318 C  
HETATM   23  O   UNL     1     -12.132  13.510  69.870  1.00  0.00    -0.329 OA 
HETATM   24  N   UNL     1     -11.764  12.954  67.641  1.00  0.00    -0.360 N  
HETATM   25  H   UNL     1     -11.463  12.187  67.041  1.00  0.00     0.000 HD 
BRANCH  24  26
HETATM   26  N   UNL     1     -12.141  14.148  67.001  1.00  0.00    -0.438 NA 
HETATM   27  C   UNL     1     -11.224  15.270  67.180  1.00  0.00    -0.291 C  
HETATM   28  C   UNL     1     -10.214  15.414  66.047  1.00  0.00    -0.343 C  
HETATM   29  C   UNL     1     -10.939  15.564  64.716  1.00  0.00    -0.416 C  
HETATM   30  C   UNL     1     -11.856  14.371  64.475  1.00  0.00    -0.463 C  
HETATM   31  C   UNL     1     -12.759  14.053  65.676  1.00  0.00    -0.481 C  
ENDBRANCH  24  26
ENDBRANCH   4  22
TORSDOF 4
ENDMDL
MODEL       12
REMARK 921   NORMALIZED FREE ENERGY PREDICTED BY IDOCK:   -7.14 KCAL/MOL
REMARK 922        TOTAL FREE ENERGY PREDICTED BY IDOCK:   -9.70 KCAL/MOL
REMARK 923 INTER-LIGAND FREE ENERGY PREDICTED BY IDOCK:   -8.54 KCAL/MOL
REMARK 924 INTRA-LIGAND FREE ENERGY PREDICTED BY IDOCK:   -1.17 KCAL/MOL
REMARK 927      BINDING AFFINITY PREDICTED BY RF-SCORE:    0.00 PKD
ROOT
HETATM    1  C   UNL     1     -12.029  13.462  71.156  1.00  0.00     0.093 C  
HETATM    2  C   UNL     1     -11.831  12.663  69.913  1.00  0.00    -0.364 A  
HETATM    3  C   UNL     1     -11.390  13.081  68.649  1.00  0.00    -0.291 A  
HETATM    4  C   UNL     1     -12.033  11.255  69.826  1.00  0.00    -0.360 A  
HETATM    5  N   UNL     1     -11.368  11.906  67.867  1.00  0.00    -0.268 NA 
HETATM    6  N   UNL     1     -11.662  10.802  68.620  1.00  0.00    -0.395 NA 
ENDROOT
BRANCH   3   7
HETATM    7  C   UNL     1     -10.969  14.451  68.249  1.00  0.00    -0.259 A  
HETATM    8  C   UNL     1     -11.887  15.517  68.332  1.00  0.00    -0.241 A  
HETATM    9  C   UNL     1      -9.324  16.058  67.417  1.00  0.00    -0.220 A  
HETATM   10  C   UNL     1      -9.671  14.755  67.809  1.00  0.00    -0.213 A  
HETATM   11  C   UNL     1     -11.526  16.831  68.010  1.00  0.00     0.166 A  
HETATM   12 CL   UNL     1      -9.807  18.698  67.102  1.00  0.00    -0.319 Cl 
HETATM   13  C   UNL     1     -10.245  17.093  67.536  1.00  0.00    -0.323 A  
ENDBRANCH   3   7
BRANCH   5  14
HETATM   14  C   UNL     1     -11.017  11.659  66.498  1.00  0.00    -0.299 A  
HETATM   15  C   UNL     1     -10.234  10.508  66.238  1.00  0.00    -0.296 A  
HETATM   16  C   UNL     1     -10.061  11.084  63.910  1.00  0.00    -0.356 A  
HETATM   17  C   UNL     1     -10.879  12.190  64.130  1.00  0.00    -0.410 A  
HETATM   18 CL   UNL     1     -12.698  13.595  65.454  1.00  0.00    -0.528 Cl 
HETATM   19  C   UNL     1     -11.405  12.449  65.408  1.00  0.00    -0.337 A  
HETATM   20  C   UNL     1      -9.768  10.218  64.954  1.00  0.00    -0.385 A  
HETATM   21 CL   UNL     1      -9.455  10.758  62.334  1.00  0.00    -0.256 Cl 
ENDBRANCH   5  14
BRANCH   4  22
HETATM   22  C   UNL     1     -12.553  10.330  70.875  1.00  0.00    -0.371 C  
HETATM   23  O   UNL     1     -13.523  10.619  71.573  1.00  0.00    -0.276 OA 
HETATM   24  N   UNL     1     -11.837   9.144  70.945  1.00  0.00    -0.335 N  
HETATM   25  H   UNL     1     -11.030   9.058  70.327  1.00  0.00     0.000 HD 
BRANCH  24  26
HETATM   26  N   UNL     1     -12.112   8.049  71.784  1.00  0.00    -0.291 NA 
HETATM   27  C   UNL     1     -12.340   6.780  71.101  1.00  0.00    -0.333 C  
HETATM   28  C   UNL     1     -11.090   5.913  70.996  1.00  0.00    -0.315 C  
HETATM   29  C   UNL     1     -10.524   5.643  72.384  1.00  0.00    -0.255 C  
HETATM   30  C   UNL     1     -10.215   6.956  73.095  1.00  0.00    -0.264 C  
HETATM   31  C   UNL     1     -11.382   7.954  73.051  1.00  0.00    -0.236 C  
ENDBRANCH  24  26
ENDBRANCH   4  22
TORSDOF 4
ENDMDL
MODEL       13
REMARK 921   NORMALIZED FREE ENERGY PREDICTED BY IDOCK:   -7.13 KCAL/MOL
REMARK 922        TOTAL FREE ENERGY PREDICTED BY IDOCK:   -9.69 KCAL/MOL
REMARK 923 INTER-LIGAND FREE ENERGY PREDICTED BY IDOCK:   -9.01 KCAL/MOL
REMARK 924 INTRA-LIGAND FREE ENERGY PREDICTED BY IDOCK:   -0.68 KCAL/MOL
REMARK 927      BINDING AFFINITY PREDICTED BY RF-SCORE:    0.00 PKD
ROOT
HETATM    1  C   UNL     1     -11.750  15.745  68.363  1.00  0.00    -0.279 C  
HETATM    2  C   UNL     1     -10.960  14.765  67.563  1.00  0.00    -0.304 A  
HETATM    3  C   UNL     1     -10.783  13.389  67.767  1.00  0.00    -0.248 A  
HETATM    4  C   UNL     1     -10.254  15.092  66.369  1.00  0.00    -0.277 A  
HETATM    5  N   UNL     1      -9.967  12.967  66.696  1.00  0.00    -0.245 NA 
HETATM    6  N   UNL     1      -9.741  13.986  65.811  1.00  0.00    -0.243 NA 
ENDROOT
BRANCH   3   7
HETATM    7  C   UNL     1     -11.388  12.553  68.839  1.00  0.00    -0.346 A  
HETATM    8  C   UNL     1     -11.958  13.171  69.970  1.00  0.00    -0.391 A  
HETATM    9  C   UNL     1     -12.006  10.400  69.821  1.00  0.00    -0.242 A  
HETATM   10  C   UNL     1     -11.448  11.152  68.774  1.00  0.00    -0.366 A  
HETATM   11  C   UNL     1     -12.578  12.429  70.983  1.00  0.00    -0.349 A  
HETATM   12 CL   UNL     1     -13.310  10.123  72.171  1.00  0.00    -0.510 Cl 
HETATM   13  C   UNL     1     -12.585  11.041  70.911  1.00  0.00    -0.391 A  
ENDBRANCH   3   7
BRANCH   5  14
HETATM   14  C   UNL     1      -9.427  11.688  66.335  1.00  0.00    -0.217 A  
HETATM   15  C   UNL     1     -10.012  11.041  65.219  1.00  0.00    -0.320 A  
HETATM   16  C   UNL     1      -8.647   9.092  65.565  1.00  0.00    -0.168 A  
HETATM   17  C   UNL     1      -8.015   9.731  66.629  1.00  0.00    -0.112 A  
HETATM   18 CL   UNL     1      -7.248  11.845  68.035  1.00  0.00    -0.083 Cl 
HETATM   19  C   UNL     1      -8.361  11.047  66.981  1.00  0.00    -0.137 A  
HETATM   20  C   UNL     1      -9.619   9.758  64.832  1.00  0.00    -0.316 A  
HETATM   21 CL   UNL     1      -8.187   7.495  65.121  1.00  0.00    -0.135 Cl 
ENDBRANCH   5  14
BRANCH   4  22
HETATM   22  C   UNL     1     -10.075  16.432  65.738  1.00  0.00    -0.327 C  
HETATM   23  O   UNL     1     -10.851  16.858  64.885  1.00  0.00    -0.715 OA 
HETATM   24  N   UNL     1      -8.972  17.113  66.233  1.00  0.00    -0.250 N  
HETATM   25  H   UNL     1      -8.396  16.619  66.915  1.00  0.00     0.000 HD 
BRANCH  24  26
HETATM   26  N   UNL     1      -8.570  18.416  65.889  1.00  0.00    -0.473 NA 
HETATM   27  C   UNL     1      -9.393  19.490  66.436  1.00  0.00    -0.379 C  
HETATM   28  C   UNL     1      -8.852  20.065  67.740  1.00  0.00    -0.379 C  
HETATM   29  C   UNL     1      -7.431  20.574  67.538  1.00  0.00    -0.354 C  
HETATM   30  C   UNL     1      -6.535  19.451  67.028  1.00  0.00    -0.201 C  
HETATM   31  C   UNL     1      -7.134  18.698  65.831  1.00  0.00    -0.255 C  
ENDBRANCH  24  26
ENDBRANCH   4  22
TORSDOF 4
ENDMDL
MODEL       14
REMARK 921   NORMALIZED FREE ENERGY PREDICTED BY IDOCK:   -7.09 KCAL/MOL
REMARK 922        TOTAL FREE ENERGY PREDICTED BY IDOCK:   -9.64 KCAL/MOL
REMARK 923 INTER-LIGAND FREE ENERGY PREDICTED BY IDOCK:   -8.39 KCAL/MOL
REMARK 924 INTRA-LIGAND FREE ENERGY PREDICTED BY IDOCK:   -1.25 KCAL/MOL
REMARK 927      BINDING AFFINITY PREDICTED BY RF-SCORE:    0.00 PKD
ROOT
HETATM    1  C   UNL     1     -12.796  10.479  71.703  1.00  0.00    -0.581 C  
HETATM    2  C   UNL     1     -11.639  10.251  70.790  1.00  0.00    -0.446 A  
HETATM    3  C   UNL     1     -10.786   9.142  70.697  1.00  0.00    -0.264 A  
HETATM    4  C   UNL     1     -11.223  11.168  69.782  1.00  0.00    -0.245 A  
HETATM    5  N   UNL     1      -9.894   9.459  69.650  1.00  0.00    -0.182 NA 
HETATM    6  N   UNL     1     -10.236  10.639  69.046  1.00  0.00    -0.206 NA 
ENDROOT
BRANCH   3   7
HETATM    7  C   UNL     1     -10.860   7.881  71.482  1.00  0.00    -0.268 A  
HETATM    8  C   UNL     1     -11.288   6.692  70.858  1.00  0.00    -0.377 A  
HETATM    9  C   UNL     1     -10.603   6.593  73.545  1.00  0.00    -0.334 A  
HETATM   10  C   UNL     1     -10.494   7.799  72.835  1.00  0.00    -0.412 A  
HETATM   11  C   UNL     1     -11.331   5.472  71.543  1.00  0.00    -0.020 A  
HETATM   12 CL   UNL     1     -11.092   3.943  73.750  1.00  0.00    -0.313 Cl 
HETATM   13  C   UNL     1     -11.003   5.431  72.893  1.00  0.00    -0.287 A  
ENDBRANCH   3   7
BRANCH   5  14
HETATM   14  C   UNL     1      -8.790   8.751  69.068  1.00  0.00    -0.137 A  
HETATM   15  C   UNL     1      -8.826   8.555  67.666  1.00  0.00    -0.138 A  
HETATM   16  C   UNL     1      -6.822   7.228  67.746  1.00  0.00    -0.070 A  
HETATM   17  C   UNL     1      -6.733   7.456  69.117  1.00  0.00    -0.052 A  
HETATM   18 CL   UNL     1      -7.237   8.781  71.360  1.00  0.00    -0.099 Cl 
HETATM   19  C   UNL     1      -7.681   8.262  69.771  1.00  0.00    -0.098 A  
HETATM   20  C   UNL     1      -7.845   7.808  67.010  1.00  0.00    -0.112 A  
HETATM   21 CL   UNL     1      -5.635   6.271  66.952  1.00  0.00    -0.012 Cl 
ENDBRANCH   5  14
BRANCH   4  22
HETATM   22  C   UNL     1     -11.761  12.529  69.492  1.00  0.00    -0.309 C  
HETATM   23  O   UNL     1     -12.017  12.897  68.347  1.00  0.00    -0.326 OA 
HETATM   24  N   UNL     1     -11.943  13.288  70.639  1.00  0.00    -0.532 N  
HETATM   25  H   UNL     1     -11.653  12.864  71.520  1.00  0.00     0.000 HD 
BRANCH  24  26
HETATM   26  N   UNL     1     -12.488  14.582  70.708  1.00  0.00    -0.328 NA 
HETATM   27  C   UNL     1     -13.896  14.650  71.087  1.00  0.00    -0.275 C  
HETATM   28  C   UNL     1     -14.114  14.878  72.578  1.00  0.00    -0.478 C  
HETATM   29  C   UNL     1     -13.413  16.156  73.019  1.00  0.00    -0.415 C  
HETATM   30  C   UNL     1     -11.926  16.084  72.693  1.00  0.00    -0.646 C  
HETATM   31  C   UNL     1     -11.646  15.654  71.246  1.00  0.00    -0.428 C  
ENDBRANCH  24  26
ENDBRANCH   4  22
TORSDOF 4
ENDMDL
MODEL       15
REMARK 921   NORMALIZED FREE ENERGY PREDICTED BY IDOCK:   -7.09 KCAL/MOL
REMARK 922        TOTAL FREE ENERGY PREDICTED BY IDOCK:   -9.64 KCAL/MOL
REMARK 923 INTER-LIGAND FREE ENERGY PREDICTED BY IDOCK:   -9.37 KCAL/MOL
REMARK 924 INTRA-LIGAND FREE ENERGY PREDICTED BY IDOCK:   -0.27 KCAL/MOL
REMARK 927      BINDING AFFINITY PREDICTED BY RF-SCORE:    0.00 PKD
ROOT
HETATM    1  C   UNL     1      -9.639   9.819  66.842  1.00  0.00    -0.228 C  
HETATM    2  C   UNL     1     -10.326  10.359  68.050  1.00  0.00    -0.212 A  
HETATM    3  C   UNL     1     -10.896  11.624  68.256  1.00  0.00    -0.219 A  
HETATM    4  C   UNL     1     -10.558   9.611  69.240  1.00  0.00    -0.219 A  
HETATM    5  N   UNL     1     -11.425  11.573  69.564  1.00  0.00    -0.290 NA 
HETATM    6  N   UNL     1     -11.299  10.321  70.103  1.00  0.00    -0.294 NA 
ENDROOT
BRANCH   3   7
HETATM    7  C   UNL     1     -10.986  12.742  67.279  1.00  0.00    -0.294 A  
HETATM    8  C   UNL     1     -12.154  12.905  66.508  1.00  0.00    -0.375 A  
HETATM    9  C   UNL     1     -10.076  14.706  66.142  1.00  0.00    -0.316 A  
HETATM   10  C   UNL     1      -9.959  13.682  67.094  1.00  0.00    -0.247 A  
HETATM   11  C   UNL     1     -12.303  13.966  65.607  1.00  0.00    -0.511 A  
HETATM   12 CL   UNL     1     -11.415  16.140  64.283  1.00  0.00    -0.317 Cl 
HETATM   13  C   UNL     1     -11.253  14.857  65.416  1.00  0.00    -0.359 A  
ENDBRANCH   3   7
BRANCH   5  14
HETATM   14  C   UNL     1     -12.124  12.536  70.365  1.00  0.00    -0.297 A  
HETATM   15  C   UNL     1     -12.037  13.889  69.956  1.00  0.00    -0.411 A  
HETATM   16  C   UNL     1     -13.265  14.610  71.894  1.00  0.00    -0.349 A  
HETATM   17  C   UNL     1     -13.416  13.281  72.285  1.00  0.00    -0.679 A  
HETATM   18 CL   UNL     1     -13.487  10.661  71.878  1.00  0.00    -0.415 Cl 
HETATM   19  C   UNL     1     -12.897  12.240  71.496  1.00  0.00    -0.280 A  
HETATM   20  C   UNL     1     -12.611  14.916  70.709  1.00  0.00    -0.414 A  
HETATM   21 CL   UNL     1     -13.938  15.872  72.850  1.00  0.00    -0.591 Cl 
ENDBRANCH   5  14
BRANCH   4  22
HETATM   22  C   UNL     1     -10.106   8.227  69.564  1.00  0.00    -0.197 C  
HETATM   23  O   UNL     1      -9.774   7.430  68.688  1.00  0.00    -0.149 OA 
HETATM   24  N   UNL     1     -10.095   7.973  70.928  1.00  0.00    -0.190 N  
HETATM   25  H   UNL     1     -10.433   8.718  71.536  1.00  0.00     0.000 HD 
BRANCH  24  26
HETATM   26  N   UNL     1      -9.665   6.790  71.555  1.00  0.00    -0.164 NA 
HETATM   27  C   UNL     1      -8.871   6.976  72.765  1.00  0.00    -0.122 C  
HETATM   28  C   UNL     1      -9.694   6.919  74.047  1.00  0.00    -0.326 C  
HETATM   29  C   UNL     1     -10.437   5.592  74.133  1.00  0.00    -0.297 C  
HETATM   30  C   UNL     1     -11.325   5.403  72.908  1.00  0.00    -0.365 C  
HETATM   31  C   UNL     1     -10.589   5.653  71.584  1.00  0.00    -0.241 C  
ENDBRANCH  24  26
ENDBRANCH   4  22
TORSDOF 4
ENDMDL
MODEL       16
REMARK 921   NORMALIZED FREE ENERGY PREDICTED BY IDOCK:   -7.08 KCAL/MOL
REMARK 922        TOTAL FREE ENERGY PREDICTED BY IDOCK:   -9.62 KCAL/MOL
REMARK 923 INTER-LIGAND FREE ENERGY PREDICTED BY IDOCK:   -9.23 KCAL/MOL
REMARK 924 INTRA-LIGAND FREE ENERGY PREDICTED BY IDOCK:   -0.40 KCAL/MOL
REMARK 927      BINDING AFFINITY PREDICTED BY RF-SCORE:    0.00 PKD
ROOT
HETATM    1  C   UNL     1      -9.688   9.837  66.797  1.00  0.00    -0.248 C  
HETATM    2  C   UNL     1     -10.365  10.374  68.012  1.00  0.00    -0.212 A  
HETATM    3  C   UNL     1     -10.963  11.626  68.216  1.00  0.00    -0.226 A  
HETATM    4  C   UNL     1     -10.557   9.633  69.214  1.00  0.00    -0.219 A  
HETATM    5  N   UNL     1     -11.465  11.577  69.534  1.00  0.00    -0.290 NA 
HETATM    6  N   UNL     1     -11.298  10.334  70.083  1.00  0.00    -0.294 NA 
ENDROOT
BRANCH   3   7
HETATM    7  C   UNL     1     -11.098  12.731  67.228  1.00  0.00    -0.314 A  
HETATM    8  C   UNL     1     -10.053  13.664  67.076  1.00  0.00    -0.248 A  
HETATM    9  C   UNL     1     -12.319  13.958  65.502  1.00  0.00    -0.506 A  
HETATM   10  C   UNL     1     -12.223  12.885  66.402  1.00  0.00    -0.301 A  
HETATM   11  C   UNL     1     -10.115  14.695  66.129  1.00  0.00    -0.316 A  
HETATM   12 CL   UNL     1     -11.357  16.134  64.219  1.00  0.00    -0.306 Cl 
HETATM   13  C   UNL     1     -11.259  14.847  65.355  1.00  0.00    -0.359 A  
ENDBRANCH   3   7
BRANCH   5  14
HETATM   14  C   UNL     1     -12.173  12.531  70.338  1.00  0.00    -0.286 A  
HETATM   15  C   UNL     1     -12.091  13.887  69.938  1.00  0.00    -0.406 A  
HETATM   16  C   UNL     1     -13.331  14.589  71.875  1.00  0.00    -0.365 A  
HETATM   17  C   UNL     1     -13.477  13.258  72.257  1.00  0.00    -0.679 A  
HETATM   18 CL   UNL     1     -13.533  10.639  71.832  1.00  0.00    -0.415 Cl 
HETATM   19  C   UNL     1     -12.949  12.224  71.463  1.00  0.00    -0.289 A  
HETATM   20  C   UNL     1     -12.674  14.906  70.695  1.00  0.00    -0.422 A  
HETATM   21 CL   UNL     1     -14.014  15.842  72.836  1.00  0.00    -0.596 Cl 
ENDBRANCH   5  14
BRANCH   4  22
HETATM   22  C   UNL     1     -10.065   8.264  69.544  1.00  0.00    -0.197 C  
HETATM   23  O   UNL     1      -8.907   8.058  69.901  1.00  0.00    -0.141 OA 
HETATM   24  N   UNL     1     -11.050   7.296  69.414  1.00  0.00    -0.439 N  
HETATM   25  H   UNL     1     -11.958   7.609  69.072  1.00  0.00     0.000 HD 
BRANCH  24  26
HETATM   26  N   UNL     1     -10.921   5.927  69.708  1.00  0.00    -0.378 NA 
HETATM   27  C   UNL     1     -10.157   5.148  68.738  1.00  0.00    -0.161 C  
HETATM   28  C   UNL     1      -8.688   4.988  69.110  1.00  0.00    -0.106 C  
HETATM   29  C   UNL     1      -8.563   4.342  70.484  1.00  0.00    -0.110 C  
HETATM   30  C   UNL     1      -9.300   5.173  71.528  1.00  0.00    -0.187 C  
HETATM   31  C   UNL     1     -10.730   5.539  71.108  1.00  0.00    -0.210 C  
ENDBRANCH  24  26
ENDBRANCH   4  22
TORSDOF 4
ENDMDL
MODEL       17
REMARK 921   NORMALIZED FREE ENERGY PREDICTED BY IDOCK:   -7.07 KCAL/MOL
REMARK 922        TOTAL FREE ENERGY PREDICTED BY IDOCK:   -9.62 KCAL/MOL
REMARK 923 INTER-LIGAND FREE ENERGY PREDICTED BY IDOCK:   -8.62 KCAL/MOL
REMARK 924 INTRA-LIGAND FREE ENERGY PREDICTED BY IDOCK:   -1.00 KCAL/MOL
REMARK 927      BINDING AFFINITY PREDICTED BY RF-SCORE:    0.00 PKD
ROOT
HETATM    1  C   UNL     1     -10.226  17.342  65.902  1.00  0.00    -0.266 C  
HETATM    2  C   UNL     1     -10.502  16.557  67.139  1.00  0.00    -0.300 A  
HETATM    3  C   UNL     1     -11.019  15.260  67.270  1.00  0.00    -0.327 A  
HETATM    4  C   UNL     1     -10.226  17.018  68.458  1.00  0.00    -0.324 A  
HETATM    5  N   UNL     1     -11.042  15.019  68.661  1.00  0.00    -0.252 NA 
HETATM    6  N   UNL     1     -10.468  16.051  69.353  1.00  0.00    -0.250 NA 
ENDROOT
BRANCH   3   7
HETATM    7  C   UNL     1     -11.390  14.323  66.176  1.00  0.00    -0.342 A  
HETATM    8  C   UNL     1     -12.749  14.074  65.898  1.00  0.00    -0.436 A  
HETATM    9  C   UNL     1     -10.835  12.779  64.362  1.00  0.00    -0.395 A  
HETATM   10  C   UNL     1     -10.441  13.676  65.368  1.00  0.00    -0.333 A  
HETATM   11  C   UNL     1     -13.147  13.235  64.850  1.00  0.00    -0.030 A  
HETATM   12 CL   UNL     1     -12.668  11.514  62.832  1.00  0.00     0.116 Cl 
HETATM   13  C   UNL     1     -12.185  12.576  64.094  1.00  0.00    -0.467 A  
ENDBRANCH   3   7
BRANCH   5  14
HETATM   14  C   UNL     1     -11.461  13.891  69.443  1.00  0.00    -0.280 A  
HETATM   15  C   UNL     1     -10.928  12.630  69.079  1.00  0.00    -0.240 A  
HETATM   16  C   UNL     1     -12.287  11.521  70.723  1.00  0.00    -0.375 A  
HETATM   17  C   UNL     1     -12.781  12.756  71.139  1.00  0.00    -0.355 A  
HETATM   18 CL   UNL     1     -12.711  15.395  71.402  1.00  0.00    -0.442 Cl 
HETATM   19  C   UNL     1     -12.329  13.945  70.541  1.00  0.00    -0.369 A  
HETATM   20  C   UNL     1     -11.331  11.457  69.720  1.00  0.00    -0.332 A  
HETATM   21 CL   UNL     1     -12.822  10.077  71.488  1.00  0.00    -0.494 Cl 
ENDBRANCH   5  14
BRANCH   4  22
HETATM   22  C   UNL     1      -9.717  18.356  68.881  1.00  0.00    -0.291 C  
HETATM   23  O   UNL     1     -10.405  19.135  69.538  1.00  0.00     0.008 OA 
HETATM   24  N   UNL     1      -8.414  18.587  68.467  1.00  0.00    -0.329 N  
HETATM   25  H   UNL     1      -7.978  17.864  67.896  1.00  0.00     0.000 HD 
BRANCH  24  26
HETATM   26  N   UNL     1      -7.633  19.721  68.756  1.00  0.00    -0.307 NA 
HETATM   27  C   UNL     1      -6.326  19.448  69.345  1.00  0.00    -0.314 C  
HETATM   28  C   UNL     1      -5.199  19.390  68.320  1.00  0.00    -0.187 C  
HETATM   29  C   UNL     1      -5.135  20.695  67.538  1.00  0.00    -0.215 C  
HETATM   30  C   UNL     1      -6.472  20.971  66.859  1.00  0.00    -0.393 C  
HETATM   31  C   UNL     1      -7.670  20.840  67.811  1.00  0.00    -0.096 C  
ENDBRANCH  24  26
ENDBRANCH   4  22
TORSDOF 4
ENDMDL
MODEL       18
REMARK 921   NORMALIZED FREE ENERGY PREDICTED BY IDOCK:   -7.06 KCAL/MOL
REMARK 922        TOTAL FREE ENERGY PREDICTED BY IDOCK:   -9.61 KCAL/MOL
REMARK 923 INTER-LIGAND FREE ENERGY PREDICTED BY IDOCK:   -9.04 KCAL/MOL
REMARK 924 INTRA-LIGAND FREE ENERGY PREDICTED BY IDOCK:   -0.57 KCAL/MOL
REMARK 927      BINDING AFFINITY PREDICTED BY RF-SCORE:    0.00 PKD
ROOT
HETATM    1  C   UNL     1      -8.538  16.686  65.831  1.00  0.00    -0.072 C  
HETATM    2  C   UNL     1      -9.240  16.335  67.099  1.00  0.00    -0.226 A  
HETATM    3  C   UNL     1     -10.268  15.406  67.317  1.00  0.00    -0.254 A  
HETATM    4  C   UNL     1      -8.925  16.897  68.370  1.00  0.00    -0.244 A  
HETATM    5  N   UNL     1     -10.527  15.472  68.703  1.00  0.00    -0.231 NA 
HETATM    6  N   UNL     1      -9.641  16.302  69.335  1.00  0.00    -0.216 NA 
ENDROOT
BRANCH   3   7
HETATM    7  C   UNL     1     -10.890  14.500  66.314  1.00  0.00    -0.317 A  
HETATM    8  C   UNL     1     -10.074  13.794  65.407  1.00  0.00    -0.307 A  
HETATM    9  C   UNL     1     -12.822  13.437  65.256  1.00  0.00    -0.398 A  
HETATM   10  C   UNL     1     -12.275  14.282  66.235  1.00  0.00    -0.433 A  
HETATM   11  C   UNL     1     -10.610  12.897  64.475  1.00  0.00    -0.403 A  
HETATM   12 CL   UNL     1     -12.654  11.663  63.224  1.00  0.00    -0.466 Cl 
HETATM   13  C   UNL     1     -11.988  12.734  64.393  1.00  0.00    -0.399 A  
ENDBRANCH   3   7
BRANCH   5  14
HETATM   14  C   UNL     1     -11.457  14.782  69.549  1.00  0.00    -0.298 A  
HETATM   15  C   UNL     1     -12.378  15.582  70.269  1.00  0.00    -0.431 A  
HETATM   16  C   UNL     1     -13.248  13.650  71.407  1.00  0.00    -0.283 A  
HETATM   17  C   UNL     1     -12.393  12.837  70.667  1.00  0.00    -0.381 A  
HETATM   18 CL   UNL     1     -10.838  12.257  68.597  1.00  0.00    -0.254 Cl 
HETATM   19  C   UNL     1     -11.538  13.391  69.699  1.00  0.00    -0.268 A  
HETATM   20  C   UNL     1     -13.272  15.019  71.183  1.00  0.00    -0.498 A  
HETATM   21 CL   UNL     1     -14.315  12.955  72.562  1.00  0.00    -0.115 Cl 
ENDBRANCH   5  14
BRANCH   4  22
HETATM   22  C   UNL     1      -7.943  17.974  68.686  1.00  0.00    -0.294 C  
HETATM   23  O   UNL     1      -8.289  19.144  68.841  1.00  0.00    -0.352 OA 
HETATM   24  N   UNL     1      -6.644  17.499  68.793  1.00  0.00    -0.206 N  
HETATM   25  H   UNL     1      -6.501  16.508  68.602  1.00  0.00     0.000 HD 
BRANCH  24  26
HETATM   26  N   UNL     1      -5.505  18.248  69.139  1.00  0.00    -0.193 NA 
HETATM   27  C   UNL     1      -5.134  19.296  68.193  1.00  0.00    -0.176 C  
HETATM   28  C   UNL     1      -5.693  20.667  68.556  1.00  0.00    -0.361 C  
HETATM   29  C   UNL     1      -5.234  21.066  69.953  1.00  0.00    -0.372 C  
HETATM   30  C   UNL     1      -5.666  20.017  70.971  1.00  0.00    -0.346 C  
HETATM   31  C   UNL     1      -5.307  18.585  70.551  1.00  0.00    -0.247 C  
ENDBRANCH  24  26
ENDBRANCH   4  22
TORSDOF 4
ENDMDL
MODEL       19
REMARK 921   NORMALIZED FREE ENERGY PREDICTED BY IDOCK:   -6.98 KCAL/MOL
REMARK 922        TOTAL FREE ENERGY PREDICTED BY IDOCK:   -9.51 KCAL/MOL
REMARK 923 INTER-LIGAND FREE ENERGY PREDICTED BY IDOCK:   -7.98 KCAL/MOL
REMARK 924 INTRA-LIGAND FREE ENERGY PREDICTED BY IDOCK:   -1.52 KCAL/MOL
REMARK 927      BINDING AFFINITY PREDICTED BY RF-SCORE:    0.00 PKD
ROOT
HETATM    1  C   UNL     1     -12.001  11.672  69.997  1.00  0.00    -0.429 C  
HETATM    2  C   UNL     1     -11.196  10.847  69.051  1.00  0.00    -0.327 A  
HETATM    3  C   UNL     1     -10.531   9.634  69.276  1.00  0.00    -0.217 A  
HETATM    4  C   UNL     1     -11.005  11.166  67.675  1.00  0.00    -0.269 A  
HETATM    5  N   UNL     1      -9.960   9.298  68.029  1.00  0.00    -0.173 NA 
HETATM    6  N   UNL     1     -10.340  10.181  67.055  1.00  0.00    -0.233 NA 
ENDROOT
BRANCH   3   7
HETATM    7  C   UNL     1     -10.500   8.843  70.536  1.00  0.00    -0.257 A  
HETATM    8  C   UNL     1      -9.370   8.911  71.376  1.00  0.00    -0.338 A  
HETATM    9  C   UNL     1     -11.484   7.286  72.143  1.00  0.00    -0.310 A  
HETATM   10  C   UNL     1     -11.567   8.035  70.959  1.00  0.00    -0.303 A  
HETATM   11  C   UNL     1      -9.312   8.220  72.593  1.00  0.00    -0.350 A  
HETATM   12 CL   UNL     1     -10.285   6.514  74.439  1.00  0.00    -0.374 Cl 
HETATM   13  C   UNL     1     -10.367   7.395  72.965  1.00  0.00    -0.306 A  
ENDBRANCH   3   7
BRANCH   5  14
HETATM   14  C   UNL     1      -9.159   8.190  67.596  1.00  0.00    -0.134 A  
HETATM   15  C   UNL     1      -7.767   8.419  67.473  1.00  0.00    -0.099 A  
HETATM   16  C   UNL     1      -7.426   6.210  66.587  1.00  0.00    -0.090 A  
HETATM   17  C   UNL     1      -8.782   5.940  66.756  1.00  0.00    -0.117 A  
HETATM   18 CL   UNL     1     -11.181   6.313  67.826  1.00  0.00    -0.352 Cl 
HETATM   19  C   UNL     1      -9.640   6.905  67.312  1.00  0.00    -0.142 A  
HETATM   20  C   UNL     1      -6.907   7.434  66.981  1.00  0.00    -0.074 A  
HETATM   21 CL   UNL     1      -6.381   5.006  65.941  1.00  0.00    -0.038 Cl 
ENDBRANCH   5  14
BRANCH   4  22
HETATM   22  C   UNL     1     -11.459  12.380  66.936  1.00  0.00    -0.360 C  
HETATM   23  O   UNL     1     -12.375  12.337  66.117  1.00  0.00    -0.588 OA 
HETATM   24  N   UNL     1     -10.752  13.519  67.293  1.00  0.00    -0.266 N  
HETATM   25  H   UNL     1      -9.992  13.397  67.961  1.00  0.00     0.000 HD 
BRANCH  24  26
HETATM   26  N   UNL     1     -10.978  14.825  66.823  1.00  0.00    -0.321 NA 
HETATM   27  C   UNL     1     -11.265  15.819  67.853  1.00  0.00    -0.313 C  
HETATM   28  C   UNL     1     -10.034  16.593  68.310  1.00  0.00    -0.261 C  
HETATM   29  C   UNL     1      -9.375  17.278  67.120  1.00  0.00    -0.245 C  
HETATM   30  C   UNL     1      -9.006  16.251  66.056  1.00  0.00    -0.325 C  
HETATM   31  C   UNL     1     -10.163  15.304  65.704  1.00  0.00    -0.372 C  
ENDBRANCH  24  26
ENDBRANCH   4  22
TORSDOF 4
ENDMDL
MODEL       20
REMARK 921   NORMALIZED FREE ENERGY PREDICTED BY IDOCK:   -6.86 KCAL/MOL
REMARK 922        TOTAL FREE ENERGY PREDICTED BY IDOCK:   -9.35 KCAL/MOL
REMARK 923 INTER-LIGAND FREE ENERGY PREDICTED BY IDOCK:   -8.22 KCAL/MOL
REMARK 924 INTRA-LIGAND FREE ENERGY PREDICTED BY IDOCK:   -1.13 KCAL/MOL
REMARK 927      BINDING AFFINITY PREDICTED BY RF-SCORE:    0.00 PKD
ROOT
HETATM    1  C   UNL     1     -11.305  10.818  70.111  1.00  0.00    -0.390 C  
HETATM    2  C   UNL     1     -10.905   9.779  69.119  1.00  0.00    -0.231 A  
HETATM    3  C   UNL     1     -10.532   8.444  69.332  1.00  0.00    -0.217 A  
HETATM    4  C   UNL     1     -10.878   9.987  67.709  1.00  0.00    -0.282 A  
HETATM    5  N   UNL     1     -10.285   7.927  68.042  1.00  0.00    -0.200 NA 
HETATM    6  N   UNL     1     -10.595   8.843  67.072  1.00  0.00    -0.256 NA 
ENDROOT
BRANCH   3   7
HETATM    7  C   UNL     1     -10.483   7.720  70.630  1.00  0.00    -0.213 A  
HETATM    8  C   UNL     1     -11.412   6.693  70.893  1.00  0.00    -0.401 A  
HETATM    9  C   UNL     1      -9.532   7.296  72.843  1.00  0.00    -0.200 A  
HETATM   10  C   UNL     1      -9.525   7.988  71.621  1.00  0.00    -0.213 A  
HETATM   11  C   UNL     1     -11.378   5.952  72.081  1.00  0.00    -0.344 A  
HETATM   12 CL   UNL     1     -10.423   5.390  74.538  1.00  0.00    -0.269 Cl 
HETATM   13  C   UNL     1     -10.444   6.270  73.061  1.00  0.00    -0.228 A  
ENDBRANCH   3   7
BRANCH   5  14
HETATM   14  C   UNL     1      -9.870   6.635  67.578  1.00  0.00    -0.129 A  
HETATM   15  C   UNL     1     -10.722   5.986  66.652  1.00  0.00    -0.315 A  
HETATM   16  C   UNL     1      -9.343   4.017  66.680  1.00  0.00    -0.184 A  
HETATM   17  C   UNL     1      -8.458   4.656  67.545  1.00  0.00    -0.104 A  
HETATM   18 CL   UNL     1      -7.337   6.773  68.685  1.00  0.00    -0.088 Cl 
HETATM   19  C   UNL     1      -8.687   5.983  67.951  1.00  0.00    -0.112 A  
HETATM   20  C   UNL     1     -10.455   4.692  66.200  1.00  0.00    -0.281 A  
HETATM   21 CL   UNL     1      -9.030   2.407  66.162  1.00  0.00    -0.130 Cl 
ENDBRANCH   5  14
BRANCH   4  22
HETATM   22  C   UNL     1     -11.137  11.249  66.956  1.00  0.00    -0.293 C  
HETATM   23  O   UNL     1     -12.092  11.978  67.218  1.00  0.00    -0.572 OA 
HETATM   24  N   UNL     1     -10.187  11.491  65.974  1.00  0.00    -0.233 N  
HETATM   25  H   UNL     1      -9.469  10.778  65.846  1.00  0.00     0.000 HD 
BRANCH  24  26
HETATM   26  N   UNL     1     -10.116  12.619  65.138  1.00  0.00    -0.267 NA 
HETATM   27  C   UNL     1     -10.844  12.511  63.877  1.00  0.00    -0.431 C  
HETATM   28  C   UNL     1     -12.249  13.099  63.934  1.00  0.00    -0.503 C  
HETATM   29  C   UNL     1     -12.187  14.562  64.355  1.00  0.00    -0.480 C  
HETATM   30  C   UNL     1     -11.488  14.696  65.702  1.00  0.00    -0.340 C  
HETATM   31  C   UNL     1     -10.151  13.943  65.766  1.00  0.00    -0.320 C  
ENDBRANCH  24  26
ENDBRANCH   4  22
TORSDOF 4
ENDMDL
MODEL       21
REMARK 921   NORMALIZED FREE ENERGY PREDICTED BY IDOCK:   -6.81 KCAL/MOL
REMARK 922        TOTAL FREE ENERGY PREDICTED BY IDOCK:   -9.29 KCAL/MOL
REMARK 923 INTER-LIGAND FREE ENERGY PREDICTED BY IDOCK:   -8.46 KCAL/MOL
REMARK 924 INTRA-LIGAND FREE ENERGY PREDICTED BY IDOCK:   -0.82 KCAL/MOL
REMARK 927      BINDING AFFINITY PREDICTED BY RF-SCORE:    0.00 PKD
ROOT
HETATM    1  C   UNL     1     -11.821  11.537  66.955  1.00  0.00     0.065 C  
HETATM    2  C   UNL     1     -11.138  12.826  66.645  1.00  0.00    -0.313 A  
HETATM    3  C   UNL     1     -11.040  13.989  67.423  1.00  0.00    -0.303 A  
HETATM    4  C   UNL     1     -10.398  13.073  65.452  1.00  0.00    -0.300 A  
HETATM    5  N   UNL     1     -10.262  14.877  66.649  1.00  0.00    -0.256 NA 
HETATM    6  N   UNL     1      -9.802  14.272  65.510  1.00  0.00    -0.293 NA 
ENDROOT
BRANCH   3   7
HETATM    7  C   UNL     1     -11.577  14.204  68.793  1.00  0.00    -0.362 A  
HETATM    8  C   UNL     1     -11.851  13.095  69.619  1.00  0.00    -0.390 A  
HETATM    9  C   UNL     1     -12.341  15.634  70.623  1.00  0.00    -0.457 A  
HETATM   10  C   UNL     1     -11.808  15.479  69.334  1.00  0.00    -0.392 A  
HETATM   11  C   UNL     1     -12.315  13.247  70.931  1.00  0.00    -0.413 A  
HETATM   12 CL   UNL     1     -13.182  14.713  73.020  1.00  0.00    -0.591 Cl 
HETATM   13  C   UNL     1     -12.575  14.521  71.423  1.00  0.00    -0.341 A  
ENDBRANCH   3   7
BRANCH   5  14
HETATM   14  C   UNL     1      -9.809  16.219  66.876  1.00  0.00    -0.247 A  
HETATM   15  C   UNL     1     -10.467  17.245  66.153  1.00  0.00    -0.279 A  
HETATM   16  C   UNL     1      -8.960  18.902  67.029  1.00  0.00    -0.294 A  
HETATM   17  C   UNL     1      -8.335  17.920  67.794  1.00  0.00    -0.241 A  
HETATM   18 CL   UNL     1      -8.200  15.579  69.035  1.00  0.00    -0.207 Cl 
HETATM   19  C   UNL     1      -8.792  16.591  67.764  1.00  0.00    -0.197 A  
HETATM   20  C   UNL     1     -10.052  18.575  66.237  1.00  0.00    -0.422 A  
HETATM   21 CL   UNL     1      -8.415  20.531  67.104  1.00  0.00    -0.389 Cl 
ENDBRANCH   5  14
BRANCH   4  22
HETATM   22  C   UNL     1     -10.231  12.181  64.267  1.00  0.00    -0.324 C  
HETATM   23  O   UNL     1     -10.890  12.335  63.241  1.00  0.00    -0.435 OA 
HETATM   24  N   UNL     1      -9.264  11.207  64.463  1.00  0.00    -0.339 N  
HETATM   25  H   UNL     1      -8.822  11.177  65.382  1.00  0.00     0.000 HD 
BRANCH  24  26
HETATM   26  N   UNL     1      -8.831  10.256  63.521  1.00  0.00    -0.202 NA 
HETATM   27  C   UNL     1      -7.947  10.767  62.478  1.00  0.00    -0.138 C  
HETATM   28  C   UNL     1      -6.467  10.584  62.793  1.00  0.00    -0.104 C  
HETATM   29  C   UNL     1      -6.161   9.112  63.034  1.00  0.00    -0.090 C  
HETATM   30  C   UNL     1      -7.028   8.570  64.166  1.00  0.00    -0.078 C  
HETATM   31  C   UNL     1      -8.516   8.908  64.000  1.00  0.00    -0.133 C  
ENDBRANCH  24  26
ENDBRANCH   4  22
TORSDOF 4
ENDMDL
MODEL       22
REMARK 921   NORMALIZED FREE ENERGY PREDICTED BY IDOCK:   -6.79 KCAL/MOL
REMARK 922        TOTAL FREE ENERGY PREDICTED BY IDOCK:   -9.27 KCAL/MOL
REMARK 923 INTER-LIGAND FREE ENERGY PREDICTED BY IDOCK:   -8.94 KCAL/MOL
REMARK 924 INTRA-LIGAND FREE ENERGY PREDICTED BY IDOCK:   -0.33 KCAL/MOL
REMARK 927      BINDING AFFINITY PREDICTED BY RF-SCORE:    0.00 PKD
ROOT
HETATM    1  C   UNL     1      -9.960   9.589  66.567  1.00  0.00    -0.329 C  
HETATM    2  C   UNL     1     -10.556  10.105  67.833  1.00  0.00    -0.294 A  
HETATM    3  C   UNL     1     -11.044  11.387  68.126  1.00  0.00    -0.248 A  
HETATM    4  C   UNL     1     -10.771   9.314  68.998  1.00  0.00    -0.167 A  
HETATM    5  N   UNL     1     -11.510  11.301  69.455  1.00  0.00    -0.279 NA 
HETATM    6  N   UNL     1     -11.428  10.019  69.929  1.00  0.00    -0.237 NA 
ENDROOT
BRANCH   3   7
HETATM    7  C   UNL     1     -11.120  12.554  67.206  1.00  0.00    -0.319 A  
HETATM    8  C   UNL     1     -10.012  13.415  67.076  1.00  0.00    -0.246 A  
HETATM    9  C   UNL     1     -12.286  13.967  65.587  1.00  0.00    -0.511 A  
HETATM   10  C   UNL     1     -12.250  12.839  66.422  1.00  0.00    -0.242 A  
HETATM   11  C   UNL     1     -10.019  14.500  66.192  1.00  0.00    -0.330 A  
HETATM   12 CL   UNL     1     -11.194  16.136  64.401  1.00  0.00    -0.358 Cl 
HETATM   13  C   UNL     1     -11.166  14.782  65.460  1.00  0.00    -0.346 A  
ENDBRANCH   3   7
BRANCH   5  14
HETATM   14  C   UNL     1     -12.115  12.259  70.335  1.00  0.00    -0.300 A  
HETATM   15  C   UNL     1     -12.035  13.619  69.948  1.00  0.00    -0.415 A  
HETATM   16  C   UNL     1     -13.073  14.321  72.000  1.00  0.00    -0.372 A  
HETATM   17  C   UNL     1     -13.218  12.987  72.376  1.00  0.00    -0.487 A  
HETATM   18 CL   UNL     1     -13.383  10.378  71.922  1.00  0.00    -0.503 Cl 
HETATM   19  C   UNL     1     -12.793  11.953  71.522  1.00  0.00    -0.316 A  
HETATM   20  C   UNL     1     -12.518  14.640  70.769  1.00  0.00    -0.407 A  
HETATM   21 CL   UNL     1     -13.631  15.574  73.037  1.00  0.00    -0.614 Cl 
ENDBRANCH   5  14
BRANCH   4  22
HETATM   22  C   UNL     1     -10.380   7.893  69.234  1.00  0.00    -0.220 C  
HETATM   23  O   UNL     1     -11.148   6.961  69.002  1.00  0.00    -0.205 OA 
HETATM   24  N   UNL     1      -9.085   7.767  69.715  1.00  0.00    -0.147 N  
HETATM   25  H   UNL     1      -8.577   8.632  69.896  1.00  0.00     0.000 HD 
BRANCH  24  26
HETATM   26  N   UNL     1      -8.404   6.565  69.980  1.00  0.00    -0.132 NA 
HETATM   27  C   UNL     1      -8.673   5.968  71.284  1.00  0.00    -0.136 C  
HETATM   28  C   UNL     1      -9.769   4.909  71.253  1.00  0.00    -0.241 C  
HETATM   29  C   UNL     1      -9.408   3.811  70.262  1.00  0.00    -0.238 C  
HETATM   30  C   UNL     1      -9.186   4.402  68.875  1.00  0.00    -0.199 C  
HETATM   31  C   UNL     1      -8.240   5.612  68.879  1.00  0.00    -0.100 C  
ENDBRANCH  24  26
ENDBRANCH   4  22
TORSDOF 4
ENDMDL
MODEL       23
REMARK 921   NORMALIZED FREE ENERGY PREDICTED BY IDOCK:   -6.77 KCAL/MOL
REMARK 922        TOTAL FREE ENERGY PREDICTED BY IDOCK:   -9.25 KCAL/MOL
REMARK 923 INTER-LIGAND FREE ENERGY PREDICTED BY IDOCK:   -8.96 KCAL/MOL
REMARK 924 INTRA-LIGAND FREE ENERGY PREDICTED BY IDOCK:   -0.29 KCAL/MOL
REMARK 927      BINDING AFFINITY PREDICTED BY RF-SCORE:    0.00 PKD
ROOT
HETATM    1  C   UNL     1     -12.210  13.825  70.708  1.00  0.00    -0.437 C  
HETATM    2  C   UNL     1     -11.758  12.916  69.615  1.00  0.00    -0.367 A  
HETATM    3  C   UNL     1     -11.249  13.236  68.348  1.00  0.00    -0.280 A  
HETATM    4  C   UNL     1     -11.735  11.495  69.714  1.00  0.00    -0.353 A  
HETATM    5  N   UNL     1     -10.965  11.990  67.748  1.00  0.00    -0.220 NA 
HETATM    6  N   UNL     1     -11.170  10.959  68.624  1.00  0.00    -0.245 NA 
ENDROOT
BRANCH   3   7
HETATM    7  C   UNL     1     -10.998  14.594  67.794  1.00  0.00    -0.291 A  
HETATM    8  C   UNL     1     -10.666  14.743  66.433  1.00  0.00    -0.313 A  
HETATM    9  C   UNL     1     -10.831  17.024  68.004  1.00  0.00    -0.330 A  
HETATM   10  C   UNL     1     -11.102  15.765  68.562  1.00  0.00    -0.335 A  
HETATM   11  C   UNL     1     -10.464  16.003  65.856  1.00  0.00    -0.373 A  
HETATM   12 CL   UNL     1     -10.246  18.688  65.956  1.00  0.00    -0.420 Cl 
HETATM   13  C   UNL     1     -10.532  17.141  66.651  1.00  0.00    -0.259 A  
ENDBRANCH   3   7
BRANCH   5  14
HETATM   14  C   UNL     1     -10.432  11.631  66.465  1.00  0.00    -0.239 A  
HETATM   15  C   UNL     1     -11.337  11.636  65.375  1.00  0.00    -0.218 A  
HETATM   16  C   UNL     1      -9.644  10.781  63.897  1.00  0.00    -0.293 A  
HETATM   17  C   UNL     1      -8.721  10.824  64.939  1.00  0.00    -0.135 A  
HETATM   18 CL   UNL     1      -7.785  11.670  67.273  1.00  0.00    -0.146 Cl 
HETATM   19  C   UNL     1      -9.095  11.301  66.208  1.00  0.00    -0.199 A  
HETATM   20  C   UNL     1     -10.943  11.224  64.101  1.00  0.00    -0.376 A  
HETATM   21 CL   UNL     1      -9.163  10.231  62.340  1.00  0.00    -0.292 Cl 
ENDBRANCH   5  14
BRANCH   4  22
HETATM   22  C   UNL     1     -12.222  10.640  70.836  1.00  0.00    -0.395 C  
HETATM   23  O   UNL     1     -13.016  11.059  71.676  1.00  0.00    -0.441 OA 
HETATM   24  N   UNL     1     -11.694   9.357  70.797  1.00  0.00    -0.290 N  
HETATM   25  H   UNL     1     -11.017   9.161  70.061  1.00  0.00     0.000 HD 
BRANCH  24  26
HETATM   26  N   UNL     1     -12.001   8.300  71.673  1.00  0.00    -0.288 NA 
HETATM   27  C   UNL     1     -12.399   7.051  71.032  1.00  0.00    -0.356 C  
HETATM   28  C   UNL     1     -11.247   6.071  70.843  1.00  0.00    -0.335 C  
HETATM   29  C   UNL     1     -10.598   5.762  72.186  1.00  0.00    -0.268 C  
HETATM   30  C   UNL     1     -10.114   7.046  72.848  1.00  0.00    -0.225 C  
HETATM   31  C   UNL     1     -11.183   8.148  72.880  1.00  0.00    -0.242 C  
ENDBRANCH  24  26
ENDBRANCH   4  22
TORSDOF 4
ENDMDL
MODEL       24
REMARK 921   NORMALIZED FREE ENERGY PREDICTED BY IDOCK:   -6.76 KCAL/MOL
REMARK 922        TOTAL FREE ENERGY PREDICTED BY IDOCK:   -9.23 KCAL/MOL
REMARK 923 INTER-LIGAND FREE ENERGY PREDICTED BY IDOCK:   -8.67 KCAL/MOL
REMARK 924 INTRA-LIGAND FREE ENERGY PREDICTED BY IDOCK:   -0.57 KCAL/MOL
REMARK 927      BINDING AFFINITY PREDICTED BY RF-SCORE:    0.00 PKD
ROOT
HETATM    1  C   UNL     1     -11.723  16.086  70.415  1.00  0.00    -0.326 C  
HETATM    2  C   UNL     1     -11.104  15.431  69.227  1.00  0.00    -0.280 A  
HETATM    3  C   UNL     1     -11.043  14.070  68.895  1.00  0.00    -0.268 A  
HETATM    4  C   UNL     1     -10.478  16.137  68.159  1.00  0.00    -0.279 A  
HETATM    5  N   UNL     1     -10.368  14.030  67.656  1.00  0.00    -0.240 NA 
HETATM    6  N   UNL     1     -10.125  15.291  67.182  1.00  0.00    -0.238 NA 
ENDROOT
BRANCH   3   7
HETATM    7  C   UNL     1     -11.628  12.931  69.652  1.00  0.00    -0.318 A  
HETATM    8  C   UNL     1     -12.395  13.180  70.808  1.00  0.00    -0.404 A  
HETATM    9  C   UNL     1     -12.027  10.546  70.017  1.00  0.00    -0.367 A  
HETATM   10  C   UNL     1     -11.478  11.592  69.258  1.00  0.00    -0.370 A  
HETATM   11  C   UNL     1     -13.003  12.145  71.528  1.00  0.00    -0.398 A  
HETATM   12 CL   UNL     1     -13.514   9.548  72.041  1.00  0.00    -0.497 Cl 
HETATM   13  C   UNL     1     -12.802  10.826  71.138  1.00  0.00    -0.414 A  
ENDBRANCH   3   7
BRANCH   5  14
HETATM   14  C   UNL     1      -9.987  12.948  66.794  1.00  0.00    -0.243 A  
HETATM   15  C   UNL     1     -10.890  12.611  65.757  1.00  0.00    -0.304 A  
HETATM   16  C   UNL     1      -9.526  10.742  65.103  1.00  0.00    -0.226 A  
HETATM   17  C   UNL     1      -8.593  11.090  66.077  1.00  0.00    -0.173 A  
HETATM   18 CL   UNL     1      -7.399  12.759  67.758  1.00  0.00    -0.115 Cl 
HETATM   19  C   UNL     1      -8.791  12.223  66.885  1.00  0.00    -0.207 A  
HETATM   20  C   UNL     1     -10.657  11.523  64.913  1.00  0.00    -0.360 A  
HETATM   21 CL   UNL     1      -9.252   9.375  64.095  1.00  0.00    -0.149 Cl 
ENDBRANCH   5  14
BRANCH   4  22
HETATM   22  C   UNL     1     -10.228  17.603  68.042  1.00  0.00    -0.362 C  
HETATM   23  O   UNL     1     -11.146  18.411  67.914  1.00  0.00    -0.180 OA 
HETATM   24  N   UNL     1      -8.880  17.923  68.112  1.00  0.00    -0.258 N  
HETATM   25  H   UNL     1      -8.226  17.143  68.183  1.00  0.00     0.000 HD 
BRANCH  24  26
HETATM   26  N   UNL     1      -8.324  19.215  68.094  1.00  0.00    -0.304 NA 
HETATM   27  C   UNL     1      -7.072  19.368  68.828  1.00  0.00    -0.347 C  
HETATM   28  C   UNL     1      -5.833  19.224  67.952  1.00  0.00    -0.212 C  
HETATM   29  C   UNL     1      -5.876  20.236  66.815  1.00  0.00    -0.201 C  
HETATM   30  C   UNL     1      -7.146  20.053  65.992  1.00  0.00    -0.302 C  
HETATM   31  C   UNL     1      -8.417  19.985  66.851  1.00  0.00    -0.328 C  
ENDBRANCH  24  26
ENDBRANCH   4  22
TORSDOF 4
ENDMDL
MODEL       25
REMARK 921   NORMALIZED FREE ENERGY PREDICTED BY IDOCK:   -6.76 KCAL/MOL
REMARK 922        TOTAL FREE ENERGY PREDICTED BY IDOCK:   -9.23 KCAL/MOL
REMARK 923 INTER-LIGAND FREE ENERGY PREDICTED BY IDOCK:   -8.42 KCAL/MOL
REMARK 924 INTRA-LIGAND FREE ENERGY PREDICTED BY IDOCK:   -0.80 KCAL/MOL
REMARK 927      BINDING AFFINITY PREDICTED BY RF-SCORE:    0.00 PKD
ROOT
HETATM    1  C   UNL     1     -11.541   9.592  71.208  1.00  0.00    -0.466 C  
HETATM    2  C   UNL     1     -11.327  10.306  69.917  1.00  0.00    -0.354 A  
HETATM    3  C   UNL     1     -11.614  11.637  69.580  1.00  0.00    -0.331 A  
HETATM    4  C   UNL     1     -10.722   9.718  68.768  1.00  0.00    -0.215 A  
HETATM    5  N   UNL     1     -11.182  11.772  68.242  1.00  0.00    -0.233 NA 
HETATM    6  N   UNL     1     -10.558  10.635  67.804  1.00  0.00    -0.217 NA 
ENDROOT
BRANCH   3   7
HETATM    7  C   UNL     1     -12.179  12.689  70.466  1.00  0.00    -0.383 A  
HETATM    8  C   UNL     1     -11.859  14.043  70.238  1.00  0.00    -0.373 A  
HETATM    9  C   UNL     1     -13.545  13.429  72.355  1.00  0.00    -0.708 A  
HETATM   10  C   UNL     1     -13.055  12.406  71.527  1.00  0.00    -0.362 A  
HETATM   11  C   UNL     1     -12.402  15.072  71.017  1.00  0.00    -0.394 A  
HETATM   12 CL   UNL     1     -13.871  16.014  73.071  1.00  0.00    -0.573 Cl 
HETATM   13  C   UNL     1     -13.233  14.758  72.087  1.00  0.00    -0.361 A  
ENDBRANCH   3   7
BRANCH   5  14
HETATM   14  C   UNL     1     -11.199  12.875  67.325  1.00  0.00    -0.288 A  
HETATM   15  C   UNL     1     -12.409  13.105  66.626  1.00  0.00    -0.207 A  
HETATM   16  C   UNL     1     -11.396  14.868  65.343  1.00  0.00    -0.346 A  
HETATM   17  C   UNL     1     -10.213  14.701  66.058  1.00  0.00    -0.326 A  
HETATM   18 CL   UNL     1      -8.765  13.914  68.138  1.00  0.00    -0.175 Cl 
HETATM   19  C   UNL     1     -10.127  13.746  67.087  1.00  0.00    -0.241 A  
HETATM   20  C   UNL     1     -12.509  14.099  65.651  1.00  0.00    -0.490 A  
HETATM   21 CL   UNL     1     -11.498  16.066  64.113  1.00  0.00    -0.247 Cl 
ENDBRANCH   5  14
BRANCH   4  22
HETATM   22  C   UNL     1     -10.280   8.306  68.578  1.00  0.00    -0.208 C  
HETATM   23  O   UNL     1     -10.788   7.575  67.730  1.00  0.00    -0.180 OA 
HETATM   24  N   UNL     1      -9.251   7.948  69.436  1.00  0.00    -0.146 N  
HETATM   25  H   UNL     1      -8.953   8.650  70.113  1.00  0.00     0.000 HD 
BRANCH  24  26
HETATM   26  N   UNL     1      -8.577   6.714  69.465  1.00  0.00    -0.131 NA 
HETATM   27  C   UNL     1      -7.120   6.796  69.453  1.00  0.00    -0.080 C  
HETATM   28  C   UNL     1      -6.497   6.749  70.843  1.00  0.00    -0.052 C  
HETATM   29  C   UNL     1      -6.923   5.476  71.564  1.00  0.00    -0.067 C  
HETATM   30  C   UNL     1      -8.443   5.399  71.648  1.00  0.00    -0.127 C  
HETATM   31  C   UNL     1      -9.135   5.646  70.299  1.00  0.00    -0.143 C  
ENDBRANCH  24  26
ENDBRANCH   4  22
TORSDOF 4
ENDMDL
MODEL       26
REMARK 921   NORMALIZED FREE ENERGY PREDICTED BY IDOCK:   -6.72 KCAL/MOL
REMARK 922        TOTAL FREE ENERGY PREDICTED BY IDOCK:   -9.18 KCAL/MOL
REMARK 923 INTER-LIGAND FREE ENERGY PREDICTED BY IDOCK:   -8.57 KCAL/MOL
REMARK 924 INTRA-LIGAND FREE ENERGY PREDICTED BY IDOCK:   -0.61 KCAL/MOL
REMARK 927      BINDING AFFINITY PREDICTED BY RF-SCORE:    0.00 PKD
ROOT
HETATM    1  C   UNL     1     -10.606  11.459  68.876  1.00  0.00    -0.234 C  
HETATM    2  C   UNL     1     -10.227  12.727  68.190  1.00  0.00    -0.241 A  
HETATM    3  C   UNL     1     -10.550  14.050  68.527  1.00  0.00    -0.254 A  
HETATM    4  C   UNL     1      -9.392  12.795  67.037  1.00  0.00    -0.229 A  
HETATM    5  N   UNL     1      -9.906  14.839  67.549  1.00  0.00    -0.217 NA 
HETATM    6  N   UNL     1      -9.133  14.071  66.721  1.00  0.00    -0.250 NA 
ENDROOT
BRANCH   3   7
HETATM    7  C   UNL     1     -11.336  14.514  69.702  1.00  0.00    -0.314 A  
HETATM    8  C   UNL     1     -10.796  15.490  70.563  1.00  0.00    -0.353 A  
HETATM    9  C   UNL     1     -13.322  14.491  71.128  1.00  0.00    -0.415 A  
HETATM   10  C   UNL     1     -12.626  14.043  69.994  1.00  0.00    -0.250 A  
HETATM   11  C   UNL     1     -11.515  15.990  71.656  1.00  0.00    -0.443 A  
HETATM   12 CL   UNL     1     -13.645  16.057  73.306  1.00  0.00    -0.612 Cl 
HETATM   13  C   UNL     1     -12.773  15.475  71.944  1.00  0.00    -0.417 A  
ENDBRANCH   3   7
BRANCH   5  14
HETATM   14  C   UNL     1      -9.847  16.256  67.333  1.00  0.00    -0.242 A  
HETATM   15  C   UNL     1      -9.070  17.009  68.247  1.00  0.00    -0.241 A  
HETATM   16  C   UNL     1      -9.741  19.069  67.204  1.00  0.00    -0.320 A  
HETATM   17  C   UNL     1     -10.463  18.347  66.257  1.00  0.00    -0.421 A  
HETATM   18 CL   UNL     1     -11.064  16.181  64.847  1.00  0.00    -0.397 Cl 
HETATM   19  C   UNL     1     -10.473  16.941  66.283  1.00  0.00    -0.262 A  
HETATM   20  C   UNL     1      -9.011  18.402  68.177  1.00  0.00    -0.325 A  
HETATM   21 CL   UNL     1      -9.708  20.787  67.137  1.00  0.00    -0.561 Cl 
ENDBRANCH   5  14
BRANCH   4  22
HETATM   22  C   UNL     1      -8.820  11.668  66.244  1.00  0.00    -0.164 C  
HETATM   23  O   UNL     1      -7.651  11.310  66.373  1.00  0.00    -0.137 OA 
HETATM   24  N   UNL     1      -9.748  11.091  65.389  1.00  0.00    -0.219 N  
HETATM   25  H   UNL     1     -10.674  11.518  65.361  1.00  0.00     0.000 HD 
BRANCH  24  26
HETATM   26  N   UNL     1      -9.538   9.977  64.556  1.00  0.00    -0.303 NA 
HETATM   27  C   UNL     1      -9.233  10.286  63.162  1.00  0.00    -0.287 C  
HETATM   28  C   UNL     1      -7.739  10.327  62.862  1.00  0.00    -0.150 C  
HETATM   29  C   UNL     1      -7.094   8.999  63.236  1.00  0.00    -0.088 C  
HETATM   30  C   UNL     1      -7.343   8.684  64.706  1.00  0.00    -0.091 C  
HETATM   31  C   UNL     1      -8.817   8.830  65.112  1.00  0.00    -0.133 C  
ENDBRANCH  24  26
ENDBRANCH   4  22
TORSDOF 4
ENDMDL
MODEL       27
REMARK 921   NORMALIZED FREE ENERGY PREDICTED BY IDOCK:   -6.69 KCAL/MOL
REMARK 922        TOTAL FREE ENERGY PREDICTED BY IDOCK:   -9.14 KCAL/MOL
REMARK 923 INTER-LIGAND FREE ENERGY PREDICTED BY IDOCK:   -8.22 KCAL/MOL
REMARK 924 INTRA-LIGAND FREE ENERGY PREDICTED BY IDOCK:   -0.92 KCAL/MOL
REMARK 927      BINDING AFFINITY PREDICTED BY RF-SCORE:    0.00 PKD
ROOT
HETATM    1  C   UNL     1     -11.443  11.132  68.352  1.00  0.00    -0.377 C  
HETATM    2  C   UNL     1     -11.171  10.241  69.517  1.00  0.00    -0.314 A  
HETATM    3  C   UNL     1     -10.331   9.122  69.602  1.00  0.00    -0.219 A  
HETATM    4  C   UNL     1     -11.728  10.430  70.815  1.00  0.00    -0.368 A  
HETATM    5  N   UNL     1     -10.441   8.688  70.940  1.00  0.00    -0.204 NA 
HETATM    6  N   UNL     1     -11.209   9.547  71.680  1.00  0.00    -0.366 NA 
ENDROOT
BRANCH   3   7
HETATM    7  C   UNL     1      -9.461   8.566  68.531  1.00  0.00    -0.146 A  
HETATM    8  C   UNL     1     -10.043   8.025  67.367  1.00  0.00    -0.294 A  
HETATM    9  C   UNL     1      -7.277   8.013  67.580  1.00  0.00    -0.091 A  
HETATM   10  C   UNL     1      -8.059   8.572  68.604  1.00  0.00    -0.121 A  
HETATM   11  C   UNL     1      -9.265   7.530  66.313  1.00  0.00    -0.194 A  
HETATM   12 CL   UNL     1      -6.922   6.869  65.158  1.00  0.00    -0.050 Cl 
HETATM   13  C   UNL     1      -7.881   7.511  66.432  1.00  0.00    -0.098 A  
ENDBRANCH   3   7
BRANCH   5  14
HETATM   14  C   UNL     1      -9.843   7.601  71.659  1.00  0.00    -0.162 A  
HETATM   15  C   UNL     1      -9.280   7.905  72.923  1.00  0.00    -0.297 A  
HETATM   16  C   UNL     1      -8.456   5.658  73.157  1.00  0.00    -0.117 A  
HETATM   17  C   UNL     1      -9.052   5.319  71.945  1.00  0.00    -0.153 A  
HETATM   18 CL   UNL     1     -10.793   5.627  69.967  1.00  0.00    -0.395 Cl 
HETATM   19  C   UNL     1      -9.794   6.271  71.222  1.00  0.00    -0.175 A  
HETATM   20  C   UNL     1      -8.601   6.939  73.669  1.00  0.00    -0.156 A  
HETATM   21 CL   UNL     1      -7.584   4.475  74.050  1.00  0.00    -0.084 Cl 
ENDBRANCH   5  14
BRANCH   4  22
HETATM   22  C   UNL     1     -12.728  11.447  71.252  1.00  0.00    -0.393 C  
HETATM   23  O   UNL     1     -13.765  11.130  71.834  1.00  0.00    -0.112 OA 
HETATM   24  N   UNL     1     -12.343  12.743  70.945  1.00  0.00    -0.399 N  
HETATM   25  H   UNL     1     -11.472  12.852  70.427  1.00  0.00     0.000 HD 
BRANCH  24  26
HETATM   26  N   UNL     1     -13.035  13.922  71.275  1.00  0.00    -0.342 NA 
HETATM   27  C   UNL     1     -13.389  14.066  72.684  1.00  0.00    -0.543 C  
HETATM   28  C   UNL     1     -12.375  14.875  73.485  1.00  0.00    -0.540 C  
HETATM   29  C   UNL     1     -12.202  16.256  72.867  1.00  0.00    -0.610 C  
HETATM   30  C   UNL     1     -11.769  16.133  71.411  1.00  0.00    -0.506 C  
HETATM   31  C   UNL     1     -12.641  15.162  70.602  1.00  0.00    -0.395 C  
ENDBRANCH  24  26
ENDBRANCH   4  22
TORSDOF 4
ENDMDL
MODEL       28
REMARK 921   NORMALIZED FREE ENERGY PREDICTED BY IDOCK:   -6.65 KCAL/MOL
REMARK 922        TOTAL FREE ENERGY PREDICTED BY IDOCK:   -9.10 KCAL/MOL
REMARK 923 INTER-LIGAND FREE ENERGY PREDICTED BY IDOCK:   -8.19 KCAL/MOL
REMARK 924 INTRA-LIGAND FREE ENERGY PREDICTED BY IDOCK:   -0.91 KCAL/MOL
REMARK 927      BINDING AFFINITY PREDICTED BY RF-SCORE:    0.00 PKD
ROOT
HETATM    1  C   UNL     1     -11.650  11.266  68.392  1.00  0.00    -0.378 C  
HETATM    2  C   UNL     1     -11.411  10.299  69.502  1.00  0.00    -0.273 A  
HETATM    3  C   UNL     1     -10.652   9.120  69.505  1.00  0.00    -0.223 A  
HETATM    4  C   UNL     1     -11.917  10.459  70.825  1.00  0.00    -0.363 A  
HETATM    5  N   UNL     1     -10.757   8.626  70.823  1.00  0.00    -0.208 NA 
HETATM    6  N   UNL     1     -11.439   9.498  71.628  1.00  0.00    -0.389 NA 
ENDROOT
BRANCH   3   7
HETATM    7  C   UNL     1      -9.854   8.560  68.381  1.00  0.00    -0.189 A  
HETATM    8  C   UNL     1      -8.566   9.067  68.117  1.00  0.00    -0.130 A  
HETATM    9  C   UNL     1      -9.535   7.032  66.499  1.00  0.00    -0.199 A  
HETATM   10  C   UNL     1     -10.311   7.513  67.565  1.00  0.00    -0.321 A  
HETATM   11  C   UNL     1      -7.760   8.543  67.099  1.00  0.00    -0.097 A  
HETATM   12 CL   UNL     1      -7.286   6.914  65.005  1.00  0.00    -0.071 Cl 
HETATM   13  C   UNL     1      -8.256   7.535  66.281  1.00  0.00    -0.125 A  
ENDBRANCH   3   7
BRANCH   5  14
HETATM   14  C   UNL     1     -10.219   7.463  71.468  1.00  0.00    -0.192 A  
HETATM   15  C   UNL     1     -11.036   6.306  71.482  1.00  0.00    -0.333 A  
HETATM   16  C   UNL     1      -9.438   5.128  72.838  1.00  0.00    -0.143 A  
HETATM   17  C   UNL     1      -8.590   6.232  72.788  1.00  0.00    -0.122 A  
HETATM   18 CL   UNL     1      -7.665   8.493  71.753  1.00  0.00    -0.152 Cl 
HETATM   19  C   UNL     1      -8.951   7.378  72.058  1.00  0.00    -0.124 A  
HETATM   20  C   UNL     1     -10.645   5.146  72.153  1.00  0.00    -0.273 A  
HETATM   21 CL   UNL     1      -8.968   3.718  73.703  1.00  0.00    -0.088 Cl 
ENDBRANCH   5  14
BRANCH   4  22
HETATM   22  C   UNL     1     -12.829  11.520  71.344  1.00  0.00    -0.384 C  
HETATM   23  O   UNL     1     -13.786  11.256  72.070  1.00  0.00    -0.165 OA 
HETATM   24  N   UNL     1     -12.460  12.791  70.930  1.00  0.00    -0.345 N  
HETATM   25  H   UNL     1     -11.663  12.855  70.297  1.00  0.00     0.000 HD 
BRANCH  24  26
HETATM   26  N   UNL     1     -13.077  14.001  71.295  1.00  0.00    -0.336 NA 
HETATM   27  C   UNL     1     -13.337  14.165  72.722  1.00  0.00    -0.519 C  
HETATM   28  C   UNL     1     -12.242  14.930  73.455  1.00  0.00    -0.490 C  
HETATM   29  C   UNL     1     -12.044  16.300  72.819  1.00  0.00    -0.637 C  
HETATM   30  C   UNL     1     -11.706  16.153  71.340  1.00  0.00    -0.506 C  
HETATM   31  C   UNL     1     -12.669  15.220  70.591  1.00  0.00    -0.416 C  
ENDBRANCH  24  26
ENDBRANCH   4  22
TORSDOF 4
ENDMDL
MODEL       29
REMARK 921   NORMALIZED FREE ENERGY PREDICTED BY IDOCK:   -6.56 KCAL/MOL
REMARK 922        TOTAL FREE ENERGY PREDICTED BY IDOCK:   -8.99 KCAL/MOL
REMARK 923 INTER-LIGAND FREE ENERGY PREDICTED BY IDOCK:   -7.62 KCAL/MOL
REMARK 924 INTRA-LIGAND FREE ENERGY PREDICTED BY IDOCK:   -1.37 KCAL/MOL
REMARK 927      BINDING AFFINITY PREDICTED BY RF-SCORE:    0.00 PKD
ROOT
HETATM    1  C   UNL     1      -9.482  10.036  64.784  1.00  0.00    -0.366 C  
HETATM    2  C   UNL     1      -9.951   9.893  66.192  1.00  0.00    -0.331 A  
HETATM    3  C   UNL     1      -9.673   8.881  67.122  1.00  0.00    -0.184 A  
HETATM    4  C   UNL     1     -10.771  10.846  66.863  1.00  0.00    -0.264 A  
HETATM    5  N   UNL     1     -10.356   9.271  68.295  1.00  0.00    -0.209 NA 
HETATM    6  N   UNL     1     -10.928  10.506  68.150  1.00  0.00    -0.256 NA 
ENDROOT
BRANCH   3   7
HETATM    7  C   UNL     1      -8.792   7.698  66.930  1.00  0.00    -0.142 A  
HETATM    8  C   UNL     1      -7.567   7.619  67.623  1.00  0.00    -0.109 A  
HETATM    9  C   UNL     1      -8.255   5.534  65.926  1.00  0.00    -0.121 A  
HETATM   10  C   UNL     1      -9.130   6.619  66.098  1.00  0.00    -0.143 A  
HETATM   11  C   UNL     1      -6.725   6.506  67.509  1.00  0.00    -0.067 A  
HETATM   12 CL   UNL     1      -6.017   4.121  66.472  1.00  0.00    -0.026 Cl 
HETATM   13  C   UNL     1      -7.066   5.472  66.646  1.00  0.00    -0.069 A  
ENDBRANCH   3   7
BRANCH   5  14
HETATM   14  C   UNL     1     -10.476   8.670  69.592  1.00  0.00    -0.220 A  
HETATM   15  C   UNL     1     -10.339   9.530  70.709  1.00  0.00    -0.377 A  
HETATM   16  C   UNL     1     -10.492   7.672  72.227  1.00  0.00    -0.237 A  
HETATM   17  C   UNL     1     -10.689   6.814  71.148  1.00  0.00    -0.261 A  
HETATM   18 CL   UNL     1     -11.374   6.225  68.654  1.00  0.00    -0.333 Cl 
HETATM   19  C   UNL     1     -10.738   7.315  69.835  1.00  0.00    -0.242 A  
HETATM   20  C   UNL     1     -10.356   9.037  72.015  1.00  0.00    -0.287 A  
HETATM   21 CL   UNL     1     -10.471   7.051  73.831  1.00  0.00    -0.399 Cl 
ENDBRANCH   5  14
BRANCH   4  22
HETATM   22  C   UNL     1     -11.392  12.084  66.308  1.00  0.00    -0.357 C  
HETATM   23  O   UNL     1     -12.401  12.047  65.607  1.00  0.00    -0.470 OA 
HETATM   24  N   UNL     1     -10.716  13.236  66.685  1.00  0.00    -0.279 N  
HETATM   25  H   UNL     1      -9.870  13.111  67.240  1.00  0.00     0.000 HD 
BRANCH  24  26
HETATM   26  N   UNL     1     -11.082  14.559  66.377  1.00  0.00    -0.324 NA 
HETATM   27  C   UNL     1     -11.643  15.327  67.484  1.00  0.00    -0.214 C  
HETATM   28  C   UNL     1     -10.612  16.174  68.220  1.00  0.00    -0.288 C  
HETATM   29  C   UNL     1      -9.925  17.124  67.246  1.00  0.00    -0.274 C  
HETATM   30  C   UNL     1      -9.275  16.340  66.113  1.00  0.00    -0.376 C  
HETATM   31  C   UNL     1     -10.220  15.316  65.467  1.00  0.00    -0.388 C  
ENDBRANCH  24  26
ENDBRANCH   4  22
TORSDOF 4
ENDMDL
MODEL       30
REMARK 921   NORMALIZED FREE ENERGY PREDICTED BY IDOCK:   -6.54 KCAL/MOL
REMARK 922        TOTAL FREE ENERGY PREDICTED BY IDOCK:   -8.96 KCAL/MOL
REMARK 923 INTER-LIGAND FREE ENERGY PREDICTED BY IDOCK:   -8.64 KCAL/MOL
REMARK 924 INTRA-LIGAND FREE ENERGY PREDICTED BY IDOCK:   -0.33 KCAL/MOL
REMARK 927      BINDING AFFINITY PREDICTED BY RF-SCORE:    0.00 PKD
ROOT
HETATM    1  C   UNL     1      -8.922  11.370  66.188  1.00  0.00    -0.207 C  
HETATM    2  C   UNL     1      -9.848  11.616  67.331  1.00  0.00    -0.197 A  
HETATM    3  C   UNL     1     -10.202  12.827  67.942  1.00  0.00    -0.229 A  
HETATM    4  C   UNL     1     -10.593  10.596  67.990  1.00  0.00    -0.211 A  
HETATM    5  N   UNL     1     -11.127  12.468  68.947  1.00  0.00    -0.256 NA 
HETATM    6  N   UNL     1     -11.424  11.133  68.894  1.00  0.00    -0.267 NA 
ENDROOT
BRANCH   3   7
HETATM    7  C   UNL     1      -9.754  14.193  67.561  1.00  0.00    -0.234 A  
HETATM    8  C   UNL     1     -10.353  14.845  66.464  1.00  0.00    -0.295 A  
HETATM    9  C   UNL     1      -8.353  16.176  67.852  1.00  0.00    -0.165 A  
HETATM   10  C   UNL     1      -8.763  14.898  68.263  1.00  0.00    -0.166 A  
HETATM   11  C   UNL     1      -9.997  16.148  66.094  1.00  0.00    -0.357 A  
HETATM   12 CL   UNL     1      -8.514  18.388  66.308  1.00  0.00    -0.259 Cl 
HETATM   13  C   UNL     1      -8.983  16.804  66.782  1.00  0.00    -0.240 A  
ENDBRANCH   3   7
BRANCH   5  14
HETATM   14  C   UNL     1     -11.851  13.237  69.917  1.00  0.00    -0.310 A  
HETATM   15  C   UNL     1     -11.933  14.633  69.692  1.00  0.00    -0.368 A  
HETATM   16  C   UNL     1     -13.066  14.958  71.787  1.00  0.00    -0.339 A  
HETATM   17  C   UNL     1     -13.052  13.582  72.002  1.00  0.00    -0.481 A  
HETATM   18 CL   UNL     1     -12.895  11.044  71.246  1.00  0.00    -0.513 Cl 
HETATM   19  C   UNL     1     -12.497  12.715  71.045  1.00  0.00    -0.260 A  
HETATM   20  C   UNL     1     -12.544  15.484  70.615  1.00  0.00    -0.493 A  
HETATM   21 CL   UNL     1     -13.782  16.005  72.950  1.00  0.00    -0.590 Cl 
ENDBRANCH   5  14
BRANCH   4  22
HETATM   22  C   UNL     1     -10.544   9.122  67.762  1.00  0.00    -0.227 C  
HETATM   23  O   UNL     1     -10.526   8.639  66.631  1.00  0.00    -0.277 OA 
HETATM   24  N   UNL     1     -10.505   8.399  68.946  1.00  0.00    -0.283 N  
HETATM   25  H   UNL     1     -10.562   8.934  69.812  1.00  0.00     0.000 HD 
BRANCH  24  26
HETATM   26  N   UNL     1     -10.394   7.002  69.069  1.00  0.00    -0.194 NA 
HETATM   27  C   UNL     1      -9.032   6.490  69.181  1.00  0.00    -0.130 C  
HETATM   28  C   UNL     1      -8.577   6.283  70.621  1.00  0.00    -0.139 C  
HETATM   29  C   UNL     1      -9.531   5.337  71.340  1.00  0.00    -0.194 C  
HETATM   30  C   UNL     1     -10.953   5.884  71.294  1.00  0.00    -0.325 C  
HETATM   31  C   UNL     1     -11.392   6.303  69.883  1.00  0.00    -0.434 C  
ENDBRANCH  24  26
ENDBRANCH   4  22
TORSDOF 4
ENDMDL
MODEL       31
REMARK 921   NORMALIZED FREE ENERGY PREDICTED BY IDOCK:   -6.54 KCAL/MOL
REMARK 922        TOTAL FREE ENERGY PREDICTED BY IDOCK:   -8.96 KCAL/MOL
REMARK 923 INTER-LIGAND FREE ENERGY PREDICTED BY IDOCK:   -8.58 KCAL/MOL
REMARK 924 INTRA-LIGAND FREE ENERGY PREDICTED BY IDOCK:   -0.38 KCAL/MOL
REMARK 927      BINDING AFFINITY PREDICTED BY RF-SCORE:    0.00 PKD
ROOT
HETATM    1  C   UNL     1     -12.063  15.253  70.214  1.00  0.00    -0.388 C  
HETATM    2  C   UNL     1     -11.283  14.389  69.282  1.00  0.00    -0.308 A  
HETATM    3  C   UNL     1     -11.197  12.990  69.230  1.00  0.00    -0.199 A  
HETATM    4  C   UNL     1     -10.490  14.884  68.206  1.00  0.00    -0.239 A  
HETATM    5  N   UNL     1     -10.343  12.721  68.139  1.00  0.00    -0.232 NA 
HETATM    6  N   UNL     1     -10.008  13.870  67.474  1.00  0.00    -0.237 NA 
ENDROOT
BRANCH   3   7
HETATM    7  C   UNL     1     -11.911  12.011  70.093  1.00  0.00    -0.383 A  
HETATM    8  C   UNL     1     -11.714  10.630  69.894  1.00  0.00    -0.395 A  
HETATM    9  C   UNL     1     -13.442  11.435  71.910  1.00  0.00    -0.280 A  
HETATM   10  C   UNL     1     -12.769  12.394  71.137  1.00  0.00    -0.336 A  
HETATM   11  C   UNL     1     -12.329   9.671  70.709  1.00  0.00    -0.279 A  
HETATM   12 CL   UNL     1     -13.994   8.906  72.686  1.00  0.00    -0.452 Cl 
HETATM   13  C   UNL     1     -13.206  10.080  71.707  1.00  0.00    -0.437 A  
ENDBRANCH   3   7
BRANCH   5  14
HETATM   14  C   UNL     1      -9.855  11.499  67.568  1.00  0.00    -0.190 A  
HETATM   15  C   UNL     1     -10.618  10.939  66.514  1.00  0.00    -0.295 A  
HETATM   16  C   UNL     1      -9.183   9.011  66.428  1.00  0.00    -0.188 A  
HETATM   17  C   UNL     1      -8.384   9.569  67.423  1.00  0.00    -0.125 A  
HETATM   18 CL   UNL     1      -7.414  11.570  68.870  1.00  0.00    -0.118 Cl 
HETATM   19  C   UNL     1      -8.683  10.836  67.954  1.00  0.00    -0.129 A  
HETATM   20  C   UNL     1     -10.279   9.710  65.943  1.00  0.00    -0.219 A  
HETATM   21 CL   UNL     1      -8.784   7.477  65.761  1.00  0.00    -0.163 Cl 
ENDBRANCH   5  14
BRANCH   4  22
HETATM   22  C   UNL     1     -10.199  16.304  67.851  1.00  0.00    -0.261 C  
HETATM   23  O   UNL     1     -10.692  16.840  66.860  1.00  0.00    -0.257 OA 
HETATM   24  N   UNL     1      -9.346  16.918  68.756  1.00  0.00    -0.262 N  
HETATM   25  H   UNL     1      -8.985  16.337  69.513  1.00  0.00     0.000 HD 
BRANCH  24  26
HETATM   26  N   UNL     1      -8.930  18.261  68.735  1.00  0.00    -0.267 NA 
HETATM   27  C   UNL     1      -7.877  18.575  67.774  1.00  0.00    -0.245 C  
HETATM   28  C   UNL     1      -8.406  19.102  66.445  1.00  0.00    -0.326 C  
HETATM   29  C   UNL     1      -9.261  20.342  66.677  1.00  0.00    -0.428 C  
HETATM   30  C   UNL     1     -10.408  20.023  67.628  1.00  0.00    -0.510 C  
HETATM   31  C   UNL     1      -9.950  19.299  68.903  1.00  0.00    -0.427 C  
ENDBRANCH  24  26
ENDBRANCH   4  22
TORSDOF 4
ENDMDL
MODEL       32
REMARK 921   NORMALIZED FREE ENERGY PREDICTED BY IDOCK:   -6.52 KCAL/MOL
REMARK 922        TOTAL FREE ENERGY PREDICTED BY IDOCK:   -8.94 KCAL/MOL
REMARK 923 INTER-LIGAND FREE ENERGY PREDICTED BY IDOCK:   -8.31 KCAL/MOL
REMARK 924 INTRA-LIGAND FREE ENERGY PREDICTED BY IDOCK:   -0.63 KCAL/MOL
REMARK 927      BINDING AFFINITY PREDICTED BY RF-SCORE:    0.00 PKD
ROOT
HETATM    1  C   UNL     1     -11.629  13.114  66.631  1.00  0.00    -0.403 C  
HETATM    2  C   UNL     1     -11.220  11.908  67.407  1.00  0.00    -0.366 A  
HETATM    3  C   UNL     1     -11.318  11.664  68.784  1.00  0.00    -0.264 A  
HETATM    4  C   UNL     1     -10.672  10.729  66.824  1.00  0.00    -0.231 A  
HETATM    5  N   UNL     1     -10.807  10.359  68.957  1.00  0.00    -0.220 NA 
HETATM    6  N   UNL     1     -10.516   9.776  67.753  1.00  0.00    -0.229 NA 
ENDROOT
BRANCH   3   7
HETATM    7  C   UNL     1     -11.902  12.559  69.819  1.00  0.00    -0.380 A  
HETATM    8  C   UNL     1     -11.662  13.947  69.758  1.00  0.00    -0.372 A  
HETATM    9  C   UNL     1     -13.227  12.972  71.832  1.00  0.00    -0.527 A  
HETATM   10  C   UNL     1     -12.718  12.094  70.863  1.00  0.00    -0.280 A  
HETATM   11  C   UNL     1     -12.226  14.835  70.683  1.00  0.00    -0.385 A  
HETATM   12 CL   UNL     1     -13.658  15.422  72.890  1.00  0.00    -0.601 Cl 
HETATM   13  C   UNL     1     -12.995  14.340  71.729  1.00  0.00    -0.354 A  
ENDBRANCH   3   7
BRANCH   5  14
HETATM   14  C   UNL     1     -10.630   9.533  70.116  1.00  0.00    -0.254 A  
HETATM   15  C   UNL     1     -11.774   8.844  70.589  1.00  0.00    -0.212 A  
HETATM   16  C   UNL     1     -10.552   8.004  72.482  1.00  0.00    -0.329 A  
HETATM   17  C   UNL     1      -9.399   8.624  72.005  1.00  0.00    -0.362 A  
HETATM   18 CL   UNL     1      -7.867   9.710  70.131  1.00  0.00    -0.167 Cl 
HETATM   19  C   UNL     1      -9.420   9.340  70.796  1.00  0.00    -0.271 A  
HETATM   20  C   UNL     1     -11.732   8.079  71.757  1.00  0.00    -0.335 A  
HETATM   21 CL   UNL     1     -10.503   7.100  73.944  1.00  0.00    -0.382 Cl 
ENDBRANCH   5  14
BRANCH   4  22
HETATM   22  C   UNL     1     -10.313  10.485  65.397  1.00  0.00    -0.222 C  
HETATM   23  O   UNL     1     -10.917  11.027  64.473  1.00  0.00    -0.270 OA 
HETATM   24  N   UNL     1      -9.241   9.616  65.256  1.00  0.00    -0.221 N  
HETATM   25  H   UNL     1      -8.861   9.214  66.112  1.00  0.00     0.000 HD 
BRANCH  24  26
HETATM   26  N   UNL     1      -8.626   9.234  64.050  1.00  0.00    -0.194 NA 
HETATM   27  C   UNL     1      -7.807  10.260  63.413  1.00  0.00    -0.136 C  
HETATM   28  C   UNL     1      -6.328  10.164  63.768  1.00  0.00    -0.131 C  
HETATM   29  C   UNL     1      -5.789   8.788  63.396  1.00  0.00    -0.077 C  
HETATM   30  C   UNL     1      -6.589   7.699  64.102  1.00  0.00    -0.052 C  
HETATM   31  C   UNL     1      -8.107   7.868  63.946  1.00  0.00    -0.082 C  
ENDBRANCH  24  26
ENDBRANCH   4  22
TORSDOF 4
ENDMDL
MODEL       33
REMARK 921   NORMALIZED FREE ENERGY PREDICTED BY IDOCK:   -6.50 KCAL/MOL
REMARK 922        TOTAL FREE ENERGY PREDICTED BY IDOCK:   -8.91 KCAL/MOL
REMARK 923 INTER-LIGAND FREE ENERGY PREDICTED BY IDOCK:   -7.62 KCAL/MOL
REMARK 924 INTRA-LIGAND FREE ENERGY PREDICTED BY IDOCK:   -1.29 KCAL/MOL
REMARK 927      BINDING AFFINITY PREDICTED BY RF-SCORE:    0.00 PKD
ROOT
HETATM    1  C   UNL     1      -9.986  10.121  65.782  1.00  0.00    -0.339 C  
HETATM    2  C   UNL     1     -10.136   9.675  67.198  1.00  0.00    -0.276 A  
HETATM    3  C   UNL     1     -10.130   8.376  67.725  1.00  0.00    -0.207 A  
HETATM    4  C   UNL     1     -10.276  10.561  68.305  1.00  0.00    -0.163 A  
HETATM    5  N   UNL     1     -10.284   8.550  69.117  1.00  0.00    -0.207 NA 
HETATM    6  N   UNL     1     -10.270   9.876  69.457  1.00  0.00    -0.209 NA 
ENDROOT
BRANCH   3   7
HETATM    7  C   UNL     1      -9.929   7.103  66.982  1.00  0.00    -0.283 A  
HETATM    8  C   UNL     1      -8.744   6.902  66.246  1.00  0.00    -0.149 A  
HETATM    9  C   UNL     1     -10.645   4.880  66.255  1.00  0.00    -0.307 A  
HETATM   10  C   UNL     1     -10.864   6.055  66.992  1.00  0.00    -0.413 A  
HETATM   11  C   UNL     1      -8.490   5.704  65.567  1.00  0.00    -0.146 A  
HETATM   12 CL   UNL     1      -9.163   3.243  64.696  1.00  0.00    -0.135 Cl 
HETATM   13  C   UNL     1      -9.453   4.701  65.561  1.00  0.00    -0.173 A  
ENDBRANCH   3   7
BRANCH   5  14
HETATM   14  C   UNL     1     -10.358   7.621  70.208  1.00  0.00    -0.214 A  
HETATM   15  C   UNL     1     -11.634   7.425  70.792  1.00  0.00    -0.317 A  
HETATM   16  C   UNL     1     -10.700   5.986  72.477  1.00  0.00    -0.227 A  
HETATM   17  C   UNL     1      -9.446   6.116  71.885  1.00  0.00    -0.160 A  
HETATM   18 CL   UNL     1      -7.790   6.642  69.879  1.00  0.00    -0.112 Cl 
HETATM   19  C   UNL     1      -9.281   6.885  70.719  1.00  0.00    -0.158 A  
HETATM   20  C   UNL     1     -11.804   6.607  71.911  1.00  0.00    -0.375 A  
HETATM   21 CL   UNL     1     -10.893   5.011  73.881  1.00  0.00    -0.353 Cl 
ENDBRANCH   5  14
BRANCH   4  22
HETATM   22  C   UNL     1     -10.395  12.048  68.288  1.00  0.00    -0.204 C  
HETATM   23  O   UNL     1      -9.407  12.779  68.240  1.00  0.00    -0.209 OA 
HETATM   24  N   UNL     1     -11.713  12.480  68.317  1.00  0.00    -0.327 N  
HETATM   25  H   UNL     1     -12.430  11.759  68.393  1.00  0.00     0.000 HD 
BRANCH  24  26
HETATM   26  N   UNL     1     -12.159  13.812  68.251  1.00  0.00    -0.343 NA 
HETATM   27  C   UNL     1     -12.098  14.555  69.506  1.00  0.00    -0.306 C  
HETATM   28  C   UNL     1     -10.825  15.377  69.665  1.00  0.00    -0.288 C  
HETATM   29  C   UNL     1     -10.680  16.347  68.499  1.00  0.00    -0.320 C  
HETATM   30  C   UNL     1     -10.675  15.588  67.177  1.00  0.00    -0.315 C  
HETATM   31  C   UNL     1     -11.833  14.587  67.051  1.00  0.00    -0.385 C  
ENDBRANCH  24  26
ENDBRANCH   4  22
TORSDOF 4
ENDMDL
MODEL       34
REMARK 921   NORMALIZED FREE ENERGY PREDICTED BY IDOCK:   -6.45 KCAL/MOL
REMARK 922        TOTAL FREE ENERGY PREDICTED BY IDOCK:   -8.85 KCAL/MOL
REMARK 923 INTER-LIGAND FREE ENERGY PREDICTED BY IDOCK:   -7.76 KCAL/MOL
REMARK 924 INTRA-LIGAND FREE ENERGY PREDICTED BY IDOCK:   -1.09 KCAL/MOL
REMARK 927      BINDING AFFINITY PREDICTED BY RF-SCORE:    0.00 PKD
ROOT
HETATM    1  C   UNL     1     -12.273  12.348  70.173  1.00  0.00    -0.303 C  
HETATM    2  C   UNL     1     -11.340  11.429  69.460  1.00  0.00    -0.357 A  
HETATM    3  C   UNL     1     -10.757  11.564  68.192  1.00  0.00    -0.205 A  
HETATM    4  C   UNL     1     -10.835  10.216  70.011  1.00  0.00    -0.307 A  
HETATM    5  N   UNL     1      -9.947  10.417  68.042  1.00  0.00    -0.153 NA 
HETATM    6  N   UNL     1      -9.929   9.669  69.188  1.00  0.00    -0.177 NA 
ENDROOT
BRANCH   3   7
HETATM    7  C   UNL     1     -10.906  12.705  67.249  1.00  0.00    -0.277 A  
HETATM    8  C   UNL     1     -11.978  12.720  66.334  1.00  0.00    -0.443 A  
HETATM    9  C   UNL     1     -10.198  14.848  66.309  1.00  0.00    -0.306 A  
HETATM   10  C   UNL     1     -10.034  13.805  67.234  1.00  0.00    -0.239 A  
HETATM   11  C   UNL     1     -12.186  13.792  65.458  1.00  0.00    -0.470 A  
HETATM   12 CL   UNL     1     -11.510  16.148  64.336  1.00  0.00    -0.364 Cl 
HETATM   13  C   UNL     1     -11.282  14.848  65.438  1.00  0.00    -0.359 A  
ENDBRANCH   3   7
BRANCH   5  14
HETATM   14  C   UNL     1      -9.099   9.961  66.979  1.00  0.00    -0.138 A  
HETATM   15  C   UNL     1      -7.958  10.749  66.691  1.00  0.00    -0.139 A  
HETATM   16  C   UNL     1      -7.401   9.352  64.814  1.00  0.00    -0.107 A  
HETATM   17  C   UNL     1      -8.484   8.528  65.114  1.00  0.00    -0.193 A  
HETATM   18 CL   UNL     1     -10.339   7.501  66.708  1.00  0.00    -0.357 Cl 
HETATM   19  C   UNL     1      -9.300   8.796  66.227  1.00  0.00    -0.222 A  
HETATM   20  C   UNL     1      -7.112  10.441  65.623  1.00  0.00    -0.142 A  
HETATM   21 CL   UNL     1      -6.389   8.991  63.471  1.00  0.00    -0.089 Cl 
ENDBRANCH   5  14
BRANCH   4  22
HETATM   22  C   UNL     1     -11.182   9.579  71.315  1.00  0.00    -0.382 C  
HETATM   23  O   UNL     1     -12.286   9.726  71.837  1.00  0.00    -0.375 OA 
HETATM   24  N   UNL     1     -10.144   8.817  71.831  1.00  0.00    -0.323 N  
HETATM   25  H   UNL     1      -9.270   8.816  71.305  1.00  0.00     0.000 HD 
BRANCH  24  26
HETATM   26  N   UNL     1     -10.176   8.046  73.007  1.00  0.00    -0.322 NA 
HETATM   27  C   UNL     1     -11.014   6.852  72.949  1.00  0.00    -0.281 C  
HETATM   28  C   UNL     1     -10.246   5.588  72.582  1.00  0.00    -0.222 C  
HETATM   29  C   UNL     1      -9.112   5.358  73.572  1.00  0.00    -0.128 C  
HETATM   30  C   UNL     1      -8.184   6.567  73.603  1.00  0.00    -0.119 C  
HETATM   31  C   UNL     1      -8.932   7.898  73.766  1.00  0.00    -0.261 C  
ENDBRANCH  24  26
ENDBRANCH   4  22
TORSDOF 4
ENDMDL
MODEL       35
REMARK 921   NORMALIZED FREE ENERGY PREDICTED BY IDOCK:   -6.43 KCAL/MOL
REMARK 922        TOTAL FREE ENERGY PREDICTED BY IDOCK:   -8.83 KCAL/MOL
REMARK 923 INTER-LIGAND FREE ENERGY PREDICTED BY IDOCK:   -7.60 KCAL/MOL
REMARK 924 INTRA-LIGAND FREE ENERGY PREDICTED BY IDOCK:   -1.23 KCAL/MOL
REMARK 927      BINDING AFFINITY PREDICTED BY RF-SCORE:    0.00 PKD
ROOT
HETATM    1  C   UNL     1      -9.765   9.965  65.477  1.00  0.00    -0.370 C  
HETATM    2  C   UNL     1      -9.940   9.874  66.955  1.00  0.00    -0.268 A  
HETATM    3  C   UNL     1      -9.957   8.740  67.779  1.00  0.00    -0.194 A  
HETATM    4  C   UNL     1     -10.085  11.002  67.814  1.00  0.00    -0.177 A  
HETATM    5  N   UNL     1     -10.129   9.246  69.086  1.00  0.00    -0.192 NA 
HETATM    6  N   UNL     1     -10.103  10.614  69.097  1.00  0.00    -0.215 NA 
ENDROOT
BRANCH   3   7
HETATM    7  C   UNL     1      -9.763   7.324  67.367  1.00  0.00    -0.191 A  
HETATM    8  C   UNL     1     -10.849   6.591  66.849  1.00  0.00    -0.427 A  
HETATM    9  C   UNL     1      -8.391   5.322  67.066  1.00  0.00    -0.107 A  
HETATM   10  C   UNL     1      -8.523   6.668  67.443  1.00  0.00    -0.120 A  
HETATM   11  C   UNL     1     -10.705   5.270  66.406  1.00  0.00    -0.290 A  
HETATM   12 CL   UNL     1      -9.302   3.000  66.028  1.00  0.00    -0.122 Cl 
HETATM   13  C   UNL     1      -9.475   4.634  66.533  1.00  0.00    -0.166 A  
ENDBRANCH   3   7
BRANCH   5  14
HETATM   14  C   UNL     1     -10.230   8.608  70.367  1.00  0.00    -0.193 A  
HETATM   15  C   UNL     1      -9.046   8.027  70.885  1.00  0.00    -0.161 A  
HETATM   16  C   UNL     1     -10.243   7.146  72.776  1.00  0.00    -0.209 A  
HETATM   17  C   UNL     1     -11.407   7.758  72.317  1.00  0.00    -0.374 A  
HETATM   18 CL   UNL     1     -12.777   9.545  70.914  1.00  0.00    -0.278 Cl 
HETATM   19  C   UNL     1     -11.392   8.536  71.146  1.00  0.00    -0.270 A  
HETATM   20  C   UNL     1      -9.052   7.311  72.084  1.00  0.00    -0.149 A  
HETATM   21 CL   UNL     1     -10.266   6.229  74.231  1.00  0.00    -0.341 Cl 
ENDBRANCH   5  14
BRANCH   4  22
HETATM   22  C   UNL     1     -10.185  12.443  67.438  1.00  0.00    -0.208 C  
HETATM   23  O   UNL     1      -9.199  13.098  67.107  1.00  0.00    -0.211 OA 
HETATM   24  N   UNL     1     -11.486  12.920  67.494  1.00  0.00    -0.314 N  
HETATM   25  H   UNL     1     -12.200  12.270  67.822  1.00  0.00     0.000 HD 
BRANCH  24  26
HETATM   26  N   UNL     1     -11.918  14.212  67.144  1.00  0.00    -0.421 NA 
HETATM   27  C   UNL     1     -11.647  15.252  68.131  1.00  0.00    -0.330 C  
HETATM   28  C   UNL     1     -10.353  16.015  67.869  1.00  0.00    -0.269 C  
HETATM   29  C   UNL     1     -10.385  16.637  66.479  1.00  0.00    -0.300 C  
HETATM   30  C   UNL     1     -10.603  15.560  65.423  1.00  0.00    -0.428 C  
HETATM   31  C   UNL     1     -11.779  14.628  65.746  1.00  0.00    -0.302 C  
ENDBRANCH  24  26
ENDBRANCH   4  22
TORSDOF 4
ENDMDL
MODEL       36
REMARK 921   NORMALIZED FREE ENERGY PREDICTED BY IDOCK:   -6.43 KCAL/MOL
REMARK 922        TOTAL FREE ENERGY PREDICTED BY IDOCK:   -8.82 KCAL/MOL
REMARK 923 INTER-LIGAND FREE ENERGY PREDICTED BY IDOCK:   -7.80 KCAL/MOL
REMARK 924 INTRA-LIGAND FREE ENERGY PREDICTED BY IDOCK:   -1.02 KCAL/MOL
REMARK 927      BINDING AFFINITY PREDICTED BY RF-SCORE:    0.00 PKD
ROOT
HETATM    1  C   UNL     1     -10.358  14.606  65.169  1.00  0.00    -0.431 C  
HETATM    2  C   UNL     1     -10.336  13.801  66.424  1.00  0.00    -0.290 A  
HETATM    3  C   UNL     1      -9.980  12.457  66.610  1.00  0.00    -0.225 A  
HETATM    4  C   UNL     1     -10.653  14.318  67.713  1.00  0.00    -0.253 A  
HETATM    5  N   UNL     1     -10.119  12.235  67.997  1.00  0.00    -0.200 NA 
HETATM    6  N   UNL     1     -10.429  13.394  68.657  1.00  0.00    -0.243 NA 
ENDROOT
BRANCH   3   7
HETATM    7  C   UNL     1      -9.492  11.503  65.578  1.00  0.00    -0.234 A  
HETATM    8  C   UNL     1      -8.194  10.964  65.682  1.00  0.00    -0.083 A  
HETATM    9  C   UNL     1      -9.767  10.197  63.529  1.00  0.00    -0.145 A  
HETATM   10  C   UNL     1     -10.278  11.080  64.494  1.00  0.00    -0.406 A  
HETATM   11  C   UNL     1      -7.706  10.029  64.761  1.00  0.00    -0.142 A  
HETATM   12 CL   UNL     1      -7.884   8.543  62.519  1.00  0.00    -0.134 Cl 
HETATM   13  C   UNL     1      -8.492   9.661  63.675  1.00  0.00    -0.188 A  
ENDBRANCH   3   7
BRANCH   5  14
HETATM   14  C   UNL     1      -9.913  11.078  68.819  1.00  0.00    -0.207 A  
HETATM   15  C   UNL     1     -11.040  10.251  69.050  1.00  0.00    -0.277 A  
HETATM   16  C   UNL     1      -9.779   8.859  70.552  1.00  0.00    -0.203 A  
HETATM   17  C   UNL     1      -8.642   9.622  70.294  1.00  0.00    -0.234 A  
HETATM   18 CL   UNL     1      -7.154  11.291  68.866  1.00  0.00    -0.096 Cl 
HETATM   19  C   UNL     1      -8.691  10.695  69.387  1.00  0.00    -0.023 A  
HETATM   20  C   UNL     1     -10.970   9.146  69.901  1.00  0.00    -0.218 A  
HETATM   21 CL   UNL     1      -9.696   7.526  71.635  1.00  0.00    -0.177 Cl 
ENDBRANCH   5  14
BRANCH   4  22
HETATM   22  C   UNL     1     -11.146  15.682  68.065  1.00  0.00    -0.335 C  
HETATM   23  O   UNL     1     -12.090  15.853  68.834  1.00  0.00    -0.315 OA 
HETATM   24  N   UNL     1     -10.419  16.689  67.449  1.00  0.00    -0.315 N  
HETATM   25  H   UNL     1      -9.684  16.397  66.806  1.00  0.00     0.000 HD 
BRANCH  24  26
HETATM   26  N   UNL     1     -10.595  18.074  67.622  1.00  0.00    -0.413 NA 
HETATM   27  C   UNL     1     -10.001  18.633  68.833  1.00  0.00    -0.354 C  
HETATM   28  C   UNL     1      -8.608  19.211  68.615  1.00  0.00    -0.396 C  
HETATM   29  C   UNL     1      -8.649  20.283  67.534  1.00  0.00    -0.389 C  
HETATM   30  C   UNL     1      -9.206  19.706  66.238  1.00  0.00    -0.437 C  
HETATM   31  C   UNL     1     -10.516  18.931  66.436  1.00  0.00    -0.439 C  
ENDBRANCH  24  26
ENDBRANCH   4  22
TORSDOF 4
ENDMDL
MODEL       37
REMARK 921   NORMALIZED FREE ENERGY PREDICTED BY IDOCK:   -6.40 KCAL/MOL
REMARK 922        TOTAL FREE ENERGY PREDICTED BY IDOCK:   -8.79 KCAL/MOL
REMARK 923 INTER-LIGAND FREE ENERGY PREDICTED BY IDOCK:   -8.03 KCAL/MOL
REMARK 924 INTRA-LIGAND FREE ENERGY PREDICTED BY IDOCK:   -0.75 KCAL/MOL
REMARK 927      BINDING AFFINITY PREDICTED BY RF-SCORE:    0.00 PKD
ROOT
HETATM    1  C   UNL     1     -10.411  14.535  65.174  1.00  0.00    -0.438 C  
HETATM    2  C   UNL     1     -10.365  13.772  66.455  1.00  0.00    -0.290 A  
HETATM    3  C   UNL     1      -9.994  12.440  66.682  1.00  0.00    -0.225 A  
HETATM    4  C   UNL     1     -10.673  14.331  67.729  1.00  0.00    -0.251 A  
HETATM    5  N   UNL     1     -10.114  12.264  68.077  1.00  0.00    -0.200 NA 
HETATM    6  N   UNL     1     -10.428  13.441  68.701  1.00  0.00    -0.243 NA 
ENDROOT
BRANCH   3   7
HETATM    7  C   UNL     1      -9.508  11.456  65.677  1.00  0.00    -0.253 A  
HETATM    8  C   UNL     1      -8.220  10.899  65.809  1.00  0.00    -0.113 A  
HETATM    9  C   UNL     1      -9.780  10.109  63.654  1.00  0.00    -0.168 A  
HETATM   10  C   UNL     1     -10.288  11.021  64.593  1.00  0.00    -0.410 A  
HETATM   11  C   UNL     1      -7.736   9.937  64.914  1.00  0.00    -0.134 A  
HETATM   12 CL   UNL     1      -7.910   8.405  62.703  1.00  0.00    -0.132 Cl 
HETATM   13  C   UNL     1      -8.515   9.557  63.827  1.00  0.00    -0.195 A  
ENDBRANCH   3   7
BRANCH   5  14
HETATM   14  C   UNL     1      -9.887  11.137  68.936  1.00  0.00    -0.162 A  
HETATM   15  C   UNL     1      -8.539  10.762  69.151  1.00  0.00    -0.097 A  
HETATM   16  C   UNL     1      -9.221   8.846  70.435  1.00  0.00    -0.194 A  
HETATM   17  C   UNL     1     -10.552   9.228  70.287  1.00  0.00    -0.278 A  
HETATM   18 CL   UNL     1     -12.505  10.961  69.817  1.00  0.00    -0.324 Cl 
HETATM   19  C   UNL     1     -10.886  10.402  69.588  1.00  0.00    -0.277 A  
HETATM   20  C   UNL     1      -8.209   9.631  69.902  1.00  0.00    -0.184 A  
HETATM   21 CL   UNL     1      -8.825   7.428  71.324  1.00  0.00    -0.137 Cl 
ENDBRANCH   5  14
BRANCH   4  22
HETATM   22  C   UNL     1     -11.175  15.700  68.041  1.00  0.00    -0.339 C  
HETATM   23  O   UNL     1     -12.107  15.889  68.821  1.00  0.00    -0.297 OA 
HETATM   24  N   UNL     1     -10.472  16.693  67.375  1.00  0.00    -0.315 N  
HETATM   25  H   UNL     1      -9.745  16.385  66.729  1.00  0.00     0.000 HD 
BRANCH  24  26
HETATM   26  N   UNL     1     -10.661  18.081  67.501  1.00  0.00    -0.403 NA 
HETATM   27  C   UNL     1     -10.121  18.678  68.719  1.00  0.00    -0.353 C  
HETATM   28  C   UNL     1      -8.722  19.257  68.543  1.00  0.00    -0.405 C  
HETATM   29  C   UNL     1      -8.723  20.298  67.430  1.00  0.00    -0.428 C  
HETATM   30  C   UNL     1      -9.222  19.681  66.129  1.00  0.00    -0.397 C  
HETATM   31  C   UNL     1     -10.536  18.904  66.295  1.00  0.00    -0.392 C  
ENDBRANCH  24  26
ENDBRANCH   4  22
TORSDOF 4
ENDMDL
MODEL       38
REMARK 921   NORMALIZED FREE ENERGY PREDICTED BY IDOCK:   -6.35 KCAL/MOL
REMARK 922        TOTAL FREE ENERGY PREDICTED BY IDOCK:   -8.73 KCAL/MOL
REMARK 923 INTER-LIGAND FREE ENERGY PREDICTED BY IDOCK:   -8.50 KCAL/MOL
REMARK 924 INTRA-LIGAND FREE ENERGY PREDICTED BY IDOCK:   -0.23 KCAL/MOL
REMARK 927      BINDING AFFINITY PREDICTED BY RF-SCORE:    0.00 PKD
ROOT
HETATM    1  C   UNL     1     -11.978  10.728  69.236  1.00  0.00    -0.334 C  
HETATM    2  C   UNL     1     -11.282  11.816  68.490  1.00  0.00    -0.306 A  
HETATM    3  C   UNL     1     -11.163  13.176  68.810  1.00  0.00    -0.281 A  
HETATM    4  C   UNL     1     -10.551  11.618  67.284  1.00  0.00    -0.228 A  
HETATM    5  N   UNL     1     -10.382  13.725  67.770  1.00  0.00    -0.238 NA 
HETATM    6  N   UNL     1      -9.940  12.752  66.915  1.00  0.00    -0.228 NA 
ENDROOT
BRANCH   3   7
HETATM    7  C   UNL     1     -11.686  13.866  70.020  1.00  0.00    -0.338 A  
HETATM    8  C   UNL     1     -11.189  15.138  70.369  1.00  0.00    -0.310 A  
HETATM    9  C   UNL     1     -13.133  13.997  71.987  1.00  0.00    -0.487 A  
HETATM   10  C   UNL     1     -12.688  13.321  70.839  1.00  0.00    -0.332 A  
HETATM   11  C   UNL     1     -11.680  15.846  71.473  1.00  0.00    -0.545 A  
HETATM   12 CL   UNL     1     -13.222  16.111  73.668  1.00  0.00    -0.581 Cl 
HETATM   13  C   UNL     1     -12.642  15.263  72.289  1.00  0.00    -0.357 A  
ENDBRANCH   3   7
BRANCH   5  14
HETATM   14  C   UNL     1      -9.911  15.054  67.510  1.00  0.00    -0.217 A  
HETATM   15  C   UNL     1     -10.727  15.871  66.690  1.00  0.00    -0.270 A  
HETATM   16  C   UNL     1      -9.090  17.632  66.720  1.00  0.00    -0.260 A  
HETATM   17  C   UNL     1      -8.296  16.871  67.576  1.00  0.00    -0.201 A  
HETATM   18 CL   UNL     1      -7.855  14.959  69.361  1.00  0.00    -0.168 Cl 
HETATM   19  C   UNL     1      -8.728  15.608  68.018  1.00  0.00    -0.167 A  
HETATM   20  C   UNL     1     -10.324  17.152  66.307  1.00  0.00    -0.315 A  
HETATM   21 CL   UNL     1      -8.567  19.191  66.217  1.00  0.00    -0.318 Cl 
ENDBRANCH   5  14
BRANCH   4  22
HETATM   22  C   UNL     1     -10.405  10.365  66.487  1.00  0.00    -0.224 C  
HETATM   23  O   UNL     1     -10.393  10.374  65.257  1.00  0.00    -0.284 OA 
HETATM   24  N   UNL     1     -10.276   9.236  67.283  1.00  0.00    -0.233 N  
HETATM   25  H   UNL     1     -10.341   9.376  68.291  1.00  0.00     0.000 HD 
BRANCH  24  26
HETATM   26  N   UNL     1     -10.063   7.919  66.839  1.00  0.00    -0.266 NA 
HETATM   27  C   UNL     1      -8.700   7.419  66.991  1.00  0.00    -0.123 C  
HETATM   28  C   UNL     1      -8.483   6.628  68.275  1.00  0.00    -0.120 C  
HETATM   29  C   UNL     1      -9.457   5.459  68.341  1.00  0.00    -0.153 C  
HETATM   30  C   UNL     1     -10.893   5.961  68.250  1.00  0.00    -0.325 C  
HETATM   31  C   UNL     1     -11.119   6.933  67.082  1.00  0.00    -0.292 C  
ENDBRANCH  24  26
ENDBRANCH   4  22
TORSDOF 4
ENDMDL
MODEL       39
REMARK 921   NORMALIZED FREE ENERGY PREDICTED BY IDOCK:   -6.33 KCAL/MOL
REMARK 922        TOTAL FREE ENERGY PREDICTED BY IDOCK:   -8.70 KCAL/MOL
REMARK 923 INTER-LIGAND FREE ENERGY PREDICTED BY IDOCK:   -7.96 KCAL/MOL
REMARK 924 INTRA-LIGAND FREE ENERGY PREDICTED BY IDOCK:   -0.74 KCAL/MOL
REMARK 927      BINDING AFFINITY PREDICTED BY RF-SCORE:    0.00 PKD
ROOT
HETATM    1  C   UNL     1     -10.604  10.392  66.100  1.00  0.00    -0.160 C  
HETATM    2  C   UNL     1     -10.654   9.961  67.526  1.00  0.00    -0.333 A  
HETATM    3  C   UNL     1     -10.324   8.721  68.091  1.00  0.00    -0.216 A  
HETATM    4  C   UNL     1     -11.030  10.811  68.606  1.00  0.00    -0.239 A  
HETATM    5  N   UNL     1     -10.535   8.887  69.477  1.00  0.00    -0.223 NA 
HETATM    6  N   UNL     1     -10.865  10.181  69.778  1.00  0.00    -0.259 NA 
ENDROOT
BRANCH   3   7
HETATM    7  C   UNL     1      -9.796   7.522  67.386  1.00  0.00    -0.221 A  
HETATM    8  C   UNL     1     -10.679   6.498  66.991  1.00  0.00    -0.434 A  
HETATM    9  C   UNL     1      -7.981   6.200  66.418  1.00  0.00    -0.106 A  
HETATM   10  C   UNL     1      -8.439   7.361  67.062  1.00  0.00    -0.118 A  
HETATM   11  C   UNL     1     -10.237   5.371  66.286  1.00  0.00    -0.234 A  
HETATM   12 CL   UNL     1      -8.327   3.820  65.185  1.00  0.00    -0.100 Cl 
HETATM   13  C   UNL     1      -8.882   5.220  66.016  1.00  0.00    -0.141 A  
ENDBRANCH   3   7
BRANCH   5  14
HETATM   14  C   UNL     1     -10.385   8.000  70.594  1.00  0.00    -0.202 A  
HETATM   15  C   UNL     1     -11.357   6.979  70.734  1.00  0.00    -0.339 A  
HETATM   16  C   UNL     1     -10.386   6.264  72.814  1.00  0.00    -0.197 A  
HETATM   17  C   UNL     1      -9.385   7.221  72.668  1.00  0.00    -0.176 A  
HETATM   18 CL   UNL     1      -7.860   8.898  71.289  1.00  0.00    -0.172 Cl 
HETATM   19  C   UNL     1      -9.347   8.051  71.534  1.00  0.00    -0.153 A  
HETATM   20  C   UNL     1     -11.352   6.114  71.829  1.00  0.00    -0.346 A  
HETATM   21 CL   UNL     1     -10.398   5.230  74.188  1.00  0.00    -0.281 Cl 
ENDBRANCH   5  14
BRANCH   4  22
HETATM   22  C   UNL     1     -11.524  12.218  68.546  1.00  0.00    -0.303 C  
HETATM   23  O   UNL     1     -11.775  12.863  69.563  1.00  0.00    -0.303 OA 
HETATM   24  N   UNL     1     -11.644  12.687  67.246  1.00  0.00    -0.344 N  
HETATM   25  H   UNL     1     -11.435  12.026  66.499  1.00  0.00     0.000 HD 
BRANCH  24  26
HETATM   26  N   UNL     1     -12.024  13.984  66.857  1.00  0.00    -0.430 NA 
HETATM   27  C   UNL     1     -10.993  15.008  66.998  1.00  0.00    -0.318 C  
HETATM   28  C   UNL     1     -10.204  15.254  65.717  1.00  0.00    -0.372 C  
HETATM   29  C   UNL     1     -11.148  15.644  64.588  1.00  0.00    -0.387 C  
HETATM   30  C   UNL     1     -12.198  14.559  64.377  1.00  0.00    -0.480 C  
HETATM   31  C   UNL     1     -12.885  14.124  65.680  1.00  0.00    -0.371 C  
ENDBRANCH  24  26
ENDBRANCH   4  22
TORSDOF 4
ENDMDL
MODEL       40
REMARK 921   NORMALIZED FREE ENERGY PREDICTED BY IDOCK:   -6.30 KCAL/MOL
REMARK 922        TOTAL FREE ENERGY PREDICTED BY IDOCK:   -8.66 KCAL/MOL
REMARK 923 INTER-LIGAND FREE ENERGY PREDICTED BY IDOCK:   -8.48 KCAL/MOL
REMARK 924 INTRA-LIGAND FREE ENERGY PREDICTED BY IDOCK:   -0.18 KCAL/MOL
REMARK 927      BINDING AFFINITY PREDICTED BY RF-SCORE:    0.00 PKD
ROOT
HETATM    1  C   UNL     1      -9.649   9.787  66.496  1.00  0.00    -0.249 C  
HETATM    2  C   UNL     1     -10.298  10.279  67.746  1.00  0.00    -0.246 A  
HETATM    3  C   UNL     1     -10.916  11.511  67.999  1.00  0.00    -0.231 A  
HETATM    4  C   UNL     1     -10.433   9.505  68.935  1.00  0.00    -0.216 A  
HETATM    5  N   UNL     1     -11.374  11.419  69.332  1.00  0.00    -0.274 NA 
HETATM    6  N   UNL     1     -11.162  10.168  69.844  1.00  0.00    -0.270 NA 
ENDROOT
BRANCH   3   7
HETATM    7  C   UNL     1     -11.109  12.636  67.044  1.00  0.00    -0.322 A  
HETATM    8  C   UNL     1     -10.069  13.565  66.839  1.00  0.00    -0.256 A  
HETATM    9  C   UNL     1     -12.434  13.905  65.428  1.00  0.00    -0.528 A  
HETATM   10  C   UNL     1     -12.286  12.814  66.299  1.00  0.00    -0.289 A  
HETATM   11  C   UNL     1     -10.186  14.613  65.919  1.00  0.00    -0.344 A  
HETATM   12 CL   UNL     1     -11.543  16.098  64.124  1.00  0.00    -0.210 Cl 
HETATM   13  C   UNL     1     -11.379  14.789  65.226  1.00  0.00    -0.363 A  
ENDBRANCH   3   7
BRANCH   5  14
HETATM   14  C   UNL     1     -12.076  12.337  70.181  1.00  0.00    -0.287 A  
HETATM   15  C   UNL     1     -12.007  13.708  69.833  1.00  0.00    -0.415 A  
HETATM   16  C   UNL     1     -13.225  14.327  71.812  1.00  0.00    -0.367 A  
HETATM   17  C   UNL     1     -13.358  12.981  72.144  1.00  0.00    -0.622 A  
HETATM   18 CL   UNL     1     -13.406  10.381  71.619  1.00  0.00    -0.458 Cl 
HETATM   19  C   UNL     1     -12.835  11.982  71.304  1.00  0.00    -0.265 A  
HETATM   20  C   UNL     1     -12.585  14.693  70.637  1.00  0.00    -0.419 A  
HETATM   21 CL   UNL     1     -13.902  15.537  72.830  1.00  0.00    -0.618 Cl 
ENDBRANCH   5  14
BRANCH   4  22
HETATM   22  C   UNL     1      -9.900   8.140  69.215  1.00  0.00    -0.182 C  
HETATM   23  O   UNL     1      -9.451   7.831  70.317  1.00  0.00    -0.160 OA 
HETATM   24  N   UNL     1      -9.990   7.296  68.118  1.00  0.00    -0.153 N  
HETATM   25  H   UNL     1     -10.352   7.701  67.255  1.00  0.00     0.000 HD 
BRANCH  24  26
HETATM   26  N   UNL     1      -9.630   5.937  68.077  1.00  0.00    -0.114 NA 
HETATM   27  C   UNL     1     -10.654   5.034  67.560  1.00  0.00     0.054 C  
HETATM   28  C   UNL     1     -10.508   4.737  66.072  1.00  0.00    -0.332 C  
HETATM   29  C   UNL     1      -9.131   4.150  65.789  1.00  0.00    -0.136 C  
HETATM   30  C   UNL     1      -8.041   5.105  66.261  1.00  0.00    -0.108 C  
HETATM   31  C   UNL     1      -8.255   5.601  67.699  1.00  0.00    -0.101 C  
ENDBRANCH  24  26
ENDBRANCH   4  22
TORSDOF 4
ENDMDL
MODEL       41
REMARK 921   NORMALIZED FREE ENERGY PREDICTED BY IDOCK:   -6.29 KCAL/MOL
REMARK 922        TOTAL FREE ENERGY PREDICTED BY IDOCK:   -8.65 KCAL/MOL
REMARK 923 INTER-LIGAND FREE ENERGY PREDICTED BY IDOCK:   -8.26 KCAL/MOL
REMARK 924 INTRA-LIGAND FREE ENERGY PREDICTED BY IDOCK:   -0.39 KCAL/MOL
REMARK 927      BINDING AFFINITY PREDICTED BY RF-SCORE:    0.00 PKD
ROOT
HETATM    1  C   UNL     1     -12.296  10.022  70.674  1.00  0.00    -0.342 C  
HETATM    2  C   UNL     1     -11.655  10.906  69.658  1.00  0.00    -0.394 A  
HETATM    3  C   UNL     1     -11.651  12.306  69.576  1.00  0.00    -0.298 A  
HETATM    4  C   UNL     1     -10.863  10.434  68.572  1.00  0.00    -0.237 A  
HETATM    5  N   UNL     1     -10.873  12.599  68.435  1.00  0.00    -0.235 NA 
HETATM    6  N   UNL     1     -10.325  11.463  67.903  1.00  0.00    -0.178 NA 
ENDROOT
BRANCH   3   7
HETATM    7  C   UNL     1     -12.272  13.266  70.528  1.00  0.00    -0.416 A  
HETATM    8  C   UNL     1     -12.098  14.652  70.337  1.00  0.00    -0.383 A  
HETATM    9  C   UNL     1     -13.606  13.803  72.505  1.00  0.00    -0.680 A  
HETATM   10  C   UNL     1     -13.061  12.862  71.617  1.00  0.00    -0.430 A  
HETATM   11  C   UNL     1     -12.699  15.595  71.180  1.00  0.00    -0.525 A  
HETATM   12 CL   UNL     1     -14.147  16.317  73.335  1.00  0.00     0.138 Cl 
HETATM   13  C   UNL     1     -13.440  15.164  72.274  1.00  0.00    -0.437 A  
ENDBRANCH   3   7
BRANCH   5  14
HETATM   14  C   UNL     1     -10.493  13.833  67.811  1.00  0.00    -0.240 A  
HETATM   15  C   UNL     1      -9.233  14.369  68.173  1.00  0.00    -0.199 A  
HETATM   16  C   UNL     1      -9.630  16.337  66.850  1.00  0.00    -0.232 A  
HETATM   17  C   UNL     1     -10.847  15.804  66.433  1.00  0.00    -0.226 A  
HETATM   18 CL   UNL     1     -12.566  13.835  65.976  1.00  0.00    -0.485 Cl 
HETATM   19  C   UNL     1     -11.256  14.530  66.865  1.00  0.00    -0.336 A  
HETATM   20  C   UNL     1      -8.802  15.606  67.689  1.00  0.00    -0.181 A  
HETATM   21 CL   UNL     1      -9.125  17.881  66.283  1.00  0.00    -0.241 Cl 
ENDBRANCH   5  14
BRANCH   4  22
HETATM   22  C   UNL     1     -10.592   9.023  68.171  1.00  0.00    -0.171 C  
HETATM   23  O   UNL     1     -10.873   8.600  67.051  1.00  0.00    -0.197 OA 
HETATM   24  N   UNL     1      -9.993   8.285  69.181  1.00  0.00    -0.190 N  
HETATM   25  H   UNL     1      -9.853   8.758  70.074  1.00  0.00     0.000 HD 
BRANCH  24  26
HETATM   26  N   UNL     1      -9.559   6.950  69.098  1.00  0.00    -0.145 NA 
HETATM   27  C   UNL     1      -8.227   6.690  69.635  1.00  0.00    -0.127 C  
HETATM   28  C   UNL     1      -8.238   6.208  71.081  1.00  0.00    -0.123 C  
HETATM   29  C   UNL     1      -9.085   4.949  71.206  1.00  0.00    -0.179 C  
HETATM   30  C   UNL     1     -10.503   5.213  70.712  1.00  0.00    -0.263 C  
HETATM   31  C   UNL     1     -10.544   5.891  69.335  1.00  0.00    -0.309 C  
ENDBRANCH  24  26
ENDBRANCH   4  22
TORSDOF 4
ENDMDL
MODEL       42
REMARK 921   NORMALIZED FREE ENERGY PREDICTED BY IDOCK:   -6.21 KCAL/MOL
REMARK 922        TOTAL FREE ENERGY PREDICTED BY IDOCK:   -8.55 KCAL/MOL
REMARK 923 INTER-LIGAND FREE ENERGY PREDICTED BY IDOCK:   -7.32 KCAL/MOL
REMARK 924 INTRA-LIGAND FREE ENERGY PREDICTED BY IDOCK:   -1.24 KCAL/MOL
REMARK 927      BINDING AFFINITY PREDICTED BY RF-SCORE:    0.00 PKD
ROOT
HETATM    1  C   UNL     1      -9.566  10.656  65.769  1.00  0.00    -0.258 C  
HETATM    2  C   UNL     1      -9.790  10.532  67.238  1.00  0.00    -0.209 A  
HETATM    3  C   UNL     1      -9.861   9.378  68.031  1.00  0.00    -0.164 A  
HETATM    4  C   UNL     1      -9.932  11.641  68.122  1.00  0.00    -0.195 A  
HETATM    5  N   UNL     1     -10.060   9.854  69.345  1.00  0.00    -0.198 NA 
HETATM    6  N   UNL     1     -10.000  11.221  69.393  1.00  0.00     0.056 NA 
ENDROOT
BRANCH   3   7
HETATM    7  C   UNL     1      -9.690   7.968  67.588  1.00  0.00    -0.198 A  
HETATM    8  C   UNL     1     -10.815   7.125  67.489  1.00  0.00    -0.311 A  
HETATM    9  C   UNL     1      -8.327   6.080  66.841  1.00  0.00    -0.105 A  
HETATM   10  C   UNL     1      -8.446   7.424  67.230  1.00  0.00    -0.118 A  
HETATM   11  C   UNL     1     -10.711   5.805  67.034  1.00  0.00    -0.369 A  
HETATM   12 CL   UNL     1      -9.321   3.649  66.205  1.00  0.00    -0.181 Cl 
HETATM   13  C   UNL     1      -9.460   5.281  66.727  1.00  0.00    -0.140 A  
ENDBRANCH   3   7
BRANCH   5  14
HETATM   14  C   UNL     1     -10.217   9.187  70.605  1.00  0.00    -0.246 A  
HETATM   15  C   UNL     1      -9.040   8.682  71.210  1.00  0.00    -0.272 A  
HETATM   16  C   UNL     1     -10.317   7.682  72.986  1.00  0.00    -0.335 A  
HETATM   17  C   UNL     1     -11.482   8.219  72.442  1.00  0.00    -0.463 A  
HETATM   18 CL   UNL     1     -12.861   9.929  70.955  1.00  0.00    -0.421 Cl 
HETATM   19  C   UNL     1     -11.430   9.017  71.286  1.00  0.00    -0.320 A  
HETATM   20  C   UNL     1      -9.089   7.944  72.395  1.00  0.00    -0.229 A  
HETATM   21 CL   UNL     1     -10.390   6.738  74.421  1.00  0.00    -0.275 Cl 
ENDBRANCH   5  14
BRANCH   4  22
HETATM   22  C   UNL     1      -9.983  13.093  67.782  1.00  0.00    -0.227 C  
HETATM   23  O   UNL     1     -10.890  13.569  67.101  1.00  0.00    -0.279 OA 
HETATM   24  N   UNL     1      -8.926  13.808  68.326  1.00  0.00    -0.185 N  
HETATM   25  H   UNL     1      -8.227  13.272  68.840  1.00  0.00     0.000 HD 
BRANCH  24  26
HETATM   26  N   UNL     1      -8.724  15.197  68.240  1.00  0.00    -0.166 NA 
HETATM   27  C   UNL     1      -8.232  15.678  66.952  1.00  0.00    -0.253 C  
HETATM   28  C   UNL     1      -9.339  16.154  66.019  1.00  0.00    -0.368 C  
HETATM   29  C   UNL     1     -10.152  17.254  66.690  1.00  0.00    -0.302 C  
HETATM   30  C   UNL     1     -10.732  16.754  68.008  1.00  0.00    -0.355 C  
HETATM   31  C   UNL     1      -9.688  16.075  68.907  1.00  0.00    -0.232 C  
ENDBRANCH  24  26
ENDBRANCH   4  22
TORSDOF 4
ENDMDL
MODEL       43
REMARK 921   NORMALIZED FREE ENERGY PREDICTED BY IDOCK:   -6.18 KCAL/MOL
REMARK 922        TOTAL FREE ENERGY PREDICTED BY IDOCK:   -8.52 KCAL/MOL
REMARK 923 INTER-LIGAND FREE ENERGY PREDICTED BY IDOCK:   -7.59 KCAL/MOL
REMARK 924 INTRA-LIGAND FREE ENERGY PREDICTED BY IDOCK:   -0.93 KCAL/MOL
REMARK 927      BINDING AFFINITY PREDICTED BY RF-SCORE:    0.00 PKD
ROOT
HETATM    1  C   UNL     1     -12.098  10.667  70.985  1.00  0.00    -0.473 C  
HETATM    2  C   UNL     1     -11.515   9.963  69.807  1.00  0.00    -0.194 A  
HETATM    3  C   UNL     1     -11.026   8.653  69.708  1.00  0.00    -0.127 A  
HETATM    4  C   UNL     1     -11.398  10.539  68.509  1.00  0.00    -0.257 A  
HETATM    5  N   UNL     1     -10.625   8.517  68.361  1.00  0.00    -0.160 NA 
HETATM    6  N   UNL     1     -10.949   9.630  67.632  1.00  0.00    -0.214 NA 
ENDROOT
BRANCH   3   7
HETATM    7  C   UNL     1     -11.006   7.616  70.775  1.00  0.00    -0.262 A  
HETATM    8  C   UNL     1      -9.775   7.190  71.314  1.00  0.00    -0.170 A  
HETATM    9  C   UNL     1     -12.106   6.047  72.295  1.00  0.00    -0.196 A  
HETATM   10  C   UNL     1     -12.172   7.042  71.306  1.00  0.00    -0.419 A  
HETATM   11  C   UNL     1      -9.708   6.250  72.349  1.00  0.00    -0.162 A  
HETATM   12 CL   UNL     1     -10.798   4.484  74.070  1.00  0.00    -0.334 Cl 
HETATM   13  C   UNL     1     -10.877   5.668  72.825  1.00  0.00    -0.261 A  
ENDBRANCH   3   7
BRANCH   5  14
HETATM   14  C   UNL     1     -10.044   7.431  67.628  1.00  0.00    -0.186 A  
HETATM   15  C   UNL     1     -10.940   6.487  67.070  1.00  0.00    -0.466 A  
HETATM   16  C   UNL     1      -9.113   5.122  66.308  1.00  0.00    -0.136 A  
HETATM   17  C   UNL     1      -8.212   6.066  66.795  1.00  0.00    -0.106 A  
HETATM   18 CL   UNL     1      -7.485   8.487  67.598  1.00  0.00    -0.092 Cl 
HETATM   19  C   UNL     1      -8.673   7.246  67.404  1.00  0.00    -0.121 A  
HETATM   20  C   UNL     1     -10.478   5.347  66.407  1.00  0.00    -0.324 A  
HETATM   21 CL   UNL     1      -8.536   3.700  65.531  1.00  0.00    -0.108 Cl 
ENDBRANCH   5  14
BRANCH   4  22
HETATM   22  C   UNL     1     -11.724  11.931  68.082  1.00  0.00    -0.320 C  
HETATM   23  O   UNL     1     -12.074  12.194  66.933  1.00  0.00    -0.600 OA 
HETATM   24  N   UNL     1     -11.602  12.849  69.115  1.00  0.00    -0.304 N  
HETATM   25  H   UNL     1     -11.266  12.492  70.009  1.00  0.00     0.000 HD 
BRANCH  24  26
HETATM   26  N   UNL     1     -11.894  14.223  69.052  1.00  0.00    -0.320 NA 
HETATM   27  C   UNL     1     -12.738  14.734  70.128  1.00  0.00    -0.219 C  
HETATM   28  C   UNL     1     -11.949  15.332  71.286  1.00  0.00    -0.409 C  
HETATM   29  C   UNL     1     -11.045  16.450  70.782  1.00  0.00    -0.128 C  
HETATM   30  C   UNL     1     -10.108  15.926  69.701  1.00  0.00    -0.271 C  
HETATM   31  C   UNL     1     -10.835  15.131  68.606  1.00  0.00    -0.245 C  
ENDBRANCH  24  26
ENDBRANCH   4  22
TORSDOF 4
ENDMDL
MODEL       44
REMARK 921   NORMALIZED FREE ENERGY PREDICTED BY IDOCK:   -6.05 KCAL/MOL
REMARK 922        TOTAL FREE ENERGY PREDICTED BY IDOCK:   -8.36 KCAL/MOL
REMARK 923 INTER-LIGAND FREE ENERGY PREDICTED BY IDOCK:   -7.01 KCAL/MOL
REMARK 924 INTRA-LIGAND FREE ENERGY PREDICTED BY IDOCK:   -1.35 KCAL/MOL
REMARK 927      BINDING AFFINITY PREDICTED BY RF-SCORE:    0.00 PKD
ROOT
HETATM    1  C   UNL     1     -12.460  11.694  70.634  1.00  0.00    -0.386 C  
HETATM    2  C   UNL     1     -11.469  10.837  69.921  1.00  0.00    -0.398 A  
HETATM    3  C   UNL     1     -10.717  11.119  68.771  1.00  0.00    -0.199 A  
HETATM    4  C   UNL     1     -11.079   9.536  70.352  1.00  0.00    -0.277 A  
HETATM    5  N   UNL     1      -9.930   9.965  68.563  1.00  0.00    -0.155 NA 
HETATM    6  N   UNL     1     -10.089   9.065  69.582  1.00  0.00    -0.190 NA 
ENDROOT
BRANCH   3   7
HETATM    7  C   UNL     1     -10.703  12.385  67.992  1.00  0.00    -0.247 A  
HETATM    8  C   UNL     1     -11.428  12.473  66.786  1.00  0.00    -0.422 A  
HETATM    9  C   UNL     1     -10.007  14.701  67.630  1.00  0.00    -0.227 A  
HETATM   10  C   UNL     1     -10.013  13.535  68.411  1.00  0.00    -0.232 A  
HETATM   11  C   UNL     1     -11.482  13.656  66.040  1.00  0.00    -0.340 A  
HETATM   12 CL   UNL     1     -10.785  16.209  65.526  1.00  0.00    -0.373 Cl 
HETATM   13  C   UNL     1     -10.755  14.765  66.458  1.00  0.00    -0.319 A  
ENDBRANCH   3   7
BRANCH   5  14
HETATM   14  C   UNL     1      -8.961   9.620  67.563  1.00  0.00    -0.128 A  
HETATM   15  C   UNL     1      -9.443   8.940  66.417  1.00  0.00    -0.283 A  
HETATM   16  C   UNL     1      -7.210   8.685  65.563  1.00  0.00    -0.084 A  
HETATM   17  C   UNL     1      -6.718   9.403  66.651  1.00  0.00    -0.072 A  
HETATM   18 CL   UNL     1      -6.909  11.106  68.676  1.00  0.00    -0.064 Cl 
HETATM   19  C   UNL     1      -7.594   9.920  67.622  1.00  0.00    -0.091 A  
HETATM   20  C   UNL     1      -8.576   8.485  65.422  1.00  0.00    -0.202 A  
HETATM   21 CL   UNL     1      -6.131   8.090  64.364  1.00  0.00    -0.056 Cl 
ENDBRANCH   5  14
BRANCH   4  22
HETATM   22  C   UNL     1     -11.618   8.742  71.495  1.00  0.00    -0.303 C  
HETATM   23  O   UNL     1     -12.780   8.860  71.878  1.00  0.00    -0.328 OA 
HETATM   24  N   UNL     1     -10.677   7.876  72.034  1.00  0.00    -0.227 N  
HETATM   25  H   UNL     1      -9.739   7.912  71.636  1.00  0.00     0.000 HD 
BRANCH  24  26
HETATM   26  N   UNL     1     -10.889   6.954  73.075  1.00  0.00    -0.284 NA 
HETATM   27  C   UNL     1     -11.388   5.646  72.661  1.00  0.00    -0.305 C  
HETATM   28  C   UNL     1     -10.286   4.611  72.465  1.00  0.00    -0.259 C  
HETATM   29  C   UNL     1      -9.478   4.458  73.747  1.00  0.00    -0.128 C  
HETATM   30  C   UNL     1      -8.892   5.801  74.166  1.00  0.00    -0.122 C  
HETATM   31  C   UNL     1      -9.929   6.934  74.181  1.00  0.00    -0.316 C  
ENDBRANCH  24  26
ENDBRANCH   4  22
TORSDOF 4
ENDMDL
MODEL       45
REMARK 921   NORMALIZED FREE ENERGY PREDICTED BY IDOCK:   -6.03 KCAL/MOL
REMARK 922        TOTAL FREE ENERGY PREDICTED BY IDOCK:   -8.34 KCAL/MOL
REMARK 923 INTER-LIGAND FREE ENERGY PREDICTED BY IDOCK:   -7.90 KCAL/MOL
REMARK 924 INTRA-LIGAND FREE ENERGY PREDICTED BY IDOCK:   -0.43 KCAL/MOL
REMARK 927      BINDING AFFINITY PREDICTED BY RF-SCORE:    0.00 PKD
ROOT
HETATM    1  C   UNL     1      -8.954   9.917  66.864  1.00  0.00    -0.154 C  
HETATM    2  C   UNL     1      -9.740  10.395  68.038  1.00  0.00    -0.166 A  
HETATM    3  C   UNL     1     -10.530  11.546  68.168  1.00  0.00    -0.193 A  
HETATM    4  C   UNL     1      -9.846   9.688  69.270  1.00  0.00    -0.189 A  
HETATM    5  N   UNL     1     -11.054  11.478  69.477  1.00  0.00    -0.226 NA 
HETATM    6  N   UNL     1     -10.711  10.303  70.089  1.00  0.00    -0.289 NA 
ENDROOT
BRANCH   3   7
HETATM    7  C   UNL     1     -10.809  12.570  67.126  1.00  0.00    -0.282 A  
HETATM    8  C   UNL     1      -9.974  13.700  67.014  1.00  0.00    -0.248 A  
HETATM    9  C   UNL     1     -12.108  13.464  65.257  1.00  0.00    -0.446 A  
HETATM   10  C   UNL     1     -11.866  12.460  66.208  1.00  0.00    -0.431 A  
HETATM   11  C   UNL     1     -10.169  14.668  66.021  1.00  0.00    -0.326 A  
HETATM   12 CL   UNL     1     -11.517  15.759  63.958  1.00  0.00    -0.090 Cl 
HETATM   13  C   UNL     1     -11.249  14.553  65.154  1.00  0.00    -0.367 A  
ENDBRANCH   3   7
BRANCH   5  14
HETATM   14  C   UNL     1     -11.924  12.344  70.219  1.00  0.00    -0.289 A  
HETATM   15  C   UNL     1     -11.981  13.698  69.805  1.00  0.00    -0.404 A  
HETATM   16  C   UNL     1     -13.422  14.257  71.647  1.00  0.00    -0.376 A  
HETATM   17  C   UNL     1     -13.429  12.921  72.040  1.00  0.00    -0.568 A  
HETATM   18 CL   UNL     1     -13.139  10.312  71.653  1.00  0.00    -0.528 Cl 
HETATM   19  C   UNL     1     -12.729  11.953  71.297  1.00  0.00    -0.298 A  
HETATM   20  C   UNL     1     -12.731  14.643  70.507  1.00  0.00    -0.394 A  
HETATM   21 CL   UNL     1     -14.313  15.424  72.543  1.00  0.00    -0.496 Cl 
ENDBRANCH   5  14
BRANCH   4  22
HETATM   22  C   UNL     1      -9.156   8.429  69.676  1.00  0.00    -0.153 C  
HETATM   23  O   UNL     1      -8.880   7.549  68.864  1.00  0.00    -0.135 OA 
HETATM   24  N   UNL     1      -8.864   8.393  71.032  1.00  0.00    -0.148 N  
HETATM   25  H   UNL     1      -9.186   9.181  71.592  1.00  0.00     0.000 HD 
BRANCH  24  26
HETATM   26  N   UNL     1      -8.168   7.376  71.710  1.00  0.00    -0.102 NA 
HETATM   27  C   UNL     1      -6.746   7.626  71.925  1.00  0.00    -0.054 C  
HETATM   28  C   UNL     1      -6.436   8.238  73.286  1.00  0.00    -0.116 C  
HETATM   29  C   UNL     1      -6.961   7.337  74.396  1.00  0.00    -0.101 C  
HETATM   30  C   UNL     1      -8.459   7.112  74.231  1.00  0.00    -0.214 C  
HETATM   31  C   UNL     1      -8.853   6.689  72.809  1.00  0.00    -0.122 C  
ENDBRANCH  24  26
ENDBRANCH   4  22
TORSDOF 4
ENDMDL
MODEL       46
REMARK 921   NORMALIZED FREE ENERGY PREDICTED BY IDOCK:   -6.00 KCAL/MOL
REMARK 922        TOTAL FREE ENERGY PREDICTED BY IDOCK:   -8.30 KCAL/MOL
REMARK 923 INTER-LIGAND FREE ENERGY PREDICTED BY IDOCK:   -7.35 KCAL/MOL
REMARK 924 INTRA-LIGAND FREE ENERGY PREDICTED BY IDOCK:   -0.95 KCAL/MOL
REMARK 927      BINDING AFFINITY PREDICTED BY RF-SCORE:    0.00 PKD
ROOT
HETATM    1  C   UNL     1     -12.077  10.481  69.691  1.00  0.00    -0.241 C  
HETATM    2  C   UNL     1     -11.214  10.762  68.508  1.00  0.00    -0.340 A  
HETATM    3  C   UNL     1     -10.356   9.900  67.810  1.00  0.00    -0.221 A  
HETATM    4  C   UNL     1     -11.159  12.018  67.838  1.00  0.00    -0.236 A  
HETATM    5  N   UNL     1      -9.818  10.689  66.770  1.00  0.00    -0.192 NA 
HETATM    6  N   UNL     1     -10.390  11.933  66.744  1.00  0.00    -0.206 NA 
ENDROOT
BRANCH   3   7
HETATM    7  C   UNL     1     -10.125   8.454  68.070  1.00  0.00    -0.245 A  
HETATM    8  C   UNL     1      -8.915   8.033  68.657  1.00  0.00    -0.134 A  
HETATM    9  C   UNL     1     -10.806   6.106  68.019  1.00  0.00    -0.398 A  
HETATM   10  C   UNL     1     -11.077   7.463  67.780  1.00  0.00     0.028 A  
HETATM   11  C   UNL     1      -8.670   6.688  68.962  1.00  0.00    -0.129 A  
HETATM   12 CL   UNL     1      -9.301   4.068  68.961  1.00  0.00    -0.221 Cl 
HETATM   13  C   UNL     1      -9.613   5.725  68.625  1.00  0.00    -0.127 A  
ENDBRANCH   3   7
BRANCH   5  14
HETATM   14  C   UNL     1      -8.883  10.404  65.721  1.00  0.00    -0.170 A  
HETATM   15  C   UNL     1      -9.409   9.832  64.536  1.00  0.00    -0.298 A  
HETATM   16  C   UNL     1      -7.203   9.594  63.608  1.00  0.00    -0.113 A  
HETATM   17  C   UNL     1      -6.668  10.209  64.738  1.00  0.00    -0.121 A  
HETATM   18 CL   UNL     1      -6.766  11.744  66.899  1.00  0.00    -0.132 Cl 
HETATM   19  C   UNL     1      -7.507  10.666  65.769  1.00  0.00    -0.114 A  
HETATM   20  C   UNL     1      -8.577   9.439  63.486  1.00  0.00    -0.215 A  
HETATM   21 CL   UNL     1      -6.168   9.073  62.337  1.00  0.00    -0.095 Cl 
ENDBRANCH   5  14
BRANCH   4  22
HETATM   22  C   UNL     1     -11.841  13.293  68.208  1.00  0.00    -0.354 C  
HETATM   23  O   UNL     1     -12.138  14.139  67.367  1.00  0.00    -0.402 OA 
HETATM   24  N   UNL     1     -12.099  13.386  69.568  1.00  0.00    -0.304 N  
HETATM   25  H   UNL     1     -11.762  12.621  70.152  1.00  0.00     0.000 HD 
BRANCH  24  26
HETATM   26  N   UNL     1     -12.779  14.430  70.220  1.00  0.00    -0.322 NA 
HETATM   27  C   UNL     1     -13.970  14.032  70.965  1.00  0.00     0.197 C  
HETATM   28  C   UNL     1     -13.705  13.776  72.444  1.00  0.00    -0.692 C  
HETATM   29  C   UNL     1     -13.100  15.016  73.089  1.00  0.00    -0.619 C  
HETATM   30  C   UNL     1     -11.817  15.415  72.369  1.00  0.00    -0.558 C  
HETATM   31  C   UNL     1     -11.979  15.487  70.844  1.00  0.00    -0.375 C  
ENDBRANCH  24  26
ENDBRANCH   4  22
TORSDOF 4
ENDMDL
MODEL       47
REMARK 921   NORMALIZED FREE ENERGY PREDICTED BY IDOCK:   -5.96 KCAL/MOL
REMARK 922        TOTAL FREE ENERGY PREDICTED BY IDOCK:   -8.25 KCAL/MOL
REMARK 923 INTER-LIGAND FREE ENERGY PREDICTED BY IDOCK:   -7.59 KCAL/MOL
REMARK 924 INTRA-LIGAND FREE ENERGY PREDICTED BY IDOCK:   -0.66 KCAL/MOL
REMARK 927      BINDING AFFINITY PREDICTED BY RF-SCORE:    0.00 PKD
ROOT
HETATM    1  C   UNL     1     -10.741   8.129  69.645  1.00  0.00    -0.196 C  
HETATM    2  C   UNL     1     -10.617   9.141  68.557  1.00  0.00    -0.209 A  
HETATM    3  C   UNL     1     -11.068  10.468  68.523  1.00  0.00    -0.275 A  
HETATM    4  C   UNL     1      -9.941   8.911  67.323  1.00  0.00    -0.216 A  
HETATM    5  N   UNL     1     -10.656  10.959  67.265  1.00  0.00    -0.236 NA 
HETATM    6  N   UNL     1      -9.893  10.038  66.599  1.00  0.00    -0.193 NA 
ENDROOT
BRANCH   3   7
HETATM    7  C   UNL     1     -11.764  11.211  69.608  1.00  0.00    -0.410 A  
HETATM    8  C   UNL     1     -11.706  12.619  69.640  1.00  0.00    -0.373 A  
HETATM    9  C   UNL     1     -13.132  11.317  71.632  1.00  0.00    -0.513 A  
HETATM   10  C   UNL     1     -12.513  10.577  70.612  1.00  0.00    -0.456 A  
HETATM   11  C   UNL     1     -12.380  13.365  70.615  1.00  0.00    -0.423 A  
HETATM   12 CL   UNL     1     -13.876  13.615  72.843  1.00  0.00    -0.220 Cl 
HETATM   13  C   UNL     1     -13.079  12.707  71.620  1.00  0.00    -0.323 A  
ENDBRANCH   3   7
BRANCH   5  14
HETATM   14  C   UNL     1     -10.810  12.232  66.622  1.00  0.00    -0.258 A  
HETATM   15  C   UNL     1     -12.036  12.464  65.952  1.00  0.00    -0.434 A  
HETATM   16  C   UNL     1     -11.253  14.587  65.140  1.00  0.00    -0.367 A  
HETATM   17  C   UNL     1     -10.062  14.409  65.840  1.00  0.00    -0.344 A  
HETATM   18 CL   UNL     1      -8.536  13.351  67.736  1.00  0.00    -0.167 Cl 
HETATM   19  C   UNL     1      -9.859  13.261  66.627  1.00  0.00    -0.276 A  
HETATM   20  C   UNL     1     -12.258  13.635  65.226  1.00  0.00    -0.466 A  
HETATM   21 CL   UNL     1     -11.502  16.014  64.212  1.00  0.00    -0.336 Cl 
ENDBRANCH   5  14
BRANCH   4  22
HETATM   22  C   UNL     1      -9.324   7.646  66.830  1.00  0.00    -0.172 C  
HETATM   23  O   UNL     1     -10.002   6.658  66.550  1.00  0.00    -0.159 OA 
HETATM   24  N   UNL     1      -7.944   7.732  66.718  1.00  0.00    -0.106 N  
HETATM   25  H   UNL     1      -7.513   8.604  67.021  1.00  0.00     0.000 HD 
BRANCH  24  26
HETATM   26  N   UNL     1      -7.081   6.736  66.227  1.00  0.00    -0.065 NA 
HETATM   27  C   UNL     1      -6.713   5.699  67.187  1.00  0.00    -0.062 C  
HETATM   28  C   UNL     1      -7.592   4.457  67.107  1.00  0.00    -0.085 C  
HETATM   29  C   UNL     1      -7.551   3.876  65.699  1.00  0.00    -0.082 C  
HETATM   30  C   UNL     1      -7.995   4.922  64.683  1.00  0.00    -0.099 C  
HETATM   31  C   UNL     1      -7.280   6.270  64.852  1.00  0.00    -0.067 C  
ENDBRANCH  24  26
ENDBRANCH   4  22
TORSDOF 4
ENDMDL
MODEL       48
REMARK 921   NORMALIZED FREE ENERGY PREDICTED BY IDOCK:   -5.95 KCAL/MOL
REMARK 922        TOTAL FREE ENERGY PREDICTED BY IDOCK:   -8.23 KCAL/MOL
REMARK 923 INTER-LIGAND FREE ENERGY PREDICTED BY IDOCK:   -7.24 KCAL/MOL
REMARK 924 INTRA-LIGAND FREE ENERGY PREDICTED BY IDOCK:   -0.98 KCAL/MOL
REMARK 927      BINDING AFFINITY PREDICTED BY RF-SCORE:    0.00 PKD
ROOT
HETATM    1  C   UNL     1     -12.067  13.364  69.407  1.00  0.00    -0.321 C  
HETATM    2  C   UNL     1     -11.117  12.688  68.477  1.00  0.00    -0.300 A  
HETATM    3  C   UNL     1     -10.465  11.455  68.616  1.00  0.00    -0.201 A  
HETATM    4  C   UNL     1     -10.737  13.207  67.206  1.00  0.00    -0.254 A  
HETATM    5  N   UNL     1      -9.714  11.307  67.430  1.00  0.00    -0.173 NA 
HETATM    6  N   UNL     1      -9.969  12.325  66.551  1.00  0.00    -0.215 NA 
ENDROOT
BRANCH   3   7
HETATM    7  C   UNL     1     -10.599  10.486  69.738  1.00  0.00    -0.274 A  
HETATM    8  C   UNL     1     -11.857  10.281  70.338  1.00  0.00    -0.396 A  
HETATM    9  C   UNL     1      -9.689   8.844  71.305  1.00  0.00    -0.359 A  
HETATM   10  C   UNL     1      -9.523   9.728  70.227  1.00  0.00    -0.250 A  
HETATM   11  C   UNL     1     -12.042   9.348  71.366  1.00  0.00    -0.442 A  
HETATM   12 CL   UNL     1     -11.163   7.525  73.147  1.00  0.00    -0.387 Cl 
HETATM   13  C   UNL     1     -10.950   8.643  71.858  1.00  0.00    -0.342 A  
ENDBRANCH   3   7
BRANCH   5  14
HETATM   14  C   UNL     1      -8.835  10.275  66.961  1.00  0.00    -0.136 A  
HETATM   15  C   UNL     1      -9.439   9.168  66.315  1.00  0.00    -0.299 A  
HETATM   16  C   UNL     1      -7.318   8.052  66.127  1.00  0.00    -0.074 A  
HETATM   17  C   UNL     1      -6.693   9.154  66.706  1.00  0.00    -0.076 A  
HETATM   18 CL   UNL     1      -6.508  11.708  67.399  1.00  0.00    -0.090 Cl 
HETATM   19  C   UNL     1      -7.439  10.289  67.071  1.00  0.00    -0.093 A  
HETATM   20  C   UNL     1      -8.685   8.071  65.894  1.00  0.00    -0.184 A  
HETATM   21 CL   UNL     1      -6.388   6.685  65.650  1.00  0.00    -0.044 Cl 
ENDBRANCH   5  14
BRANCH   4  22
HETATM   22  C   UNL     1     -11.106  14.517  66.595  1.00  0.00    -0.333 C  
HETATM   23  O   UNL     1     -11.819  14.590  65.596  1.00  0.00    -0.356 OA 
HETATM   24  N   UNL     1     -10.574  15.597  67.283  1.00  0.00    -0.300 N  
HETATM   25  H   UNL     1      -9.969  15.383  68.076  1.00  0.00     0.000 HD 
BRANCH  24  26
HETATM   26  N   UNL     1     -10.786  16.958  66.997  1.00  0.00    -0.218 NA 
HETATM   27  C   UNL     1     -11.152  17.788  68.141  1.00  0.00     0.138 C  
HETATM   28  C   UNL     1      -9.964  18.489  68.788  1.00  0.00    -0.417 C  
HETATM   29  C   UNL     1      -9.237  19.345  67.758  1.00  0.00    -0.382 C  
HETATM   30  C   UNL     1      -8.786  18.487  66.582  1.00  0.00    -0.294 C  
HETATM   31  C   UNL     1      -9.905  17.600  66.018  1.00  0.00    -0.170 C  
ENDBRANCH  24  26
ENDBRANCH   4  22
TORSDOF 4
ENDMDL
MODEL       49
REMARK 921   NORMALIZED FREE ENERGY PREDICTED BY IDOCK:   -5.89 KCAL/MOL
REMARK 922        TOTAL FREE ENERGY PREDICTED BY IDOCK:   -8.16 KCAL/MOL
REMARK 923 INTER-LIGAND FREE ENERGY PREDICTED BY IDOCK:   -6.91 KCAL/MOL
REMARK 924 INTRA-LIGAND FREE ENERGY PREDICTED BY IDOCK:   -1.25 KCAL/MOL
REMARK 927      BINDING AFFINITY PREDICTED BY RF-SCORE:    0.00 PKD
ROOT
HETATM    1  C   UNL     1      -8.419   9.148  64.078  1.00  0.00    -0.195 C  
HETATM    2  C   UNL     1      -9.152   9.026  65.371  1.00  0.00    -0.250 A  
HETATM    3  C   UNL     1      -9.039   8.044  66.366  1.00  0.00    -0.183 A  
HETATM    4  C   UNL     1     -10.110   9.970  65.840  1.00  0.00    -0.249 A  
HETATM    5  N   UNL     1      -9.947   8.442  67.371  1.00  0.00    -0.193 NA 
HETATM    6  N   UNL     1     -10.509   9.656  67.081  1.00  0.00    -0.255 NA 
ENDROOT
BRANCH   3   7
HETATM    7  C   UNL     1      -8.110   6.883  66.384  1.00  0.00    -0.113 A  
HETATM    8  C   UNL     1      -8.459   5.697  65.707  1.00  0.00    -0.140 A  
HETATM    9  C   UNL     1      -6.029   5.780  67.044  1.00  0.00    -0.018 A  
HETATM   10  C   UNL     1      -6.864   6.909  67.031  1.00  0.00    -0.065 A  
HETATM   11  C   UNL     1      -7.599   4.593  65.658  1.00  0.00    -0.082 A  
HETATM   12 CL   UNL     1      -5.347   3.268  66.320  1.00  0.00    -0.012 Cl 
HETATM   13  C   UNL     1      -6.390   4.634  66.344  1.00  0.00    -0.036 A  
ENDBRANCH   3   7
BRANCH   5  14
HETATM   14  C   UNL     1     -10.305   7.869  68.636  1.00  0.00    -0.201 A  
HETATM   15  C   UNL     1     -10.747   6.523  68.624  1.00  0.00    -0.323 A  
HETATM   16  C   UNL     1     -11.232   6.605  70.978  1.00  0.00    -0.300 A  
HETATM   17  C   UNL     1     -10.747   7.910  71.027  1.00  0.00    -0.239 A  
HETATM   18 CL   UNL     1      -9.314   9.964  70.151  1.00  0.00    -0.253 Cl 
HETATM   19  C   UNL     1     -10.231   8.525  69.872  1.00  0.00    -0.204 A  
HETATM   20  C   UNL     1     -11.197   5.894  69.787  1.00  0.00    -0.331 A  
HETATM   21 CL   UNL     1     -11.826   5.852  72.406  1.00  0.00    -0.330 Cl 
ENDBRANCH   5  14
BRANCH   4  22
HETATM   22  C   UNL     1     -10.638  11.177  65.139  1.00  0.00    -0.253 C  
HETATM   23  O   UNL     1     -11.018  11.135  63.970  1.00  0.00    -0.364 OA 
HETATM   24  N   UNL     1     -10.657  12.302  65.951  1.00  0.00    -0.249 N  
HETATM   25  H   UNL     1     -10.276  12.196  66.891  1.00  0.00     0.000 HD 
BRANCH  24  26
HETATM   26  N   UNL     1     -11.151  13.573  65.607  1.00  0.00    -0.289 NA 
HETATM   27  C   UNL     1     -12.137  14.132  66.527  1.00  0.00    -0.454 C  
HETATM   28  C   UNL     1     -11.532  15.057  67.576  1.00  0.00    -0.339 C  
HETATM   29  C   UNL     1     -10.777  16.193  66.899  1.00  0.00    -0.247 C  
HETATM   30  C   UNL     1      -9.696  15.636  65.981  1.00  0.00    -0.378 C  
HETATM   31  C   UNL     1     -10.213  14.542  65.034  1.00  0.00    -0.365 C  
ENDBRANCH  24  26
ENDBRANCH   4  22
TORSDOF 4
ENDMDL
MODEL       50
REMARK 921   NORMALIZED FREE ENERGY PREDICTED BY IDOCK:   -5.88 KCAL/MOL
REMARK 922        TOTAL FREE ENERGY PREDICTED BY IDOCK:   -8.15 KCAL/MOL
REMARK 923 INTER-LIGAND FREE ENERGY PREDICTED BY IDOCK:   -7.49 KCAL/MOL
REMARK 924 INTRA-LIGAND FREE ENERGY PREDICTED BY IDOCK:   -0.65 KCAL/MOL
REMARK 927      BINDING AFFINITY PREDICTED BY RF-SCORE:    0.00 PKD
ROOT
HETATM    1  C   UNL     1     -11.037  11.660  66.504  1.00  0.00    -0.357 C  
HETATM    2  C   UNL     1     -10.670  10.463  67.314  1.00  0.00    -0.331 A  
HETATM    3  C   UNL     1     -10.921  10.196  68.667  1.00  0.00    -0.230 A  
HETATM    4  C   UNL     1     -10.004   9.317  66.791  1.00  0.00    -0.245 A  
HETATM    5  N   UNL     1     -10.376   8.912  68.890  1.00  0.00    -0.210 NA 
HETATM    6  N   UNL     1      -9.918   8.359  67.725  1.00  0.00    -0.175 NA 
ENDROOT
BRANCH   3   7
HETATM    7  C   UNL     1     -11.664  11.051  69.632  1.00  0.00    -0.401 A  
HETATM    8  C   UNL     1     -12.454  10.451  70.634  1.00  0.00    -0.437 A  
HETATM    9  C   UNL     1     -12.341  13.222  70.530  1.00  0.00    -0.389 A  
HETATM   10  C   UNL     1     -11.602  12.453  69.616  1.00  0.00    -0.330 A  
HETATM   11  C   UNL     1     -13.136  11.212  71.591  1.00  0.00    -0.529 A  
HETATM   12 CL   UNL     1     -13.956  13.540  72.673  1.00  0.00    -0.546 Cl 
HETATM   13  C   UNL     1     -13.089  12.600  71.525  1.00  0.00    -0.278 A  
ENDBRANCH   3   7
BRANCH   5  14
HETATM   14  C   UNL     1     -10.302   8.079  70.055  1.00  0.00    -0.218 A  
HETATM   15  C   UNL     1     -11.289   7.070  70.181  1.00  0.00    -0.321 A  
HETATM   16  C   UNL     1     -10.456   6.452  72.350  1.00  0.00    -0.198 A  
HETATM   17  C   UNL     1      -9.440   7.396  72.223  1.00  0.00    -0.180 A  
HETATM   18 CL   UNL     1      -7.820   8.999  70.864  1.00  0.00    -0.155 Cl 
HETATM   19  C   UNL     1      -9.326   8.171  71.055  1.00  0.00    -0.152 A  
HETATM   20  C   UNL     1     -11.358   6.258  71.315  1.00  0.00    -0.356 A  
HETATM   21 CL   UNL     1     -10.561   5.485  73.769  1.00  0.00    -0.298 Cl 
ENDBRANCH   5  14
BRANCH   4  22
HETATM   22  C   UNL     1      -9.465   9.109  65.415  1.00  0.00    -0.160 C  
HETATM   23  O   UNL     1      -9.726   9.878  64.492  1.00  0.00    -0.291 OA 
HETATM   24  N   UNL     1      -8.652   7.989  65.323  1.00  0.00    -0.311 N  
HETATM   25  H   UNL     1      -8.555   7.422  66.165  1.00  0.00     0.000 HD 
BRANCH  24  26
HETATM   26  N   UNL     1      -7.949   7.557  64.184  1.00  0.00    -0.125 NA 
HETATM   27  C   UNL     1      -6.652   8.192  63.971  1.00  0.00    -0.067 C  
HETATM   28  C   UNL     1      -5.484   7.395  64.540  1.00  0.00    -0.033 C  
HETATM   29  C   UNL     1      -5.464   5.996  63.938  1.00  0.00    -0.018 C  
HETATM   30  C   UNL     1      -6.786   5.286  64.203  1.00  0.00    -0.047 C  
HETATM   31  C   UNL     1      -8.011   6.135  63.836  1.00  0.00    -0.103 C  
ENDBRANCH  24  26
ENDBRANCH   4  22
TORSDOF 4
ENDMDL
MODEL       51
REMARK 921   NORMALIZED FREE ENERGY PREDICTED BY IDOCK:   -5.88 KCAL/MOL
REMARK 922        TOTAL FREE ENERGY PREDICTED BY IDOCK:   -8.14 KCAL/MOL
REMARK 923 INTER-LIGAND FREE ENERGY PREDICTED BY IDOCK:   -6.93 KCAL/MOL
REMARK 924 INTRA-LIGAND FREE ENERGY PREDICTED BY IDOCK:   -1.21 KCAL/MOL
REMARK 927      BINDING AFFINITY PREDICTED BY RF-SCORE:    0.00 PKD
ROOT
HETATM    1  C   UNL     1     -11.016  10.771  66.684  1.00  0.00    -0.173 C  
HETATM    2  C   UNL     1     -10.928  10.222  68.068  1.00  0.00    -0.345 A  
HETATM    3  C   UNL     1     -10.634   8.916  68.487  1.00  0.00    -0.141 A  
HETATM    4  C   UNL     1     -11.097  10.999  69.250  1.00  0.00    -0.254 A  
HETATM    5  N   UNL     1     -10.661   8.975  69.897  1.00  0.00    -0.227 NA 
HETATM    6  N   UNL     1     -10.843  10.259  70.338  1.00  0.00    -0.291 NA 
ENDROOT
BRANCH   3   7
HETATM    7  C   UNL     1     -10.297   7.749  67.629  1.00  0.00    -0.305 A  
HETATM    8  C   UNL     1      -9.101   7.751  66.884  1.00  0.00    -0.171 A  
HETATM    9  C   UNL     1     -10.763   5.538  66.695  1.00  0.00    -0.332 A  
HETATM   10  C   UNL     1     -11.108   6.606  67.538  1.00  0.00    -0.374 A  
HETATM   11  C   UNL     1      -8.718   6.658  66.097  1.00  0.00    -0.154 A  
HETATM   12 CL   UNL     1      -9.116   4.229  64.998  1.00  0.00    -0.139 Cl 
HETATM   13  C   UNL     1      -9.562   5.559  65.993  1.00  0.00    -0.107 A  
ENDBRANCH   3   7
BRANCH   5  14
HETATM   14  C   UNL     1     -10.449   7.985  70.913  1.00  0.00    -0.202 A  
HETATM   15  C   UNL     1      -9.107   7.617  71.175  1.00  0.00    -0.152 A  
HETATM   16  C   UNL     1      -9.817   5.930  72.735  1.00  0.00    -0.166 A  
HETATM   17  C   UNL     1     -11.141   6.315  72.539  1.00  0.00    -0.307 A  
HETATM   18 CL   UNL     1     -13.062   8.001  71.828  1.00  0.00    -0.348 Cl 
HETATM   19  C   UNL     1     -11.457   7.378  71.674  1.00  0.00    -0.263 A  
HETATM   20  C   UNL     1      -8.793   6.605  72.084  1.00  0.00    -0.134 A  
HETATM   21 CL   UNL     1      -9.441   4.653  73.824  1.00  0.00    -0.124 Cl 
ENDBRANCH   5  14
BRANCH   4  22
HETATM   22  C   UNL     1     -11.478  12.437  69.363  1.00  0.00    -0.271 C  
HETATM   23  O   UNL     1     -12.489  12.797  69.963  1.00  0.00    -0.145 OA 
HETATM   24  N   UNL     1     -10.568  13.281  68.742  1.00  0.00    -0.338 N  
HETATM   25  H   UNL     1      -9.793  12.838  68.250  1.00  0.00     0.000 HD 
BRANCH  24  26
HETATM   26  N   UNL     1     -10.610  14.687  68.722  1.00  0.00    -0.241 NA 
HETATM   27  C   UNL     1      -9.752  15.352  69.698  1.00  0.00    -0.246 C  
HETATM   28  C   UNL     1      -8.392  15.753  69.136  1.00  0.00    -0.249 C  
HETATM   29  C   UNL     1      -8.573  16.659  67.925  1.00  0.00    -0.196 C  
HETATM   30  C   UNL     1      -9.413  15.960  66.863  1.00  0.00    -0.242 C  
HETATM   31  C   UNL     1     -10.709  15.354  67.421  1.00  0.00    -0.296 C  
ENDBRANCH  24  26
ENDBRANCH   4  22
TORSDOF 4
ENDMDL
MODEL       52
REMARK 921   NORMALIZED FREE ENERGY PREDICTED BY IDOCK:   -5.78 KCAL/MOL
REMARK 922        TOTAL FREE ENERGY PREDICTED BY IDOCK:   -8.02 KCAL/MOL
REMARK 923 INTER-LIGAND FREE ENERGY PREDICTED BY IDOCK:   -7.67 KCAL/MOL
REMARK 924 INTRA-LIGAND FREE ENERGY PREDICTED BY IDOCK:   -0.35 KCAL/MOL
REMARK 927      BINDING AFFINITY PREDICTED BY RF-SCORE:    0.00 PKD
ROOT
HETATM    1  C   UNL     1      -9.174   8.305  68.495  1.00  0.00    -0.136 C  
HETATM    2  C   UNL     1     -10.038   9.078  69.433  1.00  0.00    -0.198 A  
HETATM    3  C   UNL     1     -10.628  10.338  69.263  1.00  0.00    -0.230 A  
HETATM    4  C   UNL     1     -10.456   8.604  70.711  1.00  0.00    -0.204 A  
HETATM    5  N   UNL     1     -11.354  10.562  70.453  1.00  0.00    -0.321 NA 
HETATM    6  N   UNL     1     -11.319   9.464  71.270  1.00  0.00    -0.335 NA 
ENDROOT
BRANCH   3   7
HETATM    7  C   UNL     1     -10.560  11.209  68.058  1.00  0.00    -0.233 A  
HETATM    8  C   UNL     1      -9.467  12.083  67.888  1.00  0.00    -0.196 A  
HETATM    9  C   UNL     1     -11.440  12.050  65.937  1.00  0.00    -0.392 A  
HETATM   10  C   UNL     1     -11.532  11.191  67.045  1.00  0.00    -0.109 A  
HETATM   11  C   UNL     1      -9.336  12.889  66.751  1.00  0.00    -0.243 A  
HETATM   12 CL   UNL     1     -10.199  13.898  64.405  1.00  0.00    -0.189 Cl 
HETATM   13  C   UNL     1     -10.335  12.881  65.785  1.00  0.00    -0.284 A  
ENDBRANCH   3   7
BRANCH   5  14
HETATM   14  C   UNL     1     -12.165  11.656  70.902  1.00  0.00    -0.298 A  
HETATM   15  C   UNL     1     -11.921  12.918  70.307  1.00  0.00    -0.359 A  
HETATM   16  C   UNL     1     -13.513  13.975  71.766  1.00  0.00    -0.392 A  
HETATM   17  C   UNL     1     -13.814  12.736  72.326  1.00  0.00    -0.395 A  
HETATM   18 CL   UNL     1     -13.925  10.085  72.350  1.00  0.00    -0.061 Cl 
HETATM   19  C   UNL     1     -13.185  11.568  71.859  1.00  0.00    -0.374 A  
HETATM   20  C   UNL     1     -12.596  14.065  70.729  1.00  0.00    -0.431 A  
HETATM   21 CL   UNL     1     -14.318  15.390  72.321  1.00  0.00    -0.638 Cl 
ENDBRANCH   5  14
BRANCH   4  22
HETATM   22  C   UNL     1     -10.066   7.340  71.400  1.00  0.00    -0.187 C  
HETATM   23  O   UNL     1     -10.163   6.244  70.852  1.00  0.00    -0.186 OA 
HETATM   24  N   UNL     1      -9.582   7.558  72.682  1.00  0.00    -0.158 N  
HETATM   25  H   UNL     1      -9.593   8.520  73.020  1.00  0.00     0.000 HD 
BRANCH  24  26
HETATM   26  N   UNL     1      -9.080   6.583  73.563  1.00  0.00    -0.124 NA 
HETATM   27  C   UNL     1     -10.063   5.982  74.459  1.00  0.00    -0.314 C  
HETATM   28  C   UNL     1     -10.645   4.676  73.933  1.00  0.00    -0.337 C  
HETATM   29  C   UNL     1      -9.528   3.674  73.668  1.00  0.00    -0.122 C  
HETATM   30  C   UNL     1      -8.520   4.254  72.683  1.00  0.00    -0.101 C  
HETATM   31  C   UNL     1      -8.052   5.667  73.061  1.00  0.00    -0.118 C  
ENDBRANCH  24  26
ENDBRANCH   4  22
TORSDOF 4
ENDMDL
MODEL       53
REMARK 921   NORMALIZED FREE ENERGY PREDICTED BY IDOCK:   -5.77 KCAL/MOL
REMARK 922        TOTAL FREE ENERGY PREDICTED BY IDOCK:   -8.01 KCAL/MOL
REMARK 923 INTER-LIGAND FREE ENERGY PREDICTED BY IDOCK:   -6.87 KCAL/MOL
REMARK 924 INTRA-LIGAND FREE ENERGY PREDICTED BY IDOCK:   -1.14 KCAL/MOL
REMARK 927      BINDING AFFINITY PREDICTED BY RF-SCORE:    0.00 PKD
ROOT
HETATM    1  C   UNL     1      -6.685  15.128  69.655  1.00  0.00    -0.181 C  
HETATM    2  C   UNL     1      -7.542  14.220  68.839  1.00  0.00    -0.113 A  
HETATM    3  C   UNL     1      -8.559  14.541  67.928  1.00  0.00    -0.161 A  
HETATM    4  C   UNL     1      -7.421  12.800  68.828  1.00  0.00    -0.048 A  
HETATM    5  N   UNL     1      -9.007  13.296  67.434  1.00  0.00    -0.204 NA 
HETATM    6  N   UNL     1      -8.241  12.267  67.913  1.00  0.00    -0.150 NA 
ENDROOT
BRANCH   3   7
HETATM    7  C   UNL     1      -9.011  15.899  67.524  1.00  0.00    -0.201 A  
HETATM    8  C   UNL     1      -8.248  16.644  66.601  1.00  0.00    -0.301 A  
HETATM    9  C   UNL     1     -10.569  17.781  67.610  1.00  0.00    -0.385 A  
HETATM   10  C   UNL     1     -10.195  16.485  67.999  1.00  0.00    -0.271 A  
HETATM   11  C   UNL     1      -8.655  17.907  66.156  1.00  0.00    -0.130 A  
HETATM   12 CL   UNL     1     -10.294  20.048  66.163  1.00  0.00    -0.580 Cl 
HETATM   13  C   UNL     1      -9.810  18.480  66.677  1.00  0.00    -0.354 A  
ENDBRANCH   3   7
BRANCH   5  14
HETATM   14  C   UNL     1     -10.021  12.938  66.485  1.00  0.00    -0.259 A  
HETATM   15  C   UNL     1      -9.600  12.212  65.344  1.00  0.00    -0.112 A  
HETATM   16  C   UNL     1     -11.813  12.294  64.408  1.00  0.00    -0.388 A  
HETATM   17  C   UNL     1     -12.264  12.956  65.547  1.00  0.00    -0.527 A  
HETATM   18 CL   UNL     1     -12.145  13.686  68.095  1.00  0.00    -0.374 Cl 
HETATM   19  C   UNL     1     -11.386  13.230  66.611  1.00  0.00    -0.321 A  
HETATM   20  C   UNL     1     -10.490  11.885  64.320  1.00  0.00    -0.370 A  
HETATM   21 CL   UNL     1     -12.907  11.932  63.131  1.00  0.00    -0.446 Cl 
ENDBRANCH   5  14
BRANCH   4  22
HETATM   22  C   UNL     1      -6.525  11.944  69.658  1.00  0.00    -0.101 C  
HETATM   23  O   UNL     1      -5.375  12.281  69.933  1.00  0.00    -0.076 OA 
HETATM   24  N   UNL     1      -7.141  10.773  70.076  1.00  0.00    -0.313 N  
HETATM   25  H   UNL     1      -8.090  10.609  69.740  1.00  0.00     0.000 HD 
BRANCH  24  26
HETATM   26  N   UNL     1      -6.587   9.790  70.916  1.00  0.00    -0.250 NA 
HETATM   27  C   UNL     1      -7.552   8.915  71.576  1.00  0.00    -0.053 C  
HETATM   28  C   UNL     1      -7.799   7.610  70.828  1.00  0.00    -0.096 C  
HETATM   29  C   UNL     1      -6.487   6.860  70.638  1.00  0.00    -0.051 C  
HETATM   30  C   UNL     1      -5.483   7.730  69.892  1.00  0.00    -0.023 C  
HETATM   31  C   UNL     1      -5.347   9.139  70.487  1.00  0.00    -0.030 C  
ENDBRANCH  24  26
ENDBRANCH   4  22
TORSDOF 4
ENDMDL
MODEL       54
REMARK 921   NORMALIZED FREE ENERGY PREDICTED BY IDOCK:   -5.77 KCAL/MOL
REMARK 922        TOTAL FREE ENERGY PREDICTED BY IDOCK:   -8.01 KCAL/MOL
REMARK 923 INTER-LIGAND FREE ENERGY PREDICTED BY IDOCK:   -6.89 KCAL/MOL
REMARK 924 INTRA-LIGAND FREE ENERGY PREDICTED BY IDOCK:   -1.12 KCAL/MOL
REMARK 927      BINDING AFFINITY PREDICTED BY RF-SCORE:    0.00 PKD
ROOT
HETATM    1  C   UNL     1     -11.559  12.492  67.446  1.00  0.00    -0.434 C  
HETATM    2  C   UNL     1     -11.007  11.416  68.319  1.00  0.00    -0.266 A  
HETATM    3  C   UNL     1     -10.029  10.453  68.031  1.00  0.00    -0.155 A  
HETATM    4  C   UNL     1     -11.385  11.216  69.679  1.00  0.00    -0.294 A  
HETATM    5  N   UNL     1      -9.884   9.716  69.226  1.00  0.00    -0.179 NA 
HETATM    6  N   UNL     1     -10.636  10.254  70.236  1.00  0.00    -0.261 NA 
ENDROOT
BRANCH   3   7
HETATM    7  C   UNL     1      -9.263  10.298  66.765  1.00  0.00    -0.180 A  
HETATM    8  C   UNL     1      -7.927  10.741  66.696  1.00  0.00    -0.139 A  
HETATM    9  C   UNL     1      -9.049   9.594  64.433  1.00  0.00    -0.279 A  
HETATM   10  C   UNL     1      -9.800   9.697  65.615  1.00  0.00    -0.369 A  
HETATM   11  C   UNL     1      -7.153  10.576  65.542  1.00  0.00    -0.099 A  
HETATM   12 CL   UNL     1      -6.790   9.847  62.973  1.00  0.00    -0.118 Cl 
HETATM   13  C   UNL     1      -7.724  10.016  64.406  1.00  0.00    -0.145 A  
ENDBRANCH   3   7
BRANCH   5  14
HETATM   14  C   UNL     1      -9.053   8.603  69.584  1.00  0.00    -0.149 A  
HETATM   15  C   UNL     1      -9.468   7.327  69.132  1.00  0.00    -0.148 A  
HETATM   16  C   UNL     1      -7.673   6.261  70.327  1.00  0.00    -0.098 A  
HETATM   17  C   UNL     1      -7.211   7.510  70.735  1.00  0.00    -0.067 A  
HETATM   18 CL   UNL     1      -6.973  10.147  70.561  1.00  0.00    -0.114 Cl 
HETATM   19  C   UNL     1      -7.863   8.685  70.320  1.00  0.00    -0.097 A  
HETATM   20  C   UNL     1      -8.778   6.167  69.493  1.00  0.00    -0.130 A  
HETATM   21 CL   UNL     1      -6.843   4.835  70.811  1.00  0.00    -0.035 Cl 
ENDBRANCH   5  14
BRANCH   4  22
HETATM   22  C   UNL     1     -12.430  11.936  70.463  1.00  0.00    -0.215 C  
HETATM   23  O   UNL     1     -13.378  11.346  70.978  1.00  0.00    -0.004 OA 
HETATM   24  N   UNL     1     -12.192  13.301  70.544  1.00  0.00    -0.398 N  
HETATM   25  H   UNL     1     -11.383  13.657  70.035  1.00  0.00     0.000 HD 
BRANCH  24  26
HETATM   26  N   UNL     1     -12.955  14.241  71.258  1.00  0.00    -0.336 NA 
HETATM   27  C   UNL     1     -13.187  13.922  72.664  1.00  0.00    -0.494 C  
HETATM   28  C   UNL     1     -12.182  14.570  73.608  1.00  0.00    -0.133 C  
HETATM   29  C   UNL     1     -12.195  16.082  73.428  1.00  0.00    -0.630 C  
HETATM   30  C   UNL     1     -11.890  16.445  71.979  1.00  0.00    -0.464 C  
HETATM   31  C   UNL     1     -12.741  15.662  70.969  1.00  0.00    -0.460 C  
ENDBRANCH  24  26
ENDBRANCH   4  22
TORSDOF 4
ENDMDL
MODEL       55
REMARK 921   NORMALIZED FREE ENERGY PREDICTED BY IDOCK:   -5.76 KCAL/MOL
REMARK 922        TOTAL FREE ENERGY PREDICTED BY IDOCK:   -8.00 KCAL/MOL
REMARK 923 INTER-LIGAND FREE ENERGY PREDICTED BY IDOCK:   -7.62 KCAL/MOL
REMARK 924 INTRA-LIGAND FREE ENERGY PREDICTED BY IDOCK:   -0.38 KCAL/MOL
REMARK 927      BINDING AFFINITY PREDICTED BY RF-SCORE:    0.00 PKD
ROOT
HETATM    1  C   UNL     1     -12.174   9.611  70.957  1.00  0.00    -0.409 C  
HETATM    2  C   UNL     1     -11.420  10.370  69.918  1.00  0.00    -0.368 A  
HETATM    3  C   UNL     1     -11.400  11.749  69.664  1.00  0.00    -0.215 A  
HETATM    4  C   UNL     1     -10.514   9.775  68.993  1.00  0.00    -0.213 A  
HETATM    5  N   UNL     1     -10.498  11.906  68.590  1.00  0.00    -0.216 NA 
HETATM    6  N   UNL     1      -9.900  10.718  68.266  1.00  0.00    -0.161 NA 
ENDROOT
BRANCH   3   7
HETATM    7  C   UNL     1     -12.119  12.813  70.416  1.00  0.00    -0.382 A  
HETATM    8  C   UNL     1     -12.938  12.466  71.509  1.00  0.00    -0.385 A  
HETATM    9  C   UNL     1     -12.721  15.147  70.828  1.00  0.00    -0.463 A  
HETATM   10  C   UNL     1     -12.004  14.178  70.107  1.00  0.00    -0.400 A  
HETATM   11  C   UNL     1     -13.599  13.435  72.274  1.00  0.00    -0.703 A  
HETATM   12 CL   UNL     1     -14.340  15.966  72.830  1.00  0.00    -0.191 Cl 
HETATM   13  C   UNL     1     -13.500  14.775  71.918  1.00  0.00    -0.371 A  
ENDBRANCH   3   7
BRANCH   5  14
HETATM   14  C   UNL     1     -10.046  13.058  67.865  1.00  0.00    -0.235 A  
HETATM   15  C   UNL     1      -8.850  13.667  68.318  1.00  0.00    -0.179 A  
HETATM   16  C   UNL     1      -9.076  15.436  66.704  1.00  0.00    -0.279 A  
HETATM   17  C   UNL     1     -10.222  14.823  66.202  1.00  0.00    -0.310 A  
HETATM   18 CL   UNL     1     -11.850  12.770  65.785  1.00  0.00    -0.458 Cl 
HETATM   19  C   UNL     1     -10.678  13.607  66.741  1.00  0.00    -0.272 A  
HETATM   20  C   UNL     1      -8.365  14.840  67.736  1.00  0.00    -0.166 A  
HETATM   21 CL   UNL     1      -8.509  16.904  66.011  1.00  0.00    -0.267 Cl 
ENDBRANCH   5  14
BRANCH   4  22
HETATM   22  C   UNL     1     -10.207   8.327  68.802  1.00  0.00    -0.210 C  
HETATM   23  O   UNL     1     -10.993   7.446  69.142  1.00  0.00    -0.155 OA 
HETATM   24  N   UNL     1      -8.975   8.117  68.200  1.00  0.00    -0.135 N  
HETATM   25  H   UNL     1      -8.412   8.944  68.005  1.00  0.00     0.000 HD 
BRANCH  24  26
HETATM   26  N   UNL     1      -8.426   6.876  67.831  1.00  0.00    -0.120 NA 
HETATM   27  C   UNL     1      -8.617   6.497  66.434  1.00  0.00    -0.136 C  
HETATM   28  C   UNL     1      -7.441   6.867  65.538  1.00  0.00    -0.086 C  
HETATM   29  C   UNL     1      -6.162   6.227  66.062  1.00  0.00    -0.037 C  
HETATM   30  C   UNL     1      -5.905   6.660  67.500  1.00  0.00    -0.016 C  
HETATM   31  C   UNL     1      -7.133   6.498  68.408  1.00  0.00    -0.083 C  
ENDBRANCH  24  26
ENDBRANCH   4  22
TORSDOF 4
ENDMDL
MODEL       56
REMARK 921   NORMALIZED FREE ENERGY PREDICTED BY IDOCK:   -5.72 KCAL/MOL
REMARK 922        TOTAL FREE ENERGY PREDICTED BY IDOCK:   -7.95 KCAL/MOL
REMARK 923 INTER-LIGAND FREE ENERGY PREDICTED BY IDOCK:   -7.04 KCAL/MOL
REMARK 924 INTRA-LIGAND FREE ENERGY PREDICTED BY IDOCK:   -0.91 KCAL/MOL
REMARK 927      BINDING AFFINITY PREDICTED BY RF-SCORE:    0.00 PKD
ROOT
HETATM    1  C   UNL     1     -11.270  10.603  70.151  1.00  0.00    -0.378 C  
HETATM    2  C   UNL     1     -10.488   9.732  69.227  1.00  0.00    -0.236 A  
HETATM    3  C   UNL     1     -10.010   8.428  69.427  1.00  0.00    -0.191 A  
HETATM    4  C   UNL     1     -10.120  10.099  67.900  1.00  0.00    -0.176 A  
HETATM    5  N   UNL     1      -9.366   8.090  68.217  1.00  0.00    -0.140 NA 
HETATM    6  N   UNL     1      -9.529   9.071  67.276  1.00  0.00    -0.145 NA 
ENDROOT
BRANCH   3   7
HETATM    7  C   UNL     1     -10.208   7.571  70.626  1.00  0.00    -0.202 A  
HETATM    8  C   UNL     1     -10.551   6.213  70.466  1.00  0.00    -0.312 A  
HETATM    9  C   UNL     1     -10.266   7.202  73.042  1.00  0.00    -0.290 A  
HETATM   10  C   UNL     1     -10.044   8.041  71.939  1.00  0.00    -0.264 A  
HETATM   11  C   UNL     1     -10.704   5.355  71.562  1.00  0.00    -0.262 A  
HETATM   12 CL   UNL     1     -10.802   4.820  74.202  1.00  0.00    -0.327 Cl 
HETATM   13  C   UNL     1     -10.577   5.859  72.851  1.00  0.00    -0.235 A  
ENDBRANCH   3   7
BRANCH   5  14
HETATM   14  C   UNL     1      -8.676   6.910  67.783  1.00  0.00    -0.120 A  
HETATM   15  C   UNL     1      -7.366   6.717  68.287  1.00  0.00    -0.090 A  
HETATM   16  C   UNL     1      -7.072   4.760  66.921  1.00  0.00    -0.075 A  
HETATM   17  C   UNL     1      -8.378   4.895  66.457  1.00  0.00    -0.107 A  
HETATM   18 CL   UNL     1     -10.885   5.753  66.584  1.00  0.00    -0.343 Cl 
HETATM   19  C   UNL     1      -9.201   5.933  66.927  1.00  0.00    -0.124 A  
HETATM   20  C   UNL     1      -6.575   5.645  67.866  1.00  0.00    -0.053 A  
HETATM   21 CL   UNL     1      -6.089   3.462  66.365  1.00  0.00    -0.024 Cl 
ENDBRANCH   5  14
BRANCH   4  22
HETATM   22  C   UNL     1     -10.337  11.404  67.209  1.00  0.00    -0.198 C  
HETATM   23  O   UNL     1      -9.412  12.182  66.985  1.00  0.00    -0.192 OA 
HETATM   24  N   UNL     1     -11.662  11.606  66.854  1.00  0.00    -0.167 N  
HETATM   25  H   UNL     1     -12.329  10.889  67.138  1.00  0.00     0.000 HD 
BRANCH  24  26
HETATM   26  N   UNL     1     -12.179  12.703  66.141  1.00  0.00    -0.586 NA 
HETATM   27  C   UNL     1     -12.245  13.958  66.884  1.00  0.00    -0.377 C  
HETATM   28  C   UNL     1     -11.034  14.857  66.665  1.00  0.00    -0.325 C  
HETATM   29  C   UNL     1     -10.868  15.160  65.181  1.00  0.00    -0.437 C  
HETATM   30  C   UNL     1     -10.732  13.865  64.389  1.00  0.00    -0.286 C  
HETATM   31  C   UNL     1     -11.819  12.834  64.726  1.00  0.00    -0.374 C  
ENDBRANCH  24  26
ENDBRANCH   4  22
TORSDOF 4
ENDMDL
MODEL       57
REMARK 921   NORMALIZED FREE ENERGY PREDICTED BY IDOCK:   -5.70 KCAL/MOL
REMARK 922        TOTAL FREE ENERGY PREDICTED BY IDOCK:   -7.93 KCAL/MOL
REMARK 923 INTER-LIGAND FREE ENERGY PREDICTED BY IDOCK:   -6.99 KCAL/MOL
REMARK 924 INTRA-LIGAND FREE ENERGY PREDICTED BY IDOCK:   -0.93 KCAL/MOL
REMARK 927      BINDING AFFINITY PREDICTED BY RF-SCORE:    0.00 PKD
ROOT
HETATM    1  C   UNL     1     -11.305  10.867  69.332  1.00  0.00    -0.347 C  
HETATM    2  C   UNL     1     -10.703  11.960  68.515  1.00  0.00    -0.254 A  
HETATM    3  C   UNL     1     -10.818  13.349  68.668  1.00  0.00    -0.263 A  
HETATM    4  C   UNL     1      -9.830  11.745  67.409  1.00  0.00    -0.178 A  
HETATM    5  N   UNL     1     -10.023  13.894  67.636  1.00  0.00    -0.234 NA 
HETATM    6  N   UNL     1      -9.358  12.912  66.952  1.00  0.00    -0.234 NA 
ENDROOT
BRANCH   3   7
HETATM    7  C   UNL     1     -11.558  14.080  69.732  1.00  0.00    -0.344 A  
HETATM    8  C   UNL     1     -12.812  13.604  70.165  1.00  0.00     0.026 A  
HETATM    9  C   UNL     1     -11.799  15.902  71.345  1.00  0.00    -0.524 A  
HETATM   10  C   UNL     1     -11.055  15.229  70.362  1.00  0.00    -0.324 A  
HETATM   11  C   UNL     1     -13.525  14.232  71.194  1.00  0.00    -0.335 A  
HETATM   12 CL   UNL     1     -13.911  16.189  73.006  1.00  0.00    -0.465 Cl 
HETATM   13  C   UNL     1     -13.021  15.392  71.770  1.00  0.00    -0.429 A  
ENDBRANCH   3   7
BRANCH   5  14
HETATM   14  C   UNL     1      -9.728  15.243  67.249  1.00  0.00    -0.212 A  
HETATM   15  C   UNL     1      -8.624  15.862  67.885  1.00  0.00    -0.164 A  
HETATM   16  C   UNL     1      -9.084  17.945  66.776  1.00  0.00    -0.268 A  
HETATM   17  C   UNL     1     -10.137  17.342  66.093  1.00  0.00    -0.312 A  
HETATM   18 CL   UNL     1     -11.476  15.277  65.103  1.00  0.00    -0.303 Cl 
HETATM   19  C   UNL     1     -10.427  15.979  66.283  1.00  0.00    -0.320 A  
HETATM   20  C   UNL     1      -8.300  17.198  67.644  1.00  0.00    -0.197 A  
HETATM   21 CL   UNL     1      -8.718  19.604  66.505  1.00  0.00    -0.376 Cl 
ENDBRANCH   5  14
BRANCH   4  22
HETATM   22  C   UNL     1      -9.422  10.449  66.794  1.00  0.00    -0.166 C  
HETATM   23  O   UNL     1     -10.143   9.852  65.996  1.00  0.00    -0.259 OA 
HETATM   24  N   UNL     1      -8.166  10.031  67.210  1.00  0.00    -0.117 N  
HETATM   25  H   UNL     1      -7.697  10.611  67.905  1.00  0.00     0.000 HD 
BRANCH  24  26
HETATM   26  N   UNL     1      -7.476   8.888  66.768  1.00  0.00    -0.082 NA 
HETATM   27  C   UNL     1      -6.034   9.049  66.610  1.00  0.00    -0.056 C  
HETATM   28  C   UNL     1      -5.235   8.607  67.831  1.00  0.00    -0.035 C  
HETATM   29  C   UNL     1      -5.545   7.153  68.160  1.00  0.00    -0.021 C  
HETATM   30  C   UNL     1      -7.040   6.970  68.394  1.00  0.00    -0.082 C  
HETATM   31  C   UNL     1      -7.904   7.585  67.284  1.00  0.00    -0.118 C  
ENDBRANCH  24  26
ENDBRANCH   4  22
TORSDOF 4
ENDMDL
MODEL       58
REMARK 921   NORMALIZED FREE ENERGY PREDICTED BY IDOCK:   -5.68 KCAL/MOL
REMARK 922        TOTAL FREE ENERGY PREDICTED BY IDOCK:   -7.91 KCAL/MOL
REMARK 923 INTER-LIGAND FREE ENERGY PREDICTED BY IDOCK:   -7.45 KCAL/MOL
REMARK 924 INTRA-LIGAND FREE ENERGY PREDICTED BY IDOCK:   -0.45 KCAL/MOL
REMARK 927      BINDING AFFINITY PREDICTED BY RF-SCORE:    0.00 PKD
ROOT
HETATM    1  C   UNL     1      -9.501   9.550  64.965  1.00  0.00    -0.273 C  
HETATM    2  C   UNL     1      -9.998   9.788  66.350  1.00  0.00    -0.314 A  
HETATM    3  C   UNL     1     -10.569  10.944  66.902  1.00  0.00    -0.261 A  
HETATM    4  C   UNL     1     -10.006   8.801  67.378  1.00  0.00    -0.208 A  
HETATM    5  N   UNL     1     -10.874  10.595  68.236  1.00  0.00    -0.221 NA 
HETATM    6  N   UNL     1     -10.619   9.271  68.474  1.00  0.00    -0.206 NA 
ENDROOT
BRANCH   3   7
HETATM    7  C   UNL     1     -10.856  12.227  66.207  1.00  0.00    -0.313 A  
HETATM    8  C   UNL     1     -12.190  12.653  66.046  1.00  0.00    -0.329 A  
HETATM    9  C   UNL     1     -10.166  14.262  65.040  1.00  0.00    -0.402 A  
HETATM   10  C   UNL     1      -9.849  13.072  65.713  1.00  0.00    -0.217 A  
HETATM   11  C   UNL     1     -12.508  13.874  65.438  1.00  0.00    -0.528 A  
HETATM   12 CL   UNL     1     -11.878  16.150  64.140  1.00  0.00    -0.085 Cl 
HETATM   13  C   UNL     1     -11.491  14.668  64.922  1.00  0.00    -0.401 A  
ENDBRANCH   3   7
BRANCH   5  14
HETATM   14  C   UNL     1     -11.464  11.327  69.319  1.00  0.00    -0.301 A  
HETATM   15  C   UNL     1     -12.216  10.580  70.259  1.00  0.00    -0.393 A  
HETATM   16  C   UNL     1     -12.862  12.585  71.418  1.00  0.00    -0.260 A  
HETATM   17  C   UNL     1     -12.081  13.335  70.542  1.00  0.00    -0.391 A  
HETATM   18 CL   UNL     1     -10.125  13.690  68.784  1.00  0.00    -0.179 Cl 
HETATM   19  C   UNL     1     -11.337  12.706  69.528  1.00  0.00    -0.158 A  
HETATM   20  C   UNL     1     -12.900  11.203  71.304  1.00  0.00    -0.515 A  
HETATM   21 CL   UNL     1     -13.737  13.364  72.676  1.00  0.00    -0.616 Cl 
ENDBRANCH   5  14
BRANCH   4  22
HETATM   22  C   UNL     1      -9.461   7.413  67.330  1.00  0.00    -0.141 C  
HETATM   23  O   UNL     1     -10.195   6.428  67.277  1.00  0.00    -0.146 OA 
HETATM   24  N   UNL     1      -8.074   7.383  67.337  1.00  0.00    -0.112 N  
HETATM   25  H   UNL     1      -7.596   8.280  67.421  1.00  0.00     0.000 HD 
BRANCH  24  26
HETATM   26  N   UNL     1      -7.262   6.239  67.240  1.00  0.00    -0.077 NA 
HETATM   27  C   UNL     1      -7.066   5.503  68.485  1.00  0.00    -0.066 C  
HETATM   28  C   UNL     1      -8.039   4.345  68.665  1.00  0.00    -0.077 C  
HETATM   29  C   UNL     1      -7.930   3.382  67.490  1.00  0.00    -0.081 C  
HETATM   30  C   UNL     1      -8.195   4.114  66.180  1.00  0.00    -0.105 C  
HETATM   31  C   UNL     1      -7.383   5.410  66.038  1.00  0.00    -0.078 C  
ENDBRANCH  24  26
ENDBRANCH   4  22
TORSDOF 4
ENDMDL
MODEL       59
REMARK 921   NORMALIZED FREE ENERGY PREDICTED BY IDOCK:   -5.66 KCAL/MOL
REMARK 922        TOTAL FREE ENERGY PREDICTED BY IDOCK:   -7.88 KCAL/MOL
REMARK 923 INTER-LIGAND FREE ENERGY PREDICTED BY IDOCK:   -6.44 KCAL/MOL
REMARK 924 INTRA-LIGAND FREE ENERGY PREDICTED BY IDOCK:   -1.44 KCAL/MOL
REMARK 927      BINDING AFFINITY PREDICTED BY RF-SCORE:    0.00 PKD
ROOT
HETATM    1  C   UNL     1      -8.787   9.835  64.000  1.00  0.00    -0.258 C  
HETATM    2  C   UNL     1      -8.958   9.143  65.310  1.00  0.00    -0.246 A  
HETATM    3  C   UNL     1      -9.417   9.656  66.532  1.00  0.00    -0.181 A  
HETATM    4  C   UNL     1      -8.703   7.757  65.522  1.00  0.00    -0.072 A  
HETATM    5  N   UNL     1      -9.396   8.556  67.416  1.00  0.00    -0.145 NA 
HETATM    6  N   UNL     1      -9.059   7.400  66.764  1.00  0.00    -0.145 NA 
ENDROOT
BRANCH   3   7
HETATM    7  C   UNL     1      -9.889  11.039  66.808  1.00  0.00    -0.229 A  
HETATM    8  C   UNL     1     -11.235  11.261  67.163  1.00  0.00    -0.344 A  
HETATM    9  C   UNL     1      -9.541  13.452  67.002  1.00  0.00    -0.244 A  
HETATM   10  C   UNL     1      -9.045  12.161  66.759  1.00  0.00    -0.205 A  
HETATM   11  C   UNL     1     -11.717  12.538  67.474  1.00  0.00    -0.439 A  
HETATM   12 CL   UNL     1     -11.463  15.210  67.720  1.00  0.00    -0.338 Cl 
HETATM   13  C   UNL     1     -10.868  13.634  67.376  1.00  0.00    -0.273 A  
ENDBRANCH   3   7
BRANCH   5  14
HETATM   14  C   UNL     1      -9.740   8.419  68.802  1.00  0.00    -0.164 A  
HETATM   15  C   UNL     1     -10.653   7.388  69.134  1.00  0.00    -0.213 A  
HETATM   16  C   UNL     1     -10.695   8.091  71.433  1.00  0.00    -0.229 A  
HETATM   17  C   UNL     1      -9.752   9.074  71.143  1.00  0.00    -0.369 A  
HETATM   18 CL   UNL     1      -7.807  10.177  69.715  1.00  0.00    -0.174 Cl 
HETATM   19  C   UNL     1      -9.230   9.205  69.844  1.00  0.00    -0.183 A  
HETATM   20  C   UNL     1     -11.118   7.220  70.440  1.00  0.00    -0.291 A  
HETATM   21 CL   UNL     1     -11.296   7.918  73.035  1.00  0.00    -0.410 Cl 
ENDBRANCH   5  14
BRANCH   4  22
HETATM   22  C   UNL     1      -8.147   6.762  64.559  1.00  0.00    -0.070 C  
HETATM   23  O   UNL     1      -7.051   6.919  64.024  1.00  0.00    -0.053 OA 
HETATM   24  N   UNL     1      -8.987   5.675  64.369  1.00  0.00    -0.349 N  
HETATM   25  H   UNL     1      -9.884   5.698  64.853  1.00  0.00     0.000 HD 
BRANCH  24  26
HETATM   26  N   UNL     1      -8.725   4.544  63.575  1.00  0.00    -0.128 NA 
HETATM   27  C   UNL     1      -7.909   3.512  64.205  1.00  0.00    -0.085 C  
HETATM   28  C   UNL     1      -8.728   2.405  64.859  1.00  0.00    -0.111 C  
HETATM   29  C   UNL     1      -9.649   1.760  63.831  1.00  0.00    -0.129 C  
HETATM   30  C   UNL     1     -10.559   2.809  63.203  1.00  0.00    -0.209 C  
HETATM   31  C   UNL     1      -9.798   4.049  62.709  1.00  0.00    -0.151 C  
ENDBRANCH  24  26
ENDBRANCH   4  22
TORSDOF 4
ENDMDL
MODEL       60
REMARK 921   NORMALIZED FREE ENERGY PREDICTED BY IDOCK:   -5.64 KCAL/MOL
REMARK 922        TOTAL FREE ENERGY PREDICTED BY IDOCK:   -7.85 KCAL/MOL
REMARK 923 INTER-LIGAND FREE ENERGY PREDICTED BY IDOCK:   -7.96 KCAL/MOL
REMARK 924 INTRA-LIGAND FREE ENERGY PREDICTED BY IDOCK:    0.12 KCAL/MOL
REMARK 927      BINDING AFFINITY PREDICTED BY RF-SCORE:    0.00 PKD
ROOT
HETATM    1  C   UNL     1     -10.416   8.335  68.808  1.00  0.00    -0.200 C  
HETATM    2  C   UNL     1     -10.346   9.401  67.768  1.00  0.00    -0.291 A  
HETATM    3  C   UNL     1     -10.816  10.721  67.818  1.00  0.00    -0.269 A  
HETATM    4  C   UNL     1      -9.715   9.243  66.501  1.00  0.00    -0.240 A  
HETATM    5  N   UNL     1     -10.458  11.280  66.571  1.00  0.00    -0.244 NA 
HETATM    6  N   UNL     1      -9.708  10.405  65.832  1.00  0.00    -0.203 NA 
ENDROOT
BRANCH   3   7
HETATM    7  C   UNL     1     -11.480  11.399  68.964  1.00  0.00    -0.366 A  
HETATM    8  C   UNL     1     -12.175  10.634  69.922  1.00  0.00    -0.346 A  
HETATM    9  C   UNL     1     -12.094  13.388  70.247  1.00  0.00    -0.419 A  
HETATM   10  C   UNL     1     -11.431  12.788  69.164  1.00  0.00    -0.361 A  
HETATM   11  C   UNL     1     -12.777  11.221  71.041  1.00  0.00    -0.457 A  
HETATM   12 CL   UNL     1     -13.520  13.333  72.542  1.00  0.00    -0.669 Cl 
HETATM   13  C   UNL     1     -12.748  12.603  71.190  1.00  0.00    -0.254 A  
ENDBRANCH   3   7
BRANCH   5  14
HETATM   14  C   UNL     1     -10.653  12.581  66.000  1.00  0.00    -0.263 A  
HETATM   15  C   UNL     1      -9.786  13.609  66.444  1.00  0.00    -0.300 A  
HETATM   16  C   UNL     1     -10.977  15.247  65.148  1.00  0.00    -0.416 A  
HETATM   17  C   UNL     1     -11.805  14.243  64.651  1.00  0.00    -0.459 A  
HETATM   18 CL   UNL     1     -12.429  11.736  64.052  1.00  0.00    -0.382 Cl 
HETATM   19  C   UNL     1     -11.611  12.903  65.029  1.00  0.00    -0.332 A  
HETATM   20  C   UNL     1      -9.941  14.928  66.015  1.00  0.00    -0.337 A  
HETATM   21 CL   UNL     1     -11.202  16.877  64.648  1.00  0.00    -0.041 Cl 
ENDBRANCH   5  14
BRANCH   4  22
HETATM   22  C   UNL     1      -9.100   8.013  65.922  1.00  0.00    -0.106 C  
HETATM   23  O   UNL     1      -8.432   8.044  64.890  1.00  0.00    -0.136 OA 
HETATM   24  N   UNL     1      -9.357   6.879  66.680  1.00  0.00    -0.159 N  
HETATM   25  H   UNL     1      -9.959   6.999  67.494  1.00  0.00     0.000 HD 
BRANCH  24  26
HETATM   26  N   UNL     1      -8.870   5.583  66.436  1.00  0.00    -0.122 NA 
HETATM   27  C   UNL     1      -7.542   5.302  66.971  1.00  0.00    -0.092 C  
HETATM   28  C   UNL     1      -7.567   4.636  68.342  1.00  0.00    -0.069 C  
HETATM   29  C   UNL     1      -8.368   3.341  68.280  1.00  0.00    -0.094 C  
HETATM   30  C   UNL     1      -9.783   3.618  67.784  1.00  0.00    -0.109 C  
HETATM   31  C   UNL     1      -9.819   4.468  66.506  1.00  0.00    -0.227 C  
ENDBRANCH  24  26
ENDBRANCH   4  22
TORSDOF 4
ENDMDL
MODEL       61
REMARK 921   NORMALIZED FREE ENERGY PREDICTED BY IDOCK:   -5.61 KCAL/MOL
REMARK 922        TOTAL FREE ENERGY PREDICTED BY IDOCK:   -7.82 KCAL/MOL
REMARK 923 INTER-LIGAND FREE ENERGY PREDICTED BY IDOCK:   -6.68 KCAL/MOL
REMARK 924 INTRA-LIGAND FREE ENERGY PREDICTED BY IDOCK:   -1.14 KCAL/MOL
REMARK 927      BINDING AFFINITY PREDICTED BY RF-SCORE:    0.00 PKD
ROOT
HETATM    1  C   UNL     1      -7.001  12.187  66.800  1.00  0.00     0.104 C  
HETATM    2  C   UNL     1      -8.310  11.993  67.486  1.00  0.00    -0.166 A  
HETATM    3  C   UNL     1      -8.682  11.028  68.433  1.00  0.00    -0.150 A  
HETATM    4  C   UNL     1      -9.442  12.839  67.304  1.00  0.00    -0.204 A  
HETATM    5  N   UNL     1     -10.022  11.335  68.755  1.00  0.00    -0.207 NA 
HETATM    6  N   UNL     1     -10.429  12.488  68.140  1.00  0.00    -0.222 NA 
ENDROOT
BRANCH   3   7
HETATM    7  C   UNL     1      -7.824   9.963  69.019  1.00  0.00    -0.095 A  
HETATM    8  C   UNL     1      -7.482  10.014  70.385  1.00  0.00    -0.069 A  
HETATM    9  C   UNL     1      -6.516   7.903  68.865  1.00  0.00    -0.048 A  
HETATM   10  C   UNL     1      -7.345   8.871  68.277  1.00  0.00    -0.083 A  
HETATM   11  C   UNL     1      -6.714   9.012  70.992  1.00  0.00    -0.087 A  
HETATM   12 CL   UNL     1      -5.243   6.754  70.954  1.00  0.00    -0.022 Cl 
HETATM   13  C   UNL     1      -6.219   7.966  70.223  1.00  0.00    -0.033 A  
ENDBRANCH   3   7
BRANCH   5  14
HETATM   14  C   UNL     1     -10.967  10.729  69.648  1.00  0.00    -0.264 A  
HETATM   15  C   UNL     1     -11.814  11.606  70.370  1.00  0.00    -0.385 A  
HETATM   16  C   UNL     1     -12.768   9.766  71.589  1.00  0.00    -0.422 A  
HETATM   17  C   UNL     1     -11.990   8.880  70.849  1.00  0.00    -0.254 A  
HETATM   18 CL   UNL     1     -10.538   8.145  68.754  1.00  0.00    -0.190 Cl 
HETATM   19  C   UNL     1     -11.131   9.351  69.841  1.00  0.00    -0.200 A  
HETATM   20  C   UNL     1     -12.713  11.127  71.325  1.00  0.00    -0.531 A  
HETATM   21 CL   UNL     1     -13.842   9.172  72.795  1.00  0.00    -0.406 Cl 
ENDBRANCH   5  14
BRANCH   4  22
HETATM   22  C   UNL     1      -9.595  13.988  66.364  1.00  0.00    -0.283 C  
HETATM   23  O   UNL     1     -10.129  13.861  65.264  1.00  0.00    -0.334 OA 
HETATM   24  N   UNL     1      -9.091  15.173  66.881  1.00  0.00    -0.231 N  
HETATM   25  H   UNL     1      -8.642  15.120  67.795  1.00  0.00     0.000 HD 
BRANCH  24  26
HETATM   26  N   UNL     1      -9.137  16.438  66.269  1.00  0.00    -0.303 NA 
HETATM   27  C   UNL     1     -10.397  17.160  66.419  1.00  0.00    -0.307 C  
HETATM   28  C   UNL     1     -10.403  18.134  67.591  1.00  0.00    -0.411 C  
HETATM   29  C   UNL     1      -9.265  19.136  67.445  1.00  0.00    -0.344 C  
HETATM   30  C   UNL     1      -7.929  18.408  67.351  1.00  0.00    -0.241 C  
HETATM   31  C   UNL     1      -7.932  17.270  66.320  1.00  0.00    -0.295 C  
ENDBRANCH  24  26
ENDBRANCH   4  22
TORSDOF 4
ENDMDL
MODEL       62
REMARK 921   NORMALIZED FREE ENERGY PREDICTED BY IDOCK:   -5.59 KCAL/MOL
REMARK 922        TOTAL FREE ENERGY PREDICTED BY IDOCK:   -7.79 KCAL/MOL
REMARK 923 INTER-LIGAND FREE ENERGY PREDICTED BY IDOCK:   -6.28 KCAL/MOL
REMARK 924 INTRA-LIGAND FREE ENERGY PREDICTED BY IDOCK:   -1.51 KCAL/MOL
REMARK 927      BINDING AFFINITY PREDICTED BY RF-SCORE:    0.00 PKD
ROOT
HETATM    1  C   UNL     1      -6.199  11.519  70.077  1.00  0.00    -0.142 C  
HETATM    2  C   UNL     1      -7.400  11.688  69.209  1.00  0.00     0.025 A  
HETATM    3  C   UNL     1      -7.860  12.832  68.543  1.00  0.00    -0.099 A  
HETATM    4  C   UNL     1      -8.297  10.634  68.871  1.00  0.00    -0.150 A  
HETATM    5  N   UNL     1      -9.018  12.409  67.855  1.00  0.00    -0.176 NA 
HETATM    6  N   UNL     1      -9.208  11.060  67.985  1.00  0.00    -0.154 NA 
ENDROOT
BRANCH   3   7
HETATM    7  C   UNL     1      -7.221  14.175  68.513  1.00  0.00    -0.110 A  
HETATM    8  C   UNL     1      -7.837  15.258  69.171  1.00  0.00    -0.204 A  
HETATM    9  C   UNL     1      -5.442  15.716  67.848  1.00  0.00    -0.146 A  
HETATM   10  C   UNL     1      -5.996  14.426  67.873  1.00  0.00    -0.149 A  
HETATM   11  C   UNL     1      -7.252  16.530  69.208  1.00  0.00    -0.213 A  
HETATM   12 CL   UNL     1      -5.358  18.327  68.540  1.00  0.00    -0.164 Cl 
HETATM   13  C   UNL     1      -6.061  16.758  68.530  1.00  0.00    -0.136 A  
ENDBRANCH   3   7
BRANCH   5  14
HETATM   14  C   UNL     1      -9.944  13.096  67.002  1.00  0.00    -0.244 A  
HETATM   15  C   UNL     1      -9.836  12.848  65.611  1.00  0.00    -0.185 A  
HETATM   16  C   UNL     1     -11.538  14.477  65.133  1.00  0.00    -0.371 A  
HETATM   17  C   UNL     1     -11.705  14.695  66.498  1.00  0.00    -0.335 A  
HETATM   18 CL   UNL     1     -11.529  14.044  69.064  1.00  0.00    -0.309 Cl 
HETATM   19  C   UNL     1     -10.952  13.967  67.436  1.00  0.00    -0.293 A  
HETATM   20  C   UNL     1     -10.632  13.525  64.686  1.00  0.00    -0.441 A  
HETATM   21 CL   UNL     1     -12.492  15.347  63.997  1.00  0.00    -0.076 Cl 
ENDBRANCH   5  14
BRANCH   4  22
HETATM   22  C   UNL     1      -8.292   9.224  69.360  1.00  0.00    -0.127 C  
HETATM   23  O   UNL     1      -7.469   8.401  68.963  1.00  0.00    -0.089 OA 
HETATM   24  N   UNL     1      -9.287   8.979  70.295  1.00  0.00    -0.182 N  
HETATM   25  H   UNL     1      -9.923   9.749  70.502  1.00  0.00     0.000 HD 
BRANCH  24  26
HETATM   26  N   UNL     1      -9.508   7.774  70.986  1.00  0.00    -0.155 NA 
HETATM   27  C   UNL     1      -9.913   7.917  72.381  1.00  0.00    -0.229 C  
HETATM   28  C   UNL     1     -11.424   7.878  72.581  1.00  0.00    -0.454 C  
HETATM   29  C   UNL     1     -11.992   6.580  72.023  1.00  0.00    -0.372 C  
HETATM   30  C   UNL     1     -11.637   6.438  70.547  1.00  0.00    -0.424 C  
HETATM   31  C   UNL     1     -10.147   6.673  70.260  1.00  0.00    -0.179 C  
ENDBRANCH  24  26
ENDBRANCH   4  22
TORSDOF 4
ENDMDL
MODEL       63
REMARK 921   NORMALIZED FREE ENERGY PREDICTED BY IDOCK:   -5.56 KCAL/MOL
REMARK 922        TOTAL FREE ENERGY PREDICTED BY IDOCK:   -7.75 KCAL/MOL
REMARK 923 INTER-LIGAND FREE ENERGY PREDICTED BY IDOCK:   -7.36 KCAL/MOL
REMARK 924 INTRA-LIGAND FREE ENERGY PREDICTED BY IDOCK:   -0.39 KCAL/MOL
REMARK 927      BINDING AFFINITY PREDICTED BY RF-SCORE:    0.00 PKD
ROOT
HETATM    1  C   UNL     1      -8.805  11.961  65.358  1.00  0.00     0.342 C  
HETATM    2  C   UNL     1      -9.669  12.008  66.573  1.00  0.00    -0.230 A  
HETATM    3  C   UNL     1      -9.985  10.984  67.477  1.00  0.00    -0.174 A  
HETATM    4  C   UNL     1     -10.310  13.186  67.053  1.00  0.00    -0.249 A  
HETATM    5  N   UNL     1     -10.814  11.597  68.441  1.00  0.00    -0.206 NA 
HETATM    6  N   UNL     1     -10.916  12.945  68.224  1.00  0.00    -0.244 NA 
ENDROOT
BRANCH   3   7
HETATM    7  C   UNL     1      -9.492   9.581  67.458  1.00  0.00    -0.155 A  
HETATM    8  C   UNL     1     -10.229   8.589  66.780  1.00  0.00    -0.370 A  
HETATM    9  C   UNL     1      -7.878   7.842  68.048  1.00  0.00    -0.124 A  
HETATM   10  C   UNL     1      -8.292   9.183  68.069  1.00  0.00    -0.120 A  
HETATM   11  C   UNL     1      -9.784   7.265  66.696  1.00  0.00    -0.249 A  
HETATM   12 CL   UNL     1      -8.081   5.258  67.281  1.00  0.00    -0.101 Cl 
HETATM   13  C   UNL     1      -8.613   6.892  67.347  1.00  0.00    -0.121 A  
ENDBRANCH   3   7
BRANCH   5  14
HETATM   14  C   UNL     1     -11.469  11.097  69.615  1.00  0.00    -0.310 A  
HETATM   15  C   UNL     1     -11.342   9.711  69.875  1.00  0.00    -0.200 A  
HETATM   16  C   UNL     1     -12.825   9.873  71.761  1.00  0.00    -0.442 A  
HETATM   17  C   UNL     1     -12.918  11.248  71.562  1.00  0.00    -0.520 A  
HETATM   18 CL   UNL     1     -12.089  13.593  70.639  1.00  0.00    -0.415 Cl 
HETATM   19  C   UNL     1     -12.198  11.872  70.527  1.00  0.00    -0.336 A  
HETATM   20  C   UNL     1     -12.007   9.106  70.944  1.00  0.00    -0.299 A  
HETATM   21 CL   UNL     1     -13.681   9.128  73.053  1.00  0.00    -0.120 Cl 
ENDBRANCH   5  14
BRANCH   4  22
HETATM   22  C   UNL     1     -10.341  14.541  66.429  1.00  0.00    -0.293 C  
HETATM   23  O   UNL     1     -11.056  14.795  65.462  1.00  0.00    -0.322 OA 
HETATM   24  N   UNL     1      -9.503  15.443  67.069  1.00  0.00    -0.214 N  
HETATM   25  H   UNL     1      -8.940  15.080  67.838  1.00  0.00     0.000 HD 
BRANCH  24  26
HETATM   26  N   UNL     1      -9.352  16.807  66.762  1.00  0.00    -0.235 NA 
HETATM   27  C   UNL     1     -10.388  17.687  67.294  1.00  0.00    -0.354 C  
HETATM   28  C   UNL     1     -10.017  18.325  68.628  1.00  0.00    -0.410 C  
HETATM   29  C   UNL     1      -8.717  19.106  68.490  1.00  0.00    -0.401 C  
HETATM   30  C   UNL     1      -7.601  18.193  67.996  1.00  0.00    -0.245 C  
HETATM   31  C   UNL     1      -7.998  17.367  66.764  1.00  0.00    -0.244 C  
ENDBRANCH  24  26
ENDBRANCH   4  22
TORSDOF 4
ENDMDL
MODEL       64
REMARK 921   NORMALIZED FREE ENERGY PREDICTED BY IDOCK:   -5.55 KCAL/MOL
REMARK 922        TOTAL FREE ENERGY PREDICTED BY IDOCK:   -7.74 KCAL/MOL
REMARK 923 INTER-LIGAND FREE ENERGY PREDICTED BY IDOCK:   -6.20 KCAL/MOL
REMARK 924 INTRA-LIGAND FREE ENERGY PREDICTED BY IDOCK:   -1.54 KCAL/MOL
REMARK 927      BINDING AFFINITY PREDICTED BY RF-SCORE:    0.00 PKD
ROOT
HETATM    1  C   UNL     1      -6.398  11.318  70.245  1.00  0.00    -0.073 C  
HETATM    2  C   UNL     1      -7.505  11.058  69.281  1.00  0.00    -0.100 A  
HETATM    3  C   UNL     1      -8.157  11.948  68.415  1.00  0.00    -0.155 A  
HETATM    4  C   UNL     1      -8.077   9.774  69.047  1.00  0.00    -0.101 A  
HETATM    5  N   UNL     1      -9.097  11.155  67.722  1.00  0.00    -0.147 NA 
HETATM    6  N   UNL     1      -8.964   9.832  68.044  1.00  0.00    -0.119 NA 
ENDROOT
BRANCH   3   7
HETATM    7  C   UNL     1      -7.865  13.394  68.223  1.00  0.00    -0.143 A  
HETATM    8  C   UNL     1      -8.785  14.360  68.677  1.00  0.00    -0.164 A  
HETATM    9  C   UNL     1      -6.461  15.238  67.441  1.00  0.00    -0.080 A  
HETATM   10  C   UNL     1      -6.684  13.864  67.625  1.00  0.00    -0.189 A  
HETATM   11  C   UNL     1      -8.535  15.733  68.559  1.00  0.00    -0.181 A  
HETATM   12 CL   UNL     1      -7.082  17.851  67.742  1.00  0.00    -0.201 Cl 
HETATM   13  C   UNL     1      -7.377  16.167  67.925  1.00  0.00    -0.129 A  
ENDBRANCH   3   7
BRANCH   5  14
HETATM   14  C   UNL     1     -10.067  11.463  66.711  1.00  0.00    -0.216 A  
HETATM   15  C   UNL     1      -9.807  10.973  65.408  1.00  0.00    -0.301 A  
HETATM   16  C   UNL     1     -11.742  12.105  64.538  1.00  0.00    -0.338 A  
HETATM   17  C   UNL     1     -12.051  12.550  65.821  1.00  0.00    -0.443 A  
HETATM   18 CL   UNL     1     -11.954  12.465  68.471  1.00  0.00    -0.336 Cl 
HETATM   19  C   UNL     1     -11.249  12.186  66.917  1.00  0.00    -0.320 A  
HETATM   20  C   UNL     1     -10.643  11.283  64.333  1.00  0.00    -0.410 A  
HETATM   21 CL   UNL     1     -12.752  12.528  63.211  1.00  0.00    -0.361 Cl 
ENDBRANCH   5  14
BRANCH   4  22
HETATM   22  C   UNL     1      -7.781   8.490  69.746  1.00  0.00    -0.092 C  
HETATM   23  O   UNL     1      -6.794   7.810  69.468  1.00  0.00    -0.045 OA 
HETATM   24  N   UNL     1      -8.717   8.184  70.723  1.00  0.00    -0.135 N  
HETATM   25  H   UNL     1      -9.506   8.823  70.819  1.00  0.00     0.000 HD 
BRANCH  24  26
HETATM   26  N   UNL     1      -8.688   7.080  71.594  1.00  0.00    -0.117 NA 
HETATM   27  C   UNL     1      -8.960   7.381  72.996  1.00  0.00    -0.147 C  
HETATM   28  C   UNL     1     -10.419   7.182  73.388  1.00  0.00    -0.410 C  
HETATM   29  C   UNL     1     -10.852   5.753  73.087  1.00  0.00    -0.310 C  
HETATM   30  C   UNL     1     -10.638   5.434  71.612  1.00  0.00    -0.284 C  
HETATM   31  C   UNL     1      -9.236   5.809  71.111  1.00  0.00    -0.153 C  
ENDBRANCH  24  26
ENDBRANCH   4  22
TORSDOF 4
ENDMDL
MODEL       65
REMARK 921   NORMALIZED FREE ENERGY PREDICTED BY IDOCK:   -5.49 KCAL/MOL
REMARK 922        TOTAL FREE ENERGY PREDICTED BY IDOCK:   -7.67 KCAL/MOL
REMARK 923 INTER-LIGAND FREE ENERGY PREDICTED BY IDOCK:   -6.70 KCAL/MOL
REMARK 924 INTRA-LIGAND FREE ENERGY PREDICTED BY IDOCK:   -0.97 KCAL/MOL
REMARK 927      BINDING AFFINITY PREDICTED BY RF-SCORE:    0.00 PKD
ROOT
HETATM    1  C   UNL     1      -9.971   9.929  65.245  1.00  0.00    -0.320 C  
HETATM    2  C   UNL     1      -9.896   9.364  66.623  1.00  0.00    -0.309 A  
HETATM    3  C   UNL     1      -9.221   8.222  67.079  1.00  0.00    -0.152 A  
HETATM    4  C   UNL     1     -10.503   9.959  67.766  1.00  0.00    -0.242 A  
HETATM    5  N   UNL     1      -9.473   8.183  68.467  1.00  0.00    -0.142 NA 
HETATM    6  N   UNL     1     -10.164   9.292  68.878  1.00  0.00    -0.196 NA 
ENDROOT
BRANCH   3   7
HETATM    7  C   UNL     1      -8.367   7.302  66.281  1.00  0.00    -0.129 A  
HETATM    8  C   UNL     1      -7.014   7.625  66.051  1.00  0.00    -0.065 A  
HETATM    9  C   UNL     1      -8.000   5.262  64.984  1.00  0.00    -0.103 A  
HETATM   10  C   UNL     1      -8.835   6.088  65.753  1.00  0.00    -0.143 A  
HETATM   11  C   UNL     1      -6.160   6.771  65.344  1.00  0.00    -0.035 A  
HETATM   12 CL   UNL     1      -5.628   4.561  63.895  1.00  0.00    -0.013 Cl 
HETATM   13  C   UNL     1      -6.663   5.596  64.798  1.00  0.00    -0.047 A  
ENDBRANCH   3   7
BRANCH   5  14
HETATM   14  C   UNL     1      -9.073   7.272  69.500  1.00  0.00    -0.143 A  
HETATM   15  C   UNL     1      -7.744   7.390  69.975  1.00  0.00    -0.095 A  
HETATM   16  C   UNL     1      -8.022   5.467  71.392  1.00  0.00    -0.112 A  
HETATM   17  C   UNL     1      -9.351   5.368  70.985  1.00  0.00    -0.188 A  
HETATM   18 CL   UNL     1     -11.621   6.300  69.978  1.00  0.00    -0.470 Cl 
HETATM   19  C   UNL     1      -9.896   6.300  70.085  1.00  0.00    -0.170 A  
HETATM   20  C   UNL     1      -7.227   6.501  70.919  1.00  0.00    -0.071 A  
HETATM   21 CL   UNL     1      -7.380   4.342  72.523  1.00  0.00    -0.071 Cl 
ENDBRANCH   5  14
BRANCH   4  22
HETATM   22  C   UNL     1     -11.384  11.162  67.823  1.00  0.00    -0.293 C  
HETATM   23  O   UNL     1     -12.328  11.240  68.607  1.00  0.00    -0.534 OA 
HETATM   24  N   UNL     1     -11.003  12.146  66.923  1.00  0.00    -0.256 N  
HETATM   25  H   UNL     1     -10.221  11.927  66.307  1.00  0.00     0.000 HD 
BRANCH  24  26
HETATM   26  N   UNL     1     -11.590  13.416  66.774  1.00  0.00    -0.346 NA 
HETATM   27  C   UNL     1     -10.709  14.548  67.045  1.00  0.00    -0.291 C  
HETATM   28  C   UNL     1     -10.047  15.115  65.795  1.00  0.00    -0.373 C  
HETATM   29  C   UNL     1     -11.108  15.534  64.785  1.00  0.00    -0.421 C  
HETATM   30  C   UNL     1     -12.002  14.350  64.436  1.00  0.00    -0.471 C  
HETATM   31  C   UNL     1     -12.535  13.611  65.672  1.00  0.00    -0.496 C  
ENDBRANCH  24  26
ENDBRANCH   4  22
TORSDOF 4
ENDMDL
MODEL       66
REMARK 921   NORMALIZED FREE ENERGY PREDICTED BY IDOCK:   -5.46 KCAL/MOL
REMARK 922        TOTAL FREE ENERGY PREDICTED BY IDOCK:   -7.63 KCAL/MOL
REMARK 923 INTER-LIGAND FREE ENERGY PREDICTED BY IDOCK:   -6.92 KCAL/MOL
REMARK 924 INTRA-LIGAND FREE ENERGY PREDICTED BY IDOCK:   -0.71 KCAL/MOL
REMARK 927      BINDING AFFINITY PREDICTED BY RF-SCORE:    0.00 PKD
ROOT
HETATM    1  C   UNL     1     -10.722   9.204  67.582  1.00  0.00    -0.257 C  
HETATM    2  C   UNL     1     -10.234  10.510  67.053  1.00  0.00    -0.275 A  
HETATM    3  C   UNL     1     -10.470  11.806  67.534  1.00  0.00    -0.202 A  
HETATM    4  C   UNL     1      -9.366  10.645  65.931  1.00  0.00    -0.190 A  
HETATM    5  N   UNL     1      -9.745  12.651  66.665  1.00  0.00    -0.243 NA 
HETATM    6  N   UNL     1      -9.008  11.926  65.768  1.00  0.00    -0.037 NA 
ENDROOT
BRANCH   3   7
HETATM    7  C   UNL     1     -11.251  12.192  68.739  1.00  0.00    -0.314 A  
HETATM    8  C   UNL     1     -11.728  13.512  68.872  1.00  0.00    -0.379 A  
HETATM    9  C   UNL     1     -12.290  11.702  70.898  1.00  0.00    -0.436 A  
HETATM   10  C   UNL     1     -11.572  11.288  69.765  1.00  0.00    -0.408 A  
HETATM   11  C   UNL     1     -12.505  13.911  69.966  1.00  0.00    -0.325 A  
HETATM   12 CL   UNL     1     -13.691  13.500  72.351  1.00  0.00    -0.683 Cl 
HETATM   13  C   UNL     1     -12.770  13.005  70.986  1.00  0.00    -0.262 A  
ENDBRANCH   3   7
BRANCH   5  14
HETATM   14  C   UNL     1      -9.578  14.075  66.613  1.00  0.00    -0.289 A  
HETATM   15  C   UNL     1      -8.557  14.627  67.424  1.00  0.00    -0.212 A  
HETATM   16  C   UNL     1      -9.198  16.860  66.806  1.00  0.00    -0.247 A  
HETATM   17  C   UNL     1     -10.170  16.339  65.956  1.00  0.00    -0.376 A  
HETATM   18 CL   UNL     1     -11.273  14.448  64.457  1.00  0.00    -0.345 Cl 
HETATM   19  C   UNL     1     -10.326  14.949  65.813  1.00  0.00    -0.332 A  
HETATM   20  C   UNL     1      -8.362  16.007  67.512  1.00  0.00    -0.177 A  
HETATM   21 CL   UNL     1      -8.994  18.563  66.942  1.00  0.00    -0.272 Cl 
ENDBRANCH   5  14
BRANCH   4  22
HETATM   22  C   UNL     1      -8.856   9.576  65.024  1.00  0.00    -0.195 C  
HETATM   23  O   UNL     1      -9.324   9.399  63.901  1.00  0.00    -0.071 OA 
HETATM   24  N   UNL     1      -7.816   8.850  65.586  1.00  0.00    -0.094 N  
HETATM   25  H   UNL     1      -7.556   9.086  66.543  1.00  0.00     0.000 HD 
BRANCH  24  26
HETATM   26  N   UNL     1      -7.085   7.821  64.966  1.00  0.00    -0.059 NA 
HETATM   27  C   UNL     1      -5.642   7.859  65.186  1.00  0.00    -0.037 C  
HETATM   28  C   UNL     1      -5.181   6.985  66.346  1.00  0.00    -0.022 C  
HETATM   29  C   UNL     1      -5.618   5.543  66.121  1.00  0.00    -0.013 C  
HETATM   30  C   UNL     1      -7.131   5.468  65.953  1.00  0.00    -0.068 C  
HETATM   31  C   UNL     1      -7.676   6.480  64.935  1.00  0.00    -0.105 C  
ENDBRANCH  24  26
ENDBRANCH   4  22
TORSDOF 4
ENDMDL
MODEL       67
REMARK 921   NORMALIZED FREE ENERGY PREDICTED BY IDOCK:   -5.45 KCAL/MOL
REMARK 922        TOTAL FREE ENERGY PREDICTED BY IDOCK:   -7.62 KCAL/MOL
REMARK 923 INTER-LIGAND FREE ENERGY PREDICTED BY IDOCK:   -6.17 KCAL/MOL
REMARK 924 INTRA-LIGAND FREE ENERGY PREDICTED BY IDOCK:   -1.45 KCAL/MOL
REMARK 927      BINDING AFFINITY PREDICTED BY RF-SCORE:    0.00 PKD
ROOT
HETATM    1  C   UNL     1     -10.876   7.484  67.124  1.00  0.00    -0.298 C  
HETATM    2  C   UNL     1      -9.769   8.365  67.592  1.00  0.00    -0.201 A  
HETATM    3  C   UNL     1      -9.416   9.653  67.162  1.00  0.00    -0.148 A  
HETATM    4  C   UNL     1      -8.868   8.029  68.644  1.00  0.00    -0.134 A  
HETATM    5  N   UNL     1      -8.312  10.013  67.966  1.00  0.00    -0.116 NA 
HETATM    6  N   UNL     1      -8.061   9.063  68.919  1.00  0.00    -0.103 NA 
ENDROOT
BRANCH   3   7
HETATM    7  C   UNL     1     -10.105  10.480  66.135  1.00  0.00    -0.306 A  
HETATM    8  C   UNL     1     -11.025  11.469  66.536  1.00  0.00    -0.346 A  
HETATM    9  C   UNL     1     -10.558  11.130  63.822  1.00  0.00    -0.422 A  
HETATM   10  C   UNL     1      -9.866  10.346  64.758  1.00  0.00    -0.406 A  
HETATM   11  C   UNL     1     -11.665  12.302  65.610  1.00  0.00    -0.440 A  
HETATM   12 CL   UNL     1     -12.252  13.111  63.107  1.00  0.00    -0.489 Cl 
HETATM   13  C   UNL     1     -11.440  12.117  64.251  1.00  0.00    -0.367 A  
ENDBRANCH   3   7
BRANCH   5  14
HETATM   14  C   UNL     1      -7.496  11.191  68.020  1.00  0.00    -0.094 A  
HETATM   15  C   UNL     1      -8.050  12.321  68.671  1.00  0.00    -0.029 A  
HETATM   16  C   UNL     1      -6.143  13.662  68.081  1.00  0.00    -0.118 A  
HETATM   17  C   UNL     1      -5.551  12.549  67.488  1.00  0.00    -0.131 A  
HETATM   18 CL   UNL     1      -5.201   9.948  67.099  1.00  0.00    -0.041 Cl 
HETATM   19  C   UNL     1      -6.198  11.301  67.505  1.00  0.00    -0.064 A  
HETATM   20  C   UNL     1      -7.375  13.542  68.709  1.00  0.00    -0.086 A  
HETATM   21 CL   UNL     1      -5.324  15.174  68.086  1.00  0.00    -0.121 Cl 
ENDBRANCH   5  14
BRANCH   4  22
HETATM   22  C   UNL     1      -8.775   6.749  69.406  1.00  0.00    -0.136 C  
HETATM   23  O   UNL     1      -8.472   5.689  68.861  1.00  0.00    -0.102 OA 
HETATM   24  N   UNL     1      -9.048   6.910  70.757  1.00  0.00    -0.154 N  
HETATM   25  H   UNL     1      -9.322   7.843  71.062  1.00  0.00     0.000 HD 
BRANCH  24  26
HETATM   26  N   UNL     1      -8.985   5.913  71.747  1.00  0.00    -0.139 NA 
HETATM   27  C   UNL     1      -8.229   6.267  72.944  1.00  0.00    -0.115 C  
HETATM   28  C   UNL     1      -9.098   6.813  74.071  1.00  0.00    -0.209 C  
HETATM   29  C   UNL     1     -10.176   5.802  74.438  1.00  0.00    -0.296 C  
HETATM   30  C   UNL     1     -11.022   5.464  73.217  1.00  0.00    -0.358 C  
HETATM   31  C   UNL     1     -10.183   5.102  71.983  1.00  0.00    -0.202 C  
ENDBRANCH  24  26
ENDBRANCH   4  22
TORSDOF 4
ENDMDL
MODEL       68
REMARK 921   NORMALIZED FREE ENERGY PREDICTED BY IDOCK:   -5.45 KCAL/MOL
REMARK 922        TOTAL FREE ENERGY PREDICTED BY IDOCK:   -7.62 KCAL/MOL
REMARK 923 INTER-LIGAND FREE ENERGY PREDICTED BY IDOCK:   -6.66 KCAL/MOL
REMARK 924 INTRA-LIGAND FREE ENERGY PREDICTED BY IDOCK:   -0.96 KCAL/MOL
REMARK 927      BINDING AFFINITY PREDICTED BY RF-SCORE:    0.00 PKD
ROOT
HETATM    1  C   UNL     1      -9.034   8.750  65.117  1.00  0.00    -0.152 C  
HETATM    2  C   UNL     1      -9.471   8.570  66.532  1.00  0.00    -0.282 A  
HETATM    3  C   UNL     1      -9.244   7.493  67.401  1.00  0.00    -0.132 A  
HETATM    4  C   UNL     1     -10.195   9.546  67.276  1.00  0.00    -0.234 A  
HETATM    5  N   UNL     1      -9.859   7.871  68.613  1.00  0.00    -0.166 NA 
HETATM    6  N   UNL     1     -10.340   9.151  68.549  1.00  0.00    -0.203 NA 
ENDROOT
BRANCH   3   7
HETATM    7  C   UNL     1      -8.462   6.259  67.121  1.00  0.00    -0.108 A  
HETATM    8  C   UNL     1      -7.065   6.258  67.310  1.00  0.00    -0.073 A  
HETATM    9  C   UNL     1      -8.272   3.925  66.416  1.00  0.00    -0.104 A  
HETATM   10  C   UNL     1      -9.052   5.059  66.693  1.00  0.00    -0.119 A  
HETATM   11  C   UNL     1      -6.292   5.109  67.102  1.00  0.00    -0.036 A  
HETATM   12 CL   UNL     1      -5.949   2.545  66.345  1.00  0.00    -0.023 Cl 
HETATM   13  C   UNL     1      -6.899   3.948  66.639  1.00  0.00    -0.058 A  
ENDBRANCH   3   7
BRANCH   5  14
HETATM   14  C   UNL     1      -9.986   7.214  69.882  1.00  0.00    -0.182 A  
HETATM   15  C   UNL     1     -11.221   6.571  70.146  1.00  0.00    -0.437 A  
HETATM   16  C   UNL     1     -10.518   6.023  72.380  1.00  0.00    -0.201 A  
HETATM   17  C   UNL     1      -9.275   6.597  72.123  1.00  0.00    -0.138 A  
HETATM   18 CL   UNL     1      -7.312   7.451  70.557  1.00  0.00    -0.075 Cl 
HETATM   19  C   UNL     1      -8.986   7.142  70.860  1.00  0.00    -0.151 A  
HETATM   20  C   UNL     1     -11.480   5.973  71.381  1.00  0.00    -0.265 A  
HETATM   21 CL   UNL     1     -10.846   5.327  73.918  1.00  0.00    -0.318 Cl 
ENDBRANCH   5  14
BRANCH   4  22
HETATM   22  C   UNL     1     -10.735  10.854  66.804  1.00  0.00    -0.252 C  
HETATM   23  O   UNL     1     -11.877  11.221  67.074  1.00  0.00    -0.484 OA 
HETATM   24  N   UNL     1      -9.812  11.578  66.064  1.00  0.00    -0.217 N  
HETATM   25  H   UNL     1      -8.912  11.131  65.888  1.00  0.00     0.000 HD 
BRANCH  24  26
HETATM   26  N   UNL     1      -9.992  12.868  65.533  1.00  0.00    -0.250 NA 
HETATM   27  C   UNL     1     -10.572  12.918  64.194  1.00  0.00    -0.416 C  
HETATM   28  C   UNL     1     -12.084  13.107  64.194  1.00  0.00    -0.496 C  
HETATM   29  C   UNL     1     -12.452  14.378  64.949  1.00  0.00    -0.368 C  
HETATM   30  C   UNL     1     -11.913  14.322  66.373  1.00  0.00    -0.438 C  
HETATM   31  C   UNL     1     -10.429  13.930  66.442  1.00  0.00    -0.284 C  
ENDBRANCH  24  26
ENDBRANCH   4  22
TORSDOF 4
ENDMDL
MODEL       69
REMARK 921   NORMALIZED FREE ENERGY PREDICTED BY IDOCK:   -5.42 KCAL/MOL
REMARK 922        TOTAL FREE ENERGY PREDICTED BY IDOCK:   -7.58 KCAL/MOL
REMARK 923 INTER-LIGAND FREE ENERGY PREDICTED BY IDOCK:   -6.64 KCAL/MOL
REMARK 924 INTRA-LIGAND FREE ENERGY PREDICTED BY IDOCK:   -0.94 KCAL/MOL
REMARK 927      BINDING AFFINITY PREDICTED BY RF-SCORE:    0.00 PKD
ROOT
HETATM    1  C   UNL     1      -9.208  16.498  66.218  1.00  0.00    -0.345 C  
HETATM    2  C   UNL     1      -8.851  15.312  67.048  1.00  0.00    -0.261 A  
HETATM    3  C   UNL     1      -9.344  14.001  66.981  1.00  0.00    -0.250 A  
HETATM    4  C   UNL     1      -7.861  15.321  68.073  1.00  0.00    -0.132 A  
HETATM    5  N   UNL     1      -8.637  13.298  67.981  1.00  0.00    -0.169 NA 
HETATM    6  N   UNL     1      -7.679  14.086  68.559  1.00  0.00    -0.134 NA 
ENDROOT
BRANCH   3   7
HETATM    7  C   UNL     1     -10.339  13.460  66.017  1.00  0.00    -0.297 A  
HETATM    8  C   UNL     1      -9.912  12.623  64.967  1.00  0.00    -0.179 A  
HETATM    9  C   UNL     1     -12.616  13.212  65.161  1.00  0.00    -0.525 A  
HETATM   10  C   UNL     1     -11.715  13.722  66.109  1.00  0.00    -0.392 A  
HETATM   11  C   UNL     1     -10.815  12.054  64.060  1.00  0.00    -0.433 A  
HETATM   12 CL   UNL     1     -13.276  11.702  63.019  1.00  0.00     0.281 Cl 
HETATM   13  C   UNL     1     -12.167  12.366  64.152  1.00  0.00    -0.468 A  
ENDBRANCH   3   7
BRANCH   5  14
HETATM   14  C   UNL     1      -8.679  11.933  68.420  1.00  0.00    -0.157 A  
HETATM   15  C   UNL     1      -7.446  11.236  68.454  1.00  0.00    -0.108 A  
HETATM   16  C   UNL     1      -8.556   9.194  69.072  1.00  0.00    -0.133 A  
HETATM   17  C   UNL     1      -9.772   9.872  69.103  1.00  0.00    -0.204 A  
HETATM   18 CL   UNL     1     -11.305  12.029  69.290  1.00  0.00    -0.323 Cl 
HETATM   19  C   UNL     1      -9.830  11.251  68.834  1.00  0.00    -0.139 A  
HETATM   20  C   UNL     1      -7.385   9.881  68.786  1.00  0.00    -0.078 A  
HETATM   21 CL   UNL     1      -8.494   7.515  69.440  1.00  0.00    -0.132 Cl 
ENDBRANCH   5  14
BRANCH   4  22
HETATM   22  C   UNL     1      -7.072  16.480  68.585  1.00  0.00    -0.175 C  
HETATM   23  O   UNL     1      -6.636  16.512  69.734  1.00  0.00    -0.211 OA 
HETATM   24  N   UNL     1      -6.889  17.467  67.627  1.00  0.00    -0.152 N  
HETATM   25  H   UNL     1      -7.341  17.320  66.725  1.00  0.00     0.000 HD 
BRANCH  24  26
HETATM   26  N   UNL     1      -6.143  18.649  67.777  1.00  0.00    -0.188 NA 
HETATM   27  C   UNL     1      -5.197  18.933  66.703  1.00  0.00    -0.136 C  
HETATM   28  C   UNL     1      -5.757  19.860  65.630  1.00  0.00    -0.194 C  
HETATM   29  C   UNL     1      -6.214  21.171  66.257  1.00  0.00    -0.310 C  
HETATM   30  C   UNL     1      -7.253  20.906  67.340  1.00  0.00    -0.396 C  
HETATM   31  C   UNL     1      -6.820  19.822  68.338  1.00  0.00    -0.297 C  
ENDBRANCH  24  26
ENDBRANCH   4  22
TORSDOF 4
ENDMDL
MODEL       70
REMARK 921   NORMALIZED FREE ENERGY PREDICTED BY IDOCK:   -5.41 KCAL/MOL
REMARK 922        TOTAL FREE ENERGY PREDICTED BY IDOCK:   -7.56 KCAL/MOL
REMARK 923 INTER-LIGAND FREE ENERGY PREDICTED BY IDOCK:   -7.51 KCAL/MOL
REMARK 924 INTRA-LIGAND FREE ENERGY PREDICTED BY IDOCK:   -0.05 KCAL/MOL
REMARK 927      BINDING AFFINITY PREDICTED BY RF-SCORE:    0.00 PKD
ROOT
HETATM    1  C   UNL     1      -8.561  10.221  65.942  1.00  0.00    -0.160 C  
HETATM    2  C   UNL     1      -9.538  10.449  67.046  1.00  0.00    -0.197 A  
HETATM    3  C   UNL     1      -9.976  11.656  67.608  1.00  0.00    -0.188 A  
HETATM    4  C   UNL     1     -10.251   9.410  67.711  1.00  0.00    -0.222 A  
HETATM    5  N   UNL     1     -10.914  11.277  68.592  1.00  0.00    -0.200 NA 
HETATM    6  N   UNL     1     -11.139   9.927  68.570  1.00  0.00    -0.176 NA 
ENDROOT
BRANCH   3   7
HETATM    7  C   UNL     1      -9.587  13.033  67.201  1.00  0.00    -0.230 A  
HETATM    8  C   UNL     1      -8.539  13.692  67.874  1.00  0.00    -0.181 A  
HETATM    9  C   UNL     1      -9.820  15.030  65.808  1.00  0.00    -0.386 A  
HETATM   10  C   UNL     1     -10.202  13.721  66.142  1.00  0.00    -0.305 A  
HETATM   11  C   UNL     1      -8.107  14.970  67.498  1.00  0.00    -0.200 A  
HETATM   12 CL   UNL     1      -8.264  17.228  66.033  1.00  0.00    -0.244 Cl 
HETATM   13  C   UNL     1      -8.763  15.642  66.473  1.00  0.00    -0.307 A  
ENDBRANCH   3   7
BRANCH   5  14
HETATM   14  C   UNL     1     -11.712  12.034  69.514  1.00  0.00    -0.342 A  
HETATM   15  C   UNL     1     -11.886  13.410  69.226  1.00  0.00    -0.385 A  
HETATM   16  C   UNL     1     -13.083  13.744  71.285  1.00  0.00    -0.297 A  
HETATM   17  C   UNL     1     -12.976  12.383  71.561  1.00  0.00    -0.385 A  
HETATM   18 CL   UNL     1     -12.626   9.832  70.921  1.00  0.00    -0.368 Cl 
HETATM   19  C   UNL     1     -12.342  11.516  70.653  1.00  0.00    -0.364 A  
HETATM   20  C   UNL     1     -12.574  14.255  70.100  1.00  0.00    -0.338 A  
HETATM   21 CL   UNL     1     -13.894  14.786  72.386  1.00  0.00    -0.547 Cl 
ENDBRANCH   5  14
BRANCH   4  22
HETATM   22  C   UNL     1     -10.116   7.935  67.530  1.00  0.00    -0.213 C  
HETATM   23  O   UNL     1     -11.093   7.211  67.344  1.00  0.00    -0.247 OA 
HETATM   24  N   UNL     1      -8.797   7.508  67.580  1.00  0.00    -0.128 N  
HETATM   25  H   UNL     1      -8.092   8.218  67.778  1.00  0.00     0.000 HD 
BRANCH  24  26
HETATM   26  N   UNL     1      -8.336   6.194  67.386  1.00  0.00    -0.109 NA 
HETATM   27  C   UNL     1      -8.355   5.342  68.571  1.00  0.00    -0.089 C  
HETATM   28  C   UNL     1      -9.613   4.489  68.686  1.00  0.00    -0.222 C  
HETATM   29  C   UNL     1      -9.774   3.624  67.443  1.00  0.00    -0.106 C  
HETATM   30  C   UNL     1      -9.822   4.497  66.194  1.00  0.00    -0.243 C  
HETATM   31  C   UNL     1      -8.681   5.523  66.130  1.00  0.00    -0.133 C  
ENDBRANCH  24  26
ENDBRANCH   4  22
TORSDOF 4
ENDMDL
MODEL       71
REMARK 921   NORMALIZED FREE ENERGY PREDICTED BY IDOCK:   -5.35 KCAL/MOL
REMARK 922        TOTAL FREE ENERGY PREDICTED BY IDOCK:   -7.49 KCAL/MOL
REMARK 923 INTER-LIGAND FREE ENERGY PREDICTED BY IDOCK:   -6.71 KCAL/MOL
REMARK 924 INTRA-LIGAND FREE ENERGY PREDICTED BY IDOCK:   -0.78 KCAL/MOL
REMARK 927      BINDING AFFINITY PREDICTED BY RF-SCORE:    0.00 PKD
ROOT
HETATM    1  C   UNL     1      -9.482  11.348  66.111  1.00  0.00    -0.237 C  
HETATM    2  C   UNL     1      -9.651  10.739  67.462  1.00  0.00    -0.176 A  
HETATM    3  C   UNL     1      -9.238   9.483  67.927  1.00  0.00    -0.125 A  
HETATM    4  C   UNL     1     -10.259  11.401  68.567  1.00  0.00    -0.208 A  
HETATM    5  N   UNL     1      -9.636   9.450  69.281  1.00  0.00    -0.165 NA 
HETATM    6  N   UNL     1     -10.160  10.652  69.674  1.00  0.00    -0.145 NA 
ENDROOT
BRANCH   3   7
HETATM    7  C   UNL     1      -8.481   8.447  67.174  1.00  0.00    -0.123 A  
HETATM    8  C   UNL     1      -9.161   7.594  66.282  1.00  0.00    -0.204 A  
HETATM    9  C   UNL     1      -6.420   7.276  66.572  1.00  0.00    -0.052 A  
HETATM   10  C   UNL     1      -7.090   8.284  67.283  1.00  0.00    -0.079 A  
HETATM   11  C   UNL     1      -8.487   6.634  65.517  1.00  0.00    -0.135 A  
HETATM   12 CL   UNL     1      -6.288   5.265  64.772  1.00  0.00    -0.033 Cl 
HETATM   13  C   UNL     1      -7.116   6.468  65.679  1.00  0.00    -0.061 A  
ENDBRANCH   3   7
BRANCH   5  14
HETATM   14  C   UNL     1      -9.513   8.452  70.304  1.00  0.00    -0.164 A  
HETATM   15  C   UNL     1      -8.989   8.877  71.550  1.00  0.00    -0.275 A  
HETATM   16  C   UNL     1      -9.012   6.625  72.390  1.00  0.00    -0.135 A  
HETATM   17  C   UNL     1      -9.583   6.191  71.196  1.00  0.00    -0.193 A  
HETATM   18 CL   UNL     1     -10.936   6.512  68.936  1.00  0.00    -0.354 Cl 
HETATM   19  C   UNL     1      -9.887   7.108  70.174  1.00  0.00    -0.179 A  
HETATM   20  C   UNL     1      -8.750   7.973  72.586  1.00  0.00    -0.250 A  
HETATM   21 CL   UNL     1      -8.680   5.497  73.646  1.00  0.00    -0.123 Cl 
ENDBRANCH   5  14
BRANCH   4  22
HETATM   22  C   UNL     1     -10.916  12.741  68.595  1.00  0.00    -0.260 C  
HETATM   23  O   UNL     1     -10.795  13.543  67.670  1.00  0.00    -0.254 OA 
HETATM   24  N   UNL     1     -11.663  12.947  69.746  1.00  0.00    -0.440 N  
HETATM   25  H   UNL     1     -11.641  12.205  70.445  1.00  0.00     0.000 HD 
BRANCH  24  26
HETATM   26  N   UNL     1     -12.445  14.077  70.044  1.00  0.00    -0.323 NA 
HETATM   27  C   UNL     1     -13.216  13.996  71.281  1.00  0.00    -0.303 C  
HETATM   28  C   UNL     1     -12.512  14.625  72.477  1.00  0.00    -0.379 C  
HETATM   29  C   UNL     1     -12.185  16.084  72.183  1.00  0.00    -0.597 C  
HETATM   30  C   UNL     1     -11.325  16.191  70.930  1.00  0.00    -0.394 C  
HETATM   31  C   UNL     1     -11.888  15.398  69.742  1.00  0.00    -0.347 C  
ENDBRANCH  24  26
ENDBRANCH   4  22
TORSDOF 4
ENDMDL
MODEL       72
REMARK 921   NORMALIZED FREE ENERGY PREDICTED BY IDOCK:   -5.34 KCAL/MOL
REMARK 922        TOTAL FREE ENERGY PREDICTED BY IDOCK:   -7.48 KCAL/MOL
REMARK 923 INTER-LIGAND FREE ENERGY PREDICTED BY IDOCK:   -6.07 KCAL/MOL
REMARK 924 INTRA-LIGAND FREE ENERGY PREDICTED BY IDOCK:   -1.41 KCAL/MOL
REMARK 927      BINDING AFFINITY PREDICTED BY RF-SCORE:    0.00 PKD
ROOT
HETATM    1  C   UNL     1     -10.222   8.668  67.534  1.00  0.00    -0.308 C  
HETATM    2  C   UNL     1      -9.485   9.885  67.981  1.00  0.00    -0.147 A  
HETATM    3  C   UNL     1      -9.532  11.189  67.470  1.00  0.00    -0.168 A  
HETATM    4  C   UNL     1      -8.596   9.917  69.094  1.00  0.00    -0.157 A  
HETATM    5  N   UNL     1      -8.656  11.931  68.291  1.00  0.00    -0.160 NA 
HETATM    6  N   UNL     1      -8.179  11.170  69.324  1.00  0.00     0.006 NA 
ENDROOT
BRANCH   3   7
HETATM    7  C   UNL     1     -10.379  11.689  66.353  1.00  0.00    -0.266 A  
HETATM    8  C   UNL     1      -9.954  11.515  65.021  1.00  0.00    -0.305 A  
HETATM    9  C   UNL     1     -12.374  12.795  65.472  1.00  0.00    -0.495 A  
HETATM   10  C   UNL     1     -11.619  12.316  66.555  1.00  0.00    -0.440 A  
HETATM   11  C   UNL     1     -10.737  11.928  63.936  1.00  0.00    -0.450 A  
HETATM   12 CL   UNL     1     -12.887  13.128  62.840  1.00  0.00     0.459 Cl 
HETATM   13  C   UNL     1     -11.940  12.584  64.167  1.00  0.00    -0.429 A  
ENDBRANCH   3   7
BRANCH   5  14
HETATM   14  C   UNL     1      -8.261  13.310  68.290  1.00  0.00    -0.156 A  
HETATM   15  C   UNL     1      -7.012  13.616  67.697  1.00  0.00    -0.183 A  
HETATM   16  C   UNL     1      -7.209  15.924  68.344  1.00  0.00    -0.121 A  
HETATM   17  C   UNL     1      -8.467  15.660  68.880  1.00  0.00    -0.213 A  
HETATM   18 CL   UNL     1     -10.713  14.273  69.141  1.00  0.00    -0.254 Cl 
HETATM   19  C   UNL     1      -9.020  14.369  68.805  1.00  0.00    -0.131 A  
HETATM   20  C   UNL     1      -6.495  14.913  67.716  1.00  0.00    -0.183 A  
HETATM   21 CL   UNL     1      -6.560  17.515  68.409  1.00  0.00    -0.184 Cl 
ENDBRANCH   5  14
BRANCH   4  22
HETATM   22  C   UNL     1      -8.151   8.783  69.955  1.00  0.00    -0.109 C  
HETATM   23  O   UNL     1      -7.052   8.250  69.811  1.00  0.00    -0.054 OA 
HETATM   24  N   UNL     1      -9.095   8.434  70.910  1.00  0.00    -0.150 N  
HETATM   25  H   UNL     1      -9.979   8.942  70.888  1.00  0.00     0.000 HD 
BRANCH  24  26
HETATM   26  N   UNL     1      -8.953   7.451  71.906  1.00  0.00    -0.125 NA 
HETATM   27  C   UNL     1      -9.622   7.740  73.171  1.00  0.00    -0.275 C  
HETATM   28  C   UNL     1     -11.012   7.123  73.278  1.00  0.00    -0.325 C  
HETATM   29  C   UNL     1     -10.930   5.614  73.086  1.00  0.00    -0.326 C  
HETATM   30  C   UNL     1     -10.293   5.286  71.741  1.00  0.00    -0.277 C  
HETATM   31  C   UNL     1      -8.982   6.046  71.492  1.00  0.00    -0.143 C  
ENDBRANCH  24  26
ENDBRANCH   4  22
TORSDOF 4
ENDMDL
MODEL       73
REMARK 921   NORMALIZED FREE ENERGY PREDICTED BY IDOCK:   -5.33 KCAL/MOL
REMARK 922        TOTAL FREE ENERGY PREDICTED BY IDOCK:   -7.47 KCAL/MOL
REMARK 923 INTER-LIGAND FREE ENERGY PREDICTED BY IDOCK:   -6.63 KCAL/MOL
REMARK 924 INTRA-LIGAND FREE ENERGY PREDICTED BY IDOCK:   -0.84 KCAL/MOL
REMARK 927      BINDING AFFINITY PREDICTED BY RF-SCORE:    0.00 PKD
ROOT
HETATM    1  C   UNL     1      -8.967  16.354  69.323  1.00  0.00    -0.130 C  
HETATM    2  C   UNL     1      -9.357  15.820  67.987  1.00  0.00    -0.197 A  
HETATM    3  C   UNL     1     -10.133  14.694  67.673  1.00  0.00    -0.228 A  
HETATM    4  C   UNL     1      -9.014  16.434  66.747  1.00  0.00    -0.236 A  
HETATM    5  N   UNL     1     -10.200  14.683  66.263  1.00  0.00    -0.281 NA 
HETATM    6  N   UNL     1      -9.604  15.794  65.728  1.00  0.00    -0.335 NA 
ENDROOT
BRANCH   3   7
HETATM    7  C   UNL     1     -10.798  13.765  68.625  1.00  0.00    -0.280 A  
HETATM    8  C   UNL     1     -11.709  14.270  69.575  1.00  0.00    -0.366 A  
HETATM    9  C   UNL     1     -11.215  11.539  69.549  1.00  0.00    -0.305 A  
HETATM   10  C   UNL     1     -10.585  12.377  68.615  1.00  0.00    -0.243 A  
HETATM   11  C   UNL     1     -12.393  13.430  70.462  1.00  0.00    -0.401 A  
HETATM   12 CL   UNL     1     -12.937  11.033  71.569  1.00  0.00    -0.553 Cl 
HETATM   13  C   UNL     1     -12.129  12.065  70.456  1.00  0.00    -0.311 A  
ENDBRANCH   3   7
BRANCH   5  14
HETATM   14  C   UNL     1     -10.834  13.798  65.329  1.00  0.00    -0.324 A  
HETATM   15  C   UNL     1     -11.825  14.361  64.489  1.00  0.00    -0.463 A  
HETATM   16  C   UNL     1     -12.334  12.205  63.553  1.00  0.00    -0.574 A  
HETATM   17  C   UNL     1     -11.324  11.638  64.326  1.00  0.00    -0.361 A  
HETATM   18 CL   UNL     1      -9.089  11.691  65.755  1.00  0.00    -0.173 Cl 
HETATM   19  C   UNL     1     -10.535  12.438  65.171  1.00  0.00    -0.292 A  
HETATM   20  C   UNL     1     -12.562  13.573  63.602  1.00  0.00    -0.121 A  
HETATM   21 CL   UNL     1     -13.267  11.221  62.495  1.00  0.00     1.868 Cl 
ENDBRANCH   5  14
BRANCH   4  22
HETATM   22  C   UNL     1      -8.153  17.630  66.517  1.00  0.00    -0.270 C  
HETATM   23  O   UNL     1      -8.620  18.707  66.153  1.00  0.00    -0.447 OA 
HETATM   24  N   UNL     1      -6.812  17.381  66.772  1.00  0.00    -0.189 N  
HETATM   25  H   UNL     1      -6.564  16.426  67.033  1.00  0.00     0.000 HD 
BRANCH  24  26
HETATM   26  N   UNL     1      -5.761  18.313  66.707  1.00  0.00    -0.137 NA 
HETATM   27  C   UNL     1      -5.408  18.765  65.364  1.00  0.00    -0.176 C  
HETATM   28  C   UNL     1      -6.094  20.065  64.962  1.00  0.00    -0.289 C  
HETATM   29  C   UNL     1      -5.764  21.163  65.965  1.00  0.00    -0.293 C  
HETATM   30  C   UNL     1      -6.183  20.741  67.368  1.00  0.00    -0.333 C  
HETATM   31  C   UNL     1      -5.686  19.339  67.750  1.00  0.00    -0.189 C  
ENDBRANCH  24  26
ENDBRANCH   4  22
TORSDOF 4
ENDMDL
MODEL       74
REMARK 921   NORMALIZED FREE ENERGY PREDICTED BY IDOCK:   -5.33 KCAL/MOL
REMARK 922        TOTAL FREE ENERGY PREDICTED BY IDOCK:   -7.46 KCAL/MOL
REMARK 923 INTER-LIGAND FREE ENERGY PREDICTED BY IDOCK:   -6.48 KCAL/MOL
REMARK 924 INTRA-LIGAND FREE ENERGY PREDICTED BY IDOCK:   -0.99 KCAL/MOL
REMARK 927      BINDING AFFINITY PREDICTED BY RF-SCORE:    0.00 PKD
ROOT
HETATM    1  C   UNL     1     -12.123  10.380  71.261  1.00  0.00    -0.461 C  
HETATM    2  C   UNL     1     -11.404   9.956  70.025  1.00  0.00    -0.303 A  
HETATM    3  C   UNL     1     -10.902  10.740  68.977  1.00  0.00    -0.235 A  
HETATM    4  C   UNL     1     -11.059   8.607  69.724  1.00  0.00    -0.067 A  
HETATM    5  N   UNL     1     -10.298   9.819  68.094  1.00  0.00    -0.191 NA 
HETATM    6  N   UNL     1     -10.316   8.551  68.610  1.00  0.00    -0.205 NA 
ENDROOT
BRANCH   3   7
HETATM    7  C   UNL     1     -10.936  12.223  68.865  1.00  0.00    -0.265 A  
HETATM    8  C   UNL     1      -9.820  12.912  68.348  1.00  0.00    -0.197 A  
HETATM    9  C   UNL     1     -12.032  14.393  69.130  1.00  0.00    -0.357 A  
HETATM   10  C   UNL     1     -12.053  12.993  69.229  1.00  0.00    -0.251 A  
HETATM   11  C   UNL     1      -9.822  14.302  68.182  1.00  0.00    -0.226 A  
HETATM   12 CL   UNL     1     -10.918  16.752  68.425  1.00  0.00    -0.354 Cl 
HETATM   13  C   UNL     1     -10.926  15.041  68.590  1.00  0.00    -0.257 A  
ENDBRANCH   3   7
BRANCH   5  14
HETATM   14  C   UNL     1      -9.615   9.980  66.843  1.00  0.00    -0.175 A  
HETATM   15  C   UNL     1     -10.395  10.412  65.742  1.00  0.00    -0.257 A  
HETATM   16  C   UNL     1      -8.518  10.185  64.255  1.00  0.00    -0.176 A  
HETATM   17  C   UNL     1      -7.717   9.817  65.333  1.00  0.00    -0.123 A  
HETATM   18 CL   UNL     1      -7.075   9.690  67.904  1.00  0.00    -0.079 Cl 
HETATM   19  C   UNL     1      -8.246   9.768  66.635  1.00  0.00    -0.120 A  
HETATM   20  C   UNL     1      -9.848  10.522  64.461  1.00  0.00    -0.401 A  
HETATM   21 CL   UNL     1      -7.848  10.277  62.674  1.00  0.00    -0.147 Cl 
ENDBRANCH   5  14
BRANCH   4  22
HETATM   22  C   UNL     1     -11.406   7.372  70.486  1.00  0.00    -0.271 C  
HETATM   23  O   UNL     1     -12.559   7.128  70.838  1.00  0.00    -0.329 OA 
HETATM   24  N   UNL     1     -10.305   6.562  70.721  1.00  0.00    -0.201 N  
HETATM   25  H   UNL     1      -9.402   6.910  70.401  1.00  0.00     0.000 HD 
BRANCH  24  26
HETATM   26  N   UNL     1     -10.311   5.307  71.357  1.00  0.00    -0.221 NA 
HETATM   27  C   UNL     1      -9.845   4.190  70.540  1.00  0.00    -0.182 C  
HETATM   28  C   UNL     1      -8.368   3.870  70.735  1.00  0.00    -0.090 C  
HETATM   29  C   UNL     1      -8.086   3.572  72.202  1.00  0.00    -0.071 C  
HETATM   30  C   UNL     1      -8.504   4.752  73.071  1.00  0.00    -0.103 C  
HETATM   31  C   UNL     1      -9.925   5.250  72.769  1.00  0.00    -0.160 C  
ENDBRANCH  24  26
ENDBRANCH   4  22
TORSDOF 4
ENDMDL
MODEL       75
REMARK 921   NORMALIZED FREE ENERGY PREDICTED BY IDOCK:   -5.29 KCAL/MOL
REMARK 922        TOTAL FREE ENERGY PREDICTED BY IDOCK:   -7.42 KCAL/MOL
REMARK 923 INTER-LIGAND FREE ENERGY PREDICTED BY IDOCK:   -6.04 KCAL/MOL
REMARK 924 INTRA-LIGAND FREE ENERGY PREDICTED BY IDOCK:   -1.38 KCAL/MOL
REMARK 927      BINDING AFFINITY PREDICTED BY RF-SCORE:    0.00 PKD
ROOT
HETATM    1  C   UNL     1     -10.185   8.428  67.522  1.00  0.00    -0.308 C  
HETATM    2  C   UNL     1      -9.371   9.607  67.934  1.00  0.00    -0.141 A  
HETATM    3  C   UNL     1      -9.367  10.910  67.415  1.00  0.00    -0.155 A  
HETATM    4  C   UNL     1      -8.443   9.600  69.016  1.00  0.00    -0.131 A  
HETATM    5  N   UNL     1      -8.426  11.610  68.200  1.00  0.00    -0.150 NA 
HETATM    6  N   UNL     1      -7.954  10.831  69.222  1.00  0.00    -0.135 NA 
ENDROOT
BRANCH   3   7
HETATM    7  C   UNL     1     -10.225  11.447  66.324  1.00  0.00    -0.274 A  
HETATM    8  C   UNL     1      -9.887  11.194  64.980  1.00  0.00    -0.315 A  
HETATM    9  C   UNL     1     -12.160  12.697  65.504  1.00  0.00    -0.515 A  
HETATM   10  C   UNL     1     -11.394  12.187  66.564  1.00  0.00    -0.405 A  
HETATM   11  C   UNL     1     -10.687  11.640  63.920  1.00  0.00    -0.459 A  
HETATM   12 CL   UNL     1     -12.780  12.990  62.889  1.00  0.00     0.239 Cl 
HETATM   13  C   UNL     1     -11.815  12.406  64.188  1.00  0.00    -0.413 A  
ENDBRANCH   3   7
BRANCH   5  14
HETATM   14  C   UNL     1      -7.960  12.966  68.175  1.00  0.00    -0.153 A  
HETATM   15  C   UNL     1      -8.841  13.952  68.686  1.00  0.00    -0.076 A  
HETATM   16  C   UNL     1      -7.326  15.709  68.055  1.00  0.00    -0.127 A  
HETATM   17  C   UNL     1      -6.418  14.755  67.601  1.00  0.00    -0.162 A  
HETATM   18 CL   UNL     1      -5.357  12.326  67.485  1.00  0.00    -0.102 Cl 
HETATM   19  C   UNL     1      -6.706  13.384  67.711  1.00  0.00    -0.160 A  
HETATM   20  C   UNL     1      -8.521  15.310  68.634  1.00  0.00    -0.168 A  
HETATM   21 CL   UNL     1      -6.944  17.383  67.948  1.00  0.00    -0.174 Cl 
ENDBRANCH   5  14
BRANCH   4  22
HETATM   22  C   UNL     1      -8.028   8.449  69.869  1.00  0.00    -0.107 C  
HETATM   23  O   UNL     1      -6.971   7.849  69.683  1.00  0.00    -0.051 OA 
HETATM   24  N   UNL     1      -8.947   8.166  70.869  1.00  0.00    -0.142 N  
HETATM   25  H   UNL     1      -9.800   8.725  70.880  1.00  0.00     0.000 HD 
BRANCH  24  26
HETATM   26  N   UNL     1      -8.820   7.185  71.869  1.00  0.00    -0.124 NA 
HETATM   27  C   UNL     1      -9.355   7.551  73.177  1.00  0.00    -0.206 C  
HETATM   28  C   UNL     1     -10.784   7.072  73.405  1.00  0.00    -0.379 C  
HETATM   29  C   UNL     1     -10.861   5.560  73.236  1.00  0.00    -0.337 C  
HETATM   30  C   UNL     1     -10.368   5.156  71.851  1.00  0.00    -0.275 C  
HETATM   31  C   UNL     1      -9.015   5.784  71.486  1.00  0.00    -0.140 C  
ENDBRANCH  24  26
ENDBRANCH   4  22
TORSDOF 4
ENDMDL
MODEL       76
REMARK 921   NORMALIZED FREE ENERGY PREDICTED BY IDOCK:   -5.26 KCAL/MOL
REMARK 922        TOTAL FREE ENERGY PREDICTED BY IDOCK:   -7.38 KCAL/MOL
REMARK 923 INTER-LIGAND FREE ENERGY PREDICTED BY IDOCK:   -5.92 KCAL/MOL
REMARK 924 INTRA-LIGAND FREE ENERGY PREDICTED BY IDOCK:   -1.46 KCAL/MOL
REMARK 927      BINDING AFFINITY PREDICTED BY RF-SCORE:    0.00 PKD
ROOT
HETATM    1  C   UNL     1      -9.015   9.630  70.111  1.00  0.00    -0.273 C  
HETATM    2  C   UNL     1      -8.987   8.759  68.900  1.00  0.00    -0.134 A  
HETATM    3  C   UNL     1      -9.028   7.360  68.811  1.00  0.00    -0.129 A  
HETATM    4  C   UNL     1      -8.955   9.250  67.563  1.00  0.00    -0.118 A  
HETATM    5  N   UNL     1      -9.000   7.085  67.427  1.00  0.00    -0.117 NA 
HETATM    6  N   UNL     1      -9.057   8.238  66.690  1.00  0.00    -0.156 NA 
ENDROOT
BRANCH   3   7
HETATM    7  C   UNL     1      -9.148   6.390  69.932  1.00  0.00    -0.142 A  
HETATM    8  C   UNL     1      -7.986   5.836  70.506  1.00  0.00    -0.105 A  
HETATM    9  C   UNL     1     -10.450   5.064  71.521  1.00  0.00    -0.225 A  
HETATM   10  C   UNL     1     -10.382   6.003  70.480  1.00  0.00    -0.279 A  
HETATM   11  C   UNL     1      -8.047   4.953  71.591  1.00  0.00    -0.112 A  
HETATM   12 CL   UNL     1      -9.366   3.442  73.392  1.00  0.00    -0.111 Cl 
HETATM   13  C   UNL     1      -9.284   4.557  72.085  1.00  0.00    -0.130 A  
ENDBRANCH   3   7
BRANCH   5  14
HETATM   14  C   UNL     1      -9.013   5.860  66.681  1.00  0.00    -0.125 A  
HETATM   15  C   UNL     1     -10.263   5.445  66.159  1.00  0.00    -0.181 A  
HETATM   16  C   UNL     1      -9.304   3.396  65.346  1.00  0.00    -0.153 A  
HETATM   17  C   UNL     1      -8.053   3.809  65.797  1.00  0.00    -0.093 A  
HETATM   18 CL   UNL     1      -6.259   5.609  66.560  1.00  0.00    -0.033 Cl 
HETATM   19  C   UNL     1      -7.893   5.063  66.414  1.00  0.00    -0.099 A  
HETATM   20  C   UNL     1     -10.405   4.228  65.489  1.00  0.00    -0.210 A  
HETATM   21 CL   UNL     1      -9.479   1.876  64.560  1.00  0.00    -0.131 Cl 
ENDBRANCH   5  14
BRANCH   4  22
HETATM   22  C   UNL     1      -8.850  10.664  67.100  1.00  0.00    -0.137 C  
HETATM   23  O   UNL     1      -7.836  11.335  67.286  1.00  0.00    -0.127 OA 
HETATM   24  N   UNL     1      -9.993  11.099  66.445  1.00  0.00    -0.210 N  
HETATM   25  H   UNL     1     -10.772  10.443  66.396  1.00  0.00     0.000 HD 
BRANCH  24  26
HETATM   26  N   UNL     1     -10.184  12.355  65.841  1.00  0.00    -0.247 NA 
HETATM   27  C   UNL     1     -10.933  12.340  64.589  1.00  0.00    -0.306 C  
HETATM   28  C   UNL     1     -12.422  12.611  64.769  1.00  0.00    -0.555 C  
HETATM   29  C   UNL     1     -12.629  13.952  65.462  1.00  0.00    -0.560 C  
HETATM   30  C   UNL     1     -11.908  13.970  66.805  1.00  0.00    -0.450 C  
HETATM   31  C   UNL     1     -10.448  13.503  66.712  1.00  0.00    -0.273 C  
ENDBRANCH  24  26
ENDBRANCH   4  22
TORSDOF 4
ENDMDL
MODEL       77
REMARK 921   NORMALIZED FREE ENERGY PREDICTED BY IDOCK:   -5.16 KCAL/MOL
REMARK 922        TOTAL FREE ENERGY PREDICTED BY IDOCK:   -7.26 KCAL/MOL
REMARK 923 INTER-LIGAND FREE ENERGY PREDICTED BY IDOCK:   -5.92 KCAL/MOL
REMARK 924 INTRA-LIGAND FREE ENERGY PREDICTED BY IDOCK:   -1.35 KCAL/MOL
REMARK 927      BINDING AFFINITY PREDICTED BY RF-SCORE:    0.00 PKD
ROOT
HETATM    1  C   UNL     1      -9.098   9.475  64.341  1.00  0.00    -0.234 C  
HETATM    2  C   UNL     1      -9.029   8.789  65.663  1.00  0.00    -0.248 A  
HETATM    3  C   UNL     1      -9.361   9.277  66.935  1.00  0.00    -0.151 A  
HETATM    4  C   UNL     1      -8.628   7.433  65.841  1.00  0.00    -0.153 A  
HETATM    5  N   UNL     1      -9.126   8.194  67.810  1.00  0.00    -0.135 NA 
HETATM    6  N   UNL     1      -8.781   7.064  67.120  1.00  0.00    -0.120 NA 
ENDROOT
BRANCH   3   7
HETATM    7  C   UNL     1      -9.911  10.618  67.270  1.00  0.00    -0.206 A  
HETATM    8  C   UNL     1      -9.059  11.613  67.790  1.00  0.00    -0.175 A  
HETATM    9  C   UNL     1     -11.738  12.236  67.424  1.00  0.00    -0.405 A  
HETATM   10  C   UNL     1     -11.257  10.966  67.070  1.00  0.00    -0.211 A  
HETATM   11  C   UNL     1      -9.520  12.903  68.079  1.00  0.00    -0.213 A  
HETATM   12 CL   UNL     1     -11.446  14.776  68.300  1.00  0.00    -0.321 Cl 
HETATM   13  C   UNL     1     -10.866  13.205  67.910  1.00  0.00    -0.242 A  
ENDBRANCH   3   7
BRANCH   5  14
HETATM   14  C   UNL     1      -9.267   8.047  69.230  1.00  0.00    -0.152 A  
HETATM   15  C   UNL     1      -8.510   8.929  70.040  1.00  0.00    -0.141 A  
HETATM   16  C   UNL     1      -9.249   7.813  72.038  1.00  0.00    -0.144 A  
HETATM   17  C   UNL     1     -10.048   6.973  71.266  1.00  0.00    -0.199 A  
HETATM   18 CL   UNL     1     -11.408   6.299  69.090  1.00  0.00    -0.444 Cl 
HETATM   19  C   UNL     1     -10.103   7.123  69.869  1.00  0.00    -0.191 A  
HETATM   20  C   UNL     1      -8.510   8.819  71.432  1.00  0.00    -0.245 A  
HETATM   21 CL   UNL     1      -9.220   7.643  73.749  1.00  0.00    -0.322 Cl 
ENDBRANCH   5  14
BRANCH   4  22
HETATM   22  C   UNL     1      -8.123   6.477  64.813  1.00  0.00    -0.112 C  
HETATM   23  O   UNL     1      -6.983   6.555  64.358  1.00  0.00    -0.044 OA 
HETATM   24  N   UNL     1      -9.064   5.519  64.465  1.00  0.00    -0.351 N  
HETATM   25  H   UNL     1      -9.983   5.600  64.899  1.00  0.00     0.000 HD 
BRANCH  24  26
HETATM   26  N   UNL     1      -8.876   4.447  63.574  1.00  0.00    -0.128 NA 
HETATM   27  C   UNL     1      -8.335   3.228  64.167  1.00  0.00    -0.090 C  
HETATM   28  C   UNL     1      -9.406   2.222  64.571  1.00  0.00    -0.131 C  
HETATM   29  C   UNL     1     -10.263   1.857  63.366  1.00  0.00    -0.134 C  
HETATM   30  C   UNL     1     -10.893   3.109  62.766  1.00  0.00    -0.161 C  
HETATM   31  C   UNL     1      -9.880   4.239  62.528  1.00  0.00    -0.114 C  
ENDBRANCH  24  26
ENDBRANCH   4  22
TORSDOF 4
ENDMDL
MODEL       78
REMARK 921   NORMALIZED FREE ENERGY PREDICTED BY IDOCK:   -5.12 KCAL/MOL
REMARK 922        TOTAL FREE ENERGY PREDICTED BY IDOCK:   -7.21 KCAL/MOL
REMARK 923 INTER-LIGAND FREE ENERGY PREDICTED BY IDOCK:   -7.00 KCAL/MOL
REMARK 924 INTRA-LIGAND FREE ENERGY PREDICTED BY IDOCK:   -0.21 KCAL/MOL
REMARK 927      BINDING AFFINITY PREDICTED BY RF-SCORE:    0.00 PKD
ROOT
HETATM    1  C   UNL     1     -11.438  13.643  65.480  1.00  0.00    -0.317 C  
HETATM    2  C   UNL     1     -10.805  13.014  66.674  1.00  0.00    -0.291 A  
HETATM    3  C   UNL     1     -10.041  11.841  66.760  1.00  0.00    -0.209 A  
HETATM    4  C   UNL     1     -10.849  13.566  67.987  1.00  0.00    -0.250 A  
HETATM    5  N   UNL     1      -9.681  11.742  68.121  1.00  0.00    -0.186 NA 
HETATM    6  N   UNL     1     -10.093  12.842  68.825  1.00  0.00    -0.115 NA 
ENDROOT
BRANCH   3   7
HETATM    7  C   UNL     1      -9.639  10.945  65.643  1.00  0.00    -0.268 A  
HETATM    8  C   UNL     1      -8.830   9.821  65.904  1.00  0.00    -0.175 A  
HETATM    9  C   UNL     1      -9.627  10.286  63.288  1.00  0.00    -0.305 A  
HETATM   10  C   UNL     1     -10.051  11.144  64.315  1.00  0.00    -0.382 A  
HETATM   11  C   UNL     1      -8.462   8.923  64.894  1.00  0.00    -0.195 A  
HETATM   12 CL   UNL     1      -8.370   8.093  62.332  1.00  0.00    -0.170 Cl 
HETATM   13  C   UNL     1      -8.851   9.170  63.582  1.00  0.00    -0.056 A  
ENDBRANCH   3   7
BRANCH   5  14
HETATM   14  C   UNL     1      -8.913  10.777  68.853  1.00  0.00    -0.153 A  
HETATM   15  C   UNL     1      -7.504  10.913  68.803  1.00  0.00    -0.112 A  
HETATM   16  C   UNL     1      -7.209   8.888  70.064  1.00  0.00    -0.054 A  
HETATM   17  C   UNL     1      -8.592   8.765  70.179  1.00  0.00    -0.149 A  
HETATM   18 CL   UNL     1     -11.083   9.677  70.172  1.00  0.00    -0.292 Cl 
HETATM   19  C   UNL     1      -9.445   9.736  69.625  1.00  0.00    -0.219 A  
HETATM   20  C   UNL     1      -6.660   9.981  69.411  1.00  0.00    -0.053 A  
HETATM   21 CL   UNL     1      -6.177   7.712  70.779  1.00  0.00    -0.034 Cl 
ENDBRANCH   5  14
BRANCH   4  22
HETATM   22  C   UNL     1     -11.579  14.780  68.455  1.00  0.00    -0.321 C  
HETATM   23  O   UNL     1     -12.000  15.628  67.671  1.00  0.00     0.008 OA 
HETATM   24  N   UNL     1     -11.729  14.815  69.834  1.00  0.00    -0.288 N  
HETATM   25  H   UNL     1     -11.296  14.058  70.362  1.00  0.00     0.000 HD 
BRANCH  24  26
HETATM   26  N   UNL     1     -12.420  15.790  70.575  1.00  0.00    -0.393 NA 
HETATM   27  C   UNL     1     -13.785  15.438  70.955  1.00  0.00    -0.236 C  
HETATM   28  C   UNL     1     -13.890  14.833  72.350  1.00  0.00    -0.578 C  
HETATM   29  C   UNL     1     -13.313  15.795  73.382  1.00  0.00    -0.585 C  
HETATM   30  C   UNL     1     -11.865  16.128  73.043  1.00  0.00    -0.510 C  
HETATM   31  C   UNL     1     -11.670  16.549  71.579  1.00  0.00    -0.104 C  
ENDBRANCH  24  26
ENDBRANCH   4  22
TORSDOF 4
ENDMDL
MODEL       79
REMARK 921   NORMALIZED FREE ENERGY PREDICTED BY IDOCK:   -5.11 KCAL/MOL
REMARK 922        TOTAL FREE ENERGY PREDICTED BY IDOCK:   -7.20 KCAL/MOL
REMARK 923 INTER-LIGAND FREE ENERGY PREDICTED BY IDOCK:   -6.22 KCAL/MOL
REMARK 924 INTRA-LIGAND FREE ENERGY PREDICTED BY IDOCK:   -0.98 KCAL/MOL
REMARK 927      BINDING AFFINITY PREDICTED BY RF-SCORE:    0.00 PKD
ROOT
HETATM    1  C   UNL     1      -7.584  11.098  65.972  1.00  0.00     0.023 C  
HETATM    2  C   UNL     1      -8.530  11.135  67.124  1.00  0.00    -0.137 A  
HETATM    3  C   UNL     1      -9.269  10.092  67.700  1.00  0.00    -0.137 A  
HETATM    4  C   UNL     1      -8.813  12.303  67.890  1.00  0.00    -0.178 A  
HETATM    5  N   UNL     1      -9.969  10.692  68.769  1.00  0.00    -0.185 NA 
HETATM    6  N   UNL     1      -9.604  12.002  68.929  1.00  0.00     0.023 NA 
ENDROOT
BRANCH   3   7
HETATM    7  C   UNL     1      -9.255   8.656  67.310  1.00  0.00    -0.167 A  
HETATM    8  C   UNL     1     -10.469   7.992  67.044  1.00  0.00    -0.410 A  
HETATM    9  C   UNL     1      -8.107   6.554  66.818  1.00  0.00    -0.109 A  
HETATM   10  C   UNL     1      -8.072   7.914  67.163  1.00  0.00    -0.117 A  
HETATM   11  C   UNL     1     -10.505   6.655  66.631  1.00  0.00    -0.222 A  
HETATM   12 CL   UNL     1      -9.360   4.280  66.067  1.00  0.00    -0.151 Cl 
HETATM   13  C   UNL     1      -9.320   5.934  66.535  1.00  0.00    -0.153 A  
ENDBRANCH   3   7
BRANCH   5  14
HETATM   14  C   UNL     1     -10.890  10.172  69.738  1.00  0.00    -0.279 A  
HETATM   15  C   UNL     1     -12.229  10.627  69.652  1.00  0.00    -0.277 A  
HETATM   16  C   UNL     1     -12.821   9.424  71.649  1.00  0.00    -0.378 A  
HETATM   17  C   UNL     1     -11.526   8.916  71.720  1.00  0.00    -0.423 A  
HETATM   18 CL   UNL     1      -9.160   8.249  70.722  1.00  0.00    -0.156 Cl 
HETATM   19  C   UNL     1     -10.575   9.242  70.737  1.00  0.00    -0.285 A  
HETATM   20  C   UNL     1     -13.188  10.248  70.594  1.00  0.00    -0.202 A  
HETATM   21 CL   UNL     1     -13.985   8.988  72.837  1.00  0.00    -0.261 Cl 
ENDBRANCH   5  14
BRANCH   4  22
HETATM   22  C   UNL     1      -8.328  13.696  67.664  1.00  0.00    -0.182 C  
HETATM   23  O   UNL     1      -7.142  13.946  67.457  1.00  0.00    -0.175 OA 
HETATM   24  N   UNL     1      -9.352  14.631  67.700  1.00  0.00    -0.197 N  
HETATM   25  H   UNL     1     -10.284  14.282  67.919  1.00  0.00     0.000 HD 
BRANCH  24  26
HETATM   26  N   UNL     1      -9.231  16.012  67.466  1.00  0.00    -0.210 NA 
HETATM   27  C   UNL     1      -8.932  16.823  68.642  1.00  0.00    -0.251 C  
HETATM   28  C   UNL     1      -7.444  17.100  68.827  1.00  0.00    -0.250 C  
HETATM   29  C   UNL     1      -6.882  17.784  67.588  1.00  0.00    -0.189 C  
HETATM   30  C   UNL     1      -7.125  16.925  66.352  1.00  0.00    -0.241 C  
HETATM   31  C   UNL     1      -8.578  16.445  66.228  1.00  0.00    -0.340 C  
ENDBRANCH  24  26
ENDBRANCH   4  22
TORSDOF 4
ENDMDL
MODEL       80
REMARK 921   NORMALIZED FREE ENERGY PREDICTED BY IDOCK:   -5.11 KCAL/MOL
REMARK 922        TOTAL FREE ENERGY PREDICTED BY IDOCK:   -7.20 KCAL/MOL
REMARK 923 INTER-LIGAND FREE ENERGY PREDICTED BY IDOCK:   -6.05 KCAL/MOL
REMARK 924 INTRA-LIGAND FREE ENERGY PREDICTED BY IDOCK:   -1.14 KCAL/MOL
REMARK 927      BINDING AFFINITY PREDICTED BY RF-SCORE:    0.00 PKD
ROOT
HETATM    1  C   UNL     1     -10.635  10.224  70.176  1.00  0.00    -0.303 C  
HETATM    2  C   UNL     1     -10.049   9.504  69.009  1.00  0.00    -0.201 A  
HETATM    3  C   UNL     1      -9.619   8.172  68.913  1.00  0.00    -0.153 A  
HETATM    4  C   UNL     1      -9.863  10.084  67.722  1.00  0.00    -0.157 A  
HETATM    5  N   UNL     1      -9.182   8.030  67.578  1.00  0.00    -0.136 NA 
HETATM    6  N   UNL     1      -9.430   9.163  66.850  1.00  0.00    -0.161 NA 
ENDROOT
BRANCH   3   7
HETATM    7  C   UNL     1      -9.683   7.126  69.968  1.00  0.00    -0.171 A  
HETATM    8  C   UNL     1     -10.821   6.301  70.068  1.00  0.00    -0.387 A  
HETATM    9  C   UNL     1      -8.751   5.909  71.874  1.00  0.00    -0.138 A  
HETATM   10  C   UNL     1      -8.638   6.891  70.877  1.00  0.00    -0.136 A  
HETATM   11  C   UNL     1     -10.908   5.274  71.016  1.00  0.00    -0.125 A  
HETATM   12 CL   UNL     1      -9.995   3.859  73.120  1.00  0.00    -0.175 Cl 
HETATM   13  C   UNL     1      -9.876   5.093  71.929  1.00  0.00    -0.177 A  
ENDBRANCH   3   7
BRANCH   5  14
HETATM   14  C   UNL     1      -8.630   6.923  66.851  1.00  0.00    -0.116 A  
HETATM   15  C   UNL     1      -9.547   5.961  66.362  1.00  0.00    -0.173 A  
HETATM   16  C   UNL     1      -7.751   4.578  65.560  1.00  0.00    -0.090 A  
HETATM   17  C   UNL     1      -6.833   5.538  65.979  1.00  0.00    -0.058 A  
HETATM   18 CL   UNL     1      -6.080   7.984  66.677  1.00  0.00    -0.048 Cl 
HETATM   19  C   UNL     1      -7.270   6.735  66.573  1.00  0.00    -0.073 A  
HETATM   20  C   UNL     1      -9.111   4.803  65.714  1.00  0.00    -0.142 A  
HETATM   21 CL   UNL     1      -7.203   3.135  64.801  1.00  0.00    -0.064 Cl 
ENDBRANCH   5  14
BRANCH   4  22
HETATM   22  C   UNL     1     -10.109  11.494  67.300  1.00  0.00    -0.199 C  
HETATM   23  O   UNL     1      -9.188  12.259  67.020  1.00  0.00    -0.192 OA 
HETATM   24  N   UNL     1     -11.459  11.810  67.251  1.00  0.00    -0.316 N  
HETATM   25  H   UNL     1     -12.111  11.084  67.547  1.00  0.00     0.000 HD 
BRANCH  24  26
HETATM   26  N   UNL     1     -12.017  13.032  66.835  1.00  0.00    -0.377 NA 
HETATM   27  C   UNL     1     -11.817  14.154  67.747  1.00  0.00    -0.379 C  
HETATM   28  C   UNL     1     -10.606  15.012  67.397  1.00  0.00    -0.271 C  
HETATM   29  C   UNL     1     -10.731  15.537  65.973  1.00  0.00    -0.331 C  
HETATM   30  C   UNL     1     -10.877  14.379  64.993  1.00  0.00    -0.420 C  
HETATM   31  C   UNL     1     -11.953  13.367  65.410  1.00  0.00    -0.387 C  
ENDBRANCH  24  26
ENDBRANCH   4  22
TORSDOF 4
ENDMDL
MODEL       81
REMARK 921   NORMALIZED FREE ENERGY PREDICTED BY IDOCK:   -5.10 KCAL/MOL
REMARK 922        TOTAL FREE ENERGY PREDICTED BY IDOCK:   -7.19 KCAL/MOL
REMARK 923 INTER-LIGAND FREE ENERGY PREDICTED BY IDOCK:   -5.84 KCAL/MOL
REMARK 924 INTRA-LIGAND FREE ENERGY PREDICTED BY IDOCK:   -1.35 KCAL/MOL
REMARK 927      BINDING AFFINITY PREDICTED BY RF-SCORE:    0.00 PKD
ROOT
HETATM    1  C   UNL     1      -9.178  10.881  68.770  1.00  0.00    -0.187 C  
HETATM    2  C   UNL     1      -8.909   9.570  68.113  1.00  0.00    -0.124 A  
HETATM    3  C   UNL     1      -8.885   8.284  68.673  1.00  0.00    -0.133 A  
HETATM    4  C   UNL     1      -8.662   9.410  66.719  1.00  0.00    -0.127 A  
HETATM    5  N   UNL     1      -8.607   7.423  67.589  1.00  0.00    -0.120 NA 
HETATM    6  N   UNL     1      -8.575   8.110  66.405  1.00  0.00    -0.132 NA 
ENDROOT
BRANCH   3   7
HETATM    7  C   UNL     1      -9.166   7.912  70.085  1.00  0.00    -0.153 A  
HETATM    8  C   UNL     1     -10.472   7.544  70.465  1.00  0.00    -0.224 A  
HETATM    9  C   UNL     1      -8.490   7.546  72.406  1.00  0.00    -0.134 A  
HETATM   10  C   UNL     1      -8.175   7.879  71.080  1.00  0.00    -0.100 A  
HETATM   11  C   UNL     1     -10.776   7.143  71.772  1.00  0.00    -0.241 A  
HETATM   12 CL   UNL     1     -10.159   6.707  74.359  1.00  0.00    -0.381 Cl 
HETATM   13  C   UNL     1      -9.783   7.161  72.744  1.00  0.00    -0.158 A  
ENDBRANCH   3   7
BRANCH   5  14
HETATM   14  C   UNL     1      -8.449   6.001  67.497  1.00  0.00    -0.107 A  
HETATM   15  C   UNL     1      -7.298   5.447  68.109  1.00  0.00    -0.072 A  
HETATM   16  C   UNL     1      -7.845   3.257  67.279  1.00  0.00    -0.078 A  
HETATM   17  C   UNL     1      -9.014   3.768  66.720  1.00  0.00    -0.150 A  
HETATM   18 CL   UNL     1     -10.982   5.531  66.485  1.00  0.00    -0.248 Cl 
HETATM   19  C   UNL     1      -9.347   5.125  66.874  1.00  0.00    -0.128 A  
HETATM   20  C   UNL     1      -7.004   4.085  68.009  1.00  0.00    -0.051 A  
HETATM   21 CL   UNL     1      -7.468   1.587  67.115  1.00  0.00    -0.057 Cl 
ENDBRANCH   5  14
BRANCH   4  22
HETATM   22  C   UNL     1      -8.526  10.469  65.677  1.00  0.00    -0.176 C  
HETATM   23  O   UNL     1      -7.473  10.651  65.069  1.00  0.00    -0.065 OA 
HETATM   24  N   UNL     1      -9.701  11.180  65.481  1.00  0.00    -0.217 N  
HETATM   25  H   UNL     1     -10.488  10.942  66.085  1.00  0.00     0.000 HD 
BRANCH  24  26
HETATM   26  N   UNL     1      -9.916  12.196  64.533  1.00  0.00    -0.240 NA 
HETATM   27  C   UNL     1     -10.577  11.775  63.302  1.00  0.00    -0.368 C  
HETATM   28  C   UNL     1     -12.087  11.983  63.321  1.00  0.00    -0.509 C  
HETATM   29  C   UNL     1     -12.409  13.447  63.589  1.00  0.00    -0.422 C  
HETATM   30  C   UNL     1     -11.783  13.895  64.904  1.00  0.00    -0.378 C  
HETATM   31  C   UNL     1     -10.298  13.523  65.023  1.00  0.00    -0.362 C  
ENDBRANCH  24  26
ENDBRANCH   4  22
TORSDOF 4
ENDMDL
MODEL       82
REMARK 921   NORMALIZED FREE ENERGY PREDICTED BY IDOCK:   -5.08 KCAL/MOL
REMARK 922        TOTAL FREE ENERGY PREDICTED BY IDOCK:   -7.16 KCAL/MOL
REMARK 923 INTER-LIGAND FREE ENERGY PREDICTED BY IDOCK:   -5.76 KCAL/MOL
REMARK 924 INTRA-LIGAND FREE ENERGY PREDICTED BY IDOCK:   -1.39 KCAL/MOL
REMARK 927      BINDING AFFINITY PREDICTED BY RF-SCORE:    0.00 PKD
ROOT
HETATM    1  C   UNL     1      -6.929   9.963  70.389  1.00  0.00    -0.145 C  
HETATM    2  C   UNL     1      -8.031  10.033  69.387  1.00  0.00    -0.145 A  
HETATM    3  C   UNL     1      -8.338  11.051  68.474  1.00  0.00    -0.149 A  
HETATM    4  C   UNL     1      -8.977   8.990  69.164  1.00  0.00    -0.140 A  
HETATM    5  N   UNL     1      -9.461  10.574  67.764  1.00  0.00    -0.148 NA 
HETATM    6  N   UNL     1      -9.769   9.290  68.126  1.00  0.00    -0.147 NA 
ENDROOT
BRANCH   3   7
HETATM    7  C   UNL     1      -7.593  12.320  68.256  1.00  0.00    -0.133 A  
HETATM    8  C   UNL     1      -8.252  13.555  68.419  1.00  0.00    -0.141 A  
HETATM    9  C   UNL     1      -5.574  13.581  67.695  1.00  0.00    -0.034 A  
HETATM   10  C   UNL     1      -6.231  12.360  67.916  1.00  0.00    -0.093 A  
HETATM   11  C   UNL     1      -7.583  14.776  68.269  1.00  0.00    -0.115 A  
HETATM   12 CL   UNL     1      -5.429  16.280  67.666  1.00  0.00    -0.152 Cl 
HETATM   13  C   UNL     1      -6.246  14.783  67.890  1.00  0.00    -0.157 A  
ENDBRANCH   3   7
BRANCH   5  14
HETATM   14  C   UNL     1     -10.251  11.137  66.707  1.00  0.00    -0.232 A  
HETATM   15  C   UNL     1      -9.991  10.666  65.397  1.00  0.00    -0.343 A  
HETATM   16  C   UNL     1     -11.554  12.238  64.464  1.00  0.00    -0.353 A  
HETATM   17  C   UNL     1     -11.870  12.677  65.748  1.00  0.00    -0.497 A  
HETATM   18 CL   UNL     1     -12.023  12.442  68.386  1.00  0.00    -0.342 Cl 
HETATM   19  C   UNL     1     -11.263  12.091  66.873  1.00  0.00    -0.320 A  
HETATM   20  C   UNL     1     -10.645  11.205  64.286  1.00  0.00    -0.425 A  
HETATM   21 CL   UNL     1     -12.331  12.937  63.098  1.00  0.00    -0.441 Cl 
ENDBRANCH   5  14
BRANCH   4  22
HETATM   22  C   UNL     1      -9.128   7.705  69.908  1.00  0.00    -0.147 C  
HETATM   23  O   UNL     1      -9.722   7.643  70.983  1.00  0.00    -0.164 OA 
HETATM   24  N   UNL     1      -8.548   6.633  69.246  1.00  0.00    -0.131 N  
HETATM   25  H   UNL     1      -8.056   6.842  68.378  1.00  0.00     0.000 HD 
BRANCH  24  26
HETATM   26  N   UNL     1      -8.571   5.287  69.653  1.00  0.00    -0.097 NA 
HETATM   27  C   UNL     1      -9.765   4.538  69.272  1.00  0.00    -0.190 C  
HETATM   28  C   UNL     1      -9.603   3.758  67.973  1.00  0.00    -0.179 C  
HETATM   29  C   UNL     1      -8.422   2.801  68.081  1.00  0.00    -0.103 C  
HETATM   30  C   UNL     1      -7.148   3.569  68.415  1.00  0.00    -0.050 C  
HETATM   31  C   UNL     1      -7.317   4.531  69.600  1.00  0.00    -0.051 C  
ENDBRANCH  24  26
ENDBRANCH   4  22
TORSDOF 4
ENDMDL
MODEL       83
REMARK 921   NORMALIZED FREE ENERGY PREDICTED BY IDOCK:   -5.02 KCAL/MOL
REMARK 922        TOTAL FREE ENERGY PREDICTED BY IDOCK:   -7.09 KCAL/MOL
REMARK 923 INTER-LIGAND FREE ENERGY PREDICTED BY IDOCK:   -5.87 KCAL/MOL
REMARK 924 INTRA-LIGAND FREE ENERGY PREDICTED BY IDOCK:   -1.22 KCAL/MOL
REMARK 927      BINDING AFFINITY PREDICTED BY RF-SCORE:    0.00 PKD
ROOT
HETATM    1  C   UNL     1     -11.974  10.864  69.357  1.00  0.00    -0.393 C  
HETATM    2  C   UNL     1     -10.955  10.714  68.279  1.00  0.00    -0.314 A  
HETATM    3  C   UNL     1     -10.134   9.618  67.979  1.00  0.00    -0.178 A  
HETATM    4  C   UNL     1     -10.672  11.712  67.301  1.00  0.00    -0.238 A  
HETATM    5  N   UNL     1      -9.390  10.022  66.849  1.00  0.00    -0.156 NA 
HETATM    6  N   UNL     1      -9.800  11.247  66.396  1.00  0.00    -0.205 NA 
ENDROOT
BRANCH   3   7
HETATM    7  C   UNL     1     -10.111   8.296  68.661  1.00  0.00    -0.212 A  
HETATM    8  C   UNL     1      -9.551   8.184  69.950  1.00  0.00    -0.175 A  
HETATM    9  C   UNL     1     -10.585   5.900  68.762  1.00  0.00    -0.340 A  
HETATM   10  C   UNL     1     -10.651   7.132  68.093  1.00  0.00    -0.241 A  
HETATM   11  C   UNL     1      -9.547   6.972  70.651  1.00  0.00    -0.165 A  
HETATM   12 CL   UNL     1     -10.013   4.327  70.885  1.00  0.00    -0.256 Cl 
HETATM   13  C   UNL     1     -10.051   5.827  70.045  1.00  0.00    -0.216 A  
ENDBRANCH   3   7
BRANCH   5  14
HETATM   14  C   UNL     1      -8.383   9.365  66.066  1.00  0.00    -0.119 A  
HETATM   15  C   UNL     1      -8.832   8.402  65.129  1.00  0.00    -0.075 A  
HETATM   16  C   UNL     1      -6.569   7.826  64.557  1.00  0.00    -0.048 A  
HETATM   17  C   UNL     1      -6.104   8.808  65.428  1.00  0.00    -0.048 A  
HETATM   18 CL   UNL     1      -6.320  11.029  66.863  1.00  0.00    -0.093 Cl 
HETATM   19  C   UNL     1      -7.007   9.617  66.141  1.00  0.00    -0.093 A  
HETATM   20  C   UNL     1      -7.932   7.646  64.374  1.00  0.00    -0.123 A  
HETATM   21 CL   UNL     1      -5.453   6.869  63.663  1.00  0.00    -0.028 Cl 
ENDBRANCH   5  14
BRANCH   4  22
HETATM   22  C   UNL     1     -11.232  13.091  67.200  1.00  0.00    -0.286 C  
HETATM   23  O   UNL     1     -12.103  13.381  66.382  1.00  0.00    -0.404 OA 
HETATM   24  N   UNL     1     -10.674  13.963  68.123  1.00  0.00    -0.245 N  
HETATM   25  H   UNL     1      -9.933  13.591  68.716  1.00  0.00     0.000 HD 
BRANCH  24  26
HETATM   26  N   UNL     1     -11.029  15.310  68.322  1.00  0.00    -0.265 NA 
HETATM   27  C   UNL     1     -10.543  15.908  69.562  1.00  0.00    -0.282 C  
HETATM   28  C   UNL     1      -9.229  16.663  69.398  1.00  0.00     0.040 C  
HETATM   29  C   UNL     1      -9.378  17.749  68.340  1.00  0.00    -0.294 C  
HETATM   30  C   UNL     1      -9.823  17.140  67.016  1.00  0.00    -0.276 C  
HETATM   31  C   UNL     1     -11.029  16.200  67.159  1.00  0.00    -0.144 C  
ENDBRANCH  24  26
ENDBRANCH   4  22
TORSDOF 4
ENDMDL
MODEL       84
REMARK 921   NORMALIZED FREE ENERGY PREDICTED BY IDOCK:   -4.95 KCAL/MOL
REMARK 922        TOTAL FREE ENERGY PREDICTED BY IDOCK:   -7.00 KCAL/MOL
REMARK 923 INTER-LIGAND FREE ENERGY PREDICTED BY IDOCK:   -5.68 KCAL/MOL
REMARK 924 INTRA-LIGAND FREE ENERGY PREDICTED BY IDOCK:   -1.32 KCAL/MOL
REMARK 927      BINDING AFFINITY PREDICTED BY RF-SCORE:    0.00 PKD
ROOT
HETATM    1  C   UNL     1     -10.509  14.076  70.063  1.00  0.00     0.663 C  
HETATM    2  C   UNL     1     -10.194  13.629  68.676  1.00  0.00    -0.199 A  
HETATM    3  C   UNL     1     -10.164  12.330  68.147  1.00  0.00    -0.212 A  
HETATM    4  C   UNL     1      -9.897  14.513  67.598  1.00  0.00    -0.223 A  
HETATM    5  N   UNL     1      -9.833  12.503  66.785  1.00  0.00    -0.224 NA 
HETATM    6  N   UNL     1      -9.774  13.829  66.452  1.00  0.00    -0.290 NA 
ENDROOT
BRANCH   3   7
HETATM    7  C   UNL     1     -10.484  11.062  68.854  1.00  0.00    -0.229 A  
HETATM    8  C   UNL     1      -9.449  10.164  69.184  1.00  0.00    -0.215 A  
HETATM    9  C   UNL     1     -12.046   9.490  69.888  1.00  0.00     0.326 A  
HETATM   10  C   UNL     1     -11.786  10.711  69.245  1.00  0.00    -0.309 A  
HETATM   11  C   UNL     1      -9.694   8.979  69.889  1.00  0.00    -0.194 A  
HETATM   12 CL   UNL     1     -11.312   7.166  71.055  1.00  0.00    -0.296 Cl 
HETATM   13  C   UNL     1     -10.999   8.639  70.224  1.00  0.00    -0.236 A  
ENDBRANCH   3   7
BRANCH   5  14
HETATM   14  C   UNL     1      -9.644  11.574  65.708  1.00  0.00    -0.235 A  
HETATM   15  C   UNL     1      -8.532  10.702  65.806  1.00  0.00    -0.179 A  
HETATM   16  C   UNL     1      -8.980   9.799  63.623  1.00  0.00    -0.240 A  
HETATM   17  C   UNL     1     -10.113  10.604  63.529  1.00  0.00    -0.288 A  
HETATM   18 CL   UNL     1     -12.088  12.078  64.510  1.00  0.00    -0.375 Cl 
HETATM   19  C   UNL     1     -10.480  11.450  64.591  1.00  0.00    -0.315 A  
HETATM   20  C   UNL     1      -8.209   9.816  64.776  1.00  0.00    -0.148 A  
HETATM   21 CL   UNL     1      -8.563   8.742  62.332  1.00  0.00    -0.211 Cl 
ENDBRANCH   5  14
BRANCH   4  22
HETATM   22  C   UNL     1      -9.747  15.997  67.635  1.00  0.00    -0.224 C  
HETATM   23  O   UNL     1     -10.668  16.734  67.980  1.00  0.00    -0.339 OA 
HETATM   24  N   UNL     1      -8.479  16.416  67.260  1.00  0.00    -0.170 N  
HETATM   25  H   UNL     1      -7.825  15.691  66.962  1.00  0.00     0.000 HD 
BRANCH  24  26
HETATM   26  N   UNL     1      -8.004  17.740  67.248  1.00  0.00    -0.206 NA 
HETATM   27  C   UNL     1      -7.508  18.238  68.528  1.00  0.00    -0.288 C  
HETATM   28  C   UNL     1      -6.000  18.090  68.693  1.00  0.00    -0.189 C  
HETATM   29  C   UNL     1      -5.277  18.806  67.560  1.00  0.00    -0.157 C  
HETATM   30  C   UNL     1      -5.731  18.258  66.212  1.00  0.00    -0.203 C  
HETATM   31  C   UNL     1      -7.259  18.192  66.071  1.00  0.00    -0.270 C  
ENDBRANCH  24  26
ENDBRANCH   4  22
TORSDOF 4
ENDMDL
MODEL       85
REMARK 921   NORMALIZED FREE ENERGY PREDICTED BY IDOCK:   -4.90 KCAL/MOL
REMARK 922        TOTAL FREE ENERGY PREDICTED BY IDOCK:   -6.93 KCAL/MOL
REMARK 923 INTER-LIGAND FREE ENERGY PREDICTED BY IDOCK:   -5.83 KCAL/MOL
REMARK 924 INTRA-LIGAND FREE ENERGY PREDICTED BY IDOCK:   -1.10 KCAL/MOL
REMARK 927      BINDING AFFINITY PREDICTED BY RF-SCORE:    0.00 PKD
ROOT
HETATM    1  C   UNL     1     -11.446  12.367  66.003  1.00  0.00    -0.431 C  
HETATM    2  C   UNL     1     -10.836  11.208  66.716  1.00  0.00    -0.322 A  
HETATM    3  C   UNL     1     -10.856  10.897  68.083  1.00  0.00    -0.234 A  
HETATM    4  C   UNL     1     -10.130  10.152  66.070  1.00  0.00    -0.248 A  
HETATM    5  N   UNL     1     -10.147   9.681  68.187  1.00  0.00    -0.167 NA 
HETATM    6  N   UNL     1      -9.804   9.198  66.953  1.00  0.00    -0.198 NA 
ENDROOT
BRANCH   3   7
HETATM    7  C   UNL     1     -11.541  11.649  69.169  1.00  0.00    -0.378 A  
HETATM    8  C   UNL     1     -12.444  10.981  70.020  1.00  0.00    -0.319 A  
HETATM    9  C   UNL     1     -12.003  13.689  70.435  1.00  0.00    -0.372 A  
HETATM   10  C   UNL     1     -11.315  13.013  69.415  1.00  0.00    -0.269 A  
HETATM   11  C   UNL     1     -13.079  11.636  71.083  1.00  0.00    -0.167 A  
HETATM   12 CL   UNL     1     -13.674  13.814  72.555  1.00  0.00    -0.665 Cl 
HETATM   13  C   UNL     1     -12.867  12.996  71.276  1.00  0.00    -0.281 A  
ENDBRANCH   3   7
BRANCH   5  14
HETATM   14  C   UNL     1      -9.813   8.846  69.305  1.00  0.00    -0.176 A  
HETATM   15  C   UNL     1      -8.871   9.363  70.228  1.00  0.00    -0.269 A  
HETATM   16  C   UNL     1      -8.876   7.303  71.469  1.00  0.00    -0.122 A  
HETATM   17  C   UNL     1      -9.846   6.794  70.609  1.00  0.00    -0.191 A  
HETATM   18 CL   UNL     1     -11.810   6.987  68.835  1.00  0.00     0.562 Cl 
HETATM   19  C   UNL     1     -10.358   7.581  69.562  1.00  0.00    -0.216 A  
HETATM   20  C   UNL     1      -8.415   8.601  71.306  1.00  0.00    -0.226 A  
HETATM   21 CL   UNL     1      -8.286   6.343  72.768  1.00  0.00    -0.108 Cl 
ENDBRANCH   5  14
BRANCH   4  22
HETATM   22  C   UNL     1      -9.777  10.025  64.626  1.00  0.00    -0.269 C  
HETATM   23  O   UNL     1     -10.523  10.431  63.737  1.00  0.00    -0.019 OA 
HETATM   24  N   UNL     1      -8.541   9.428  64.428  1.00  0.00    -0.184 N  
HETATM   25  H   UNL     1      -8.047   9.107  65.261  1.00  0.00     0.000 HD 
BRANCH  24  26
HETATM   26  N   UNL     1      -7.900   9.220  63.193  1.00  0.00    -0.129 NA 
HETATM   27  C   UNL     1      -6.535   9.727  63.104  1.00  0.00    -0.115 C  
HETATM   28  C   UNL     1      -5.475   8.676  63.411  1.00  0.00    -0.064 C  
HETATM   29  C   UNL     1      -5.632   7.485  62.474  1.00  0.00    -0.047 C  
HETATM   30  C   UNL     1      -7.032   6.896  62.597  1.00  0.00    -0.052 C  
HETATM   31  C   UNL     1      -8.142   7.953  62.499  1.00  0.00    -0.152 C  
ENDBRANCH  24  26
ENDBRANCH   4  22
TORSDOF 4
ENDMDL
MODEL       86
REMARK 921   NORMALIZED FREE ENERGY PREDICTED BY IDOCK:   -4.87 KCAL/MOL
REMARK 922        TOTAL FREE ENERGY PREDICTED BY IDOCK:   -6.91 KCAL/MOL
REMARK 923 INTER-LIGAND FREE ENERGY PREDICTED BY IDOCK:   -5.98 KCAL/MOL
REMARK 924 INTRA-LIGAND FREE ENERGY PREDICTED BY IDOCK:   -0.92 KCAL/MOL
REMARK 927      BINDING AFFINITY PREDICTED BY RF-SCORE:    0.00 PKD
ROOT
HETATM    1  C   UNL     1     -11.979  10.181  70.915  1.00  0.00    -0.461 C  
HETATM    2  C   UNL     1     -10.724   9.874  70.171  1.00  0.00    -0.361 A  
HETATM    3  C   UNL     1     -10.270  10.385  68.946  1.00  0.00    -0.205 A  
HETATM    4  C   UNL     1      -9.711   8.989  70.641  1.00  0.00    -0.234 A  
HETATM    5  N   UNL     1      -9.018   9.767  68.738  1.00  0.00    -0.129 NA 
HETATM    6  N   UNL     1      -8.654   9.007  69.817  1.00  0.00    -0.130 NA 
ENDROOT
BRANCH   3   7
HETATM    7  C   UNL     1     -10.934  11.409  68.096  1.00  0.00    -0.284 A  
HETATM    8  C   UNL     1     -11.126  11.160  66.722  1.00  0.00    -0.280 A  
HETATM    9  C   UNL     1     -12.012  13.578  67.756  1.00  0.00    -0.369 A  
HETATM   10  C   UNL     1     -11.415  12.628  68.601  1.00  0.00    -0.347 A  
HETATM   11  C   UNL     1     -11.785  12.074  65.890  1.00  0.00    -0.312 A  
HETATM   12 CL   UNL     1     -12.987  14.433  65.385  1.00  0.00    -0.291 Cl 
HETATM   13  C   UNL     1     -12.212  13.290  66.410  1.00  0.00    -0.356 A  
ENDBRANCH   3   7
BRANCH   5  14
HETATM   14  C   UNL     1      -8.054   9.860  67.680  1.00  0.00    -0.110 A  
HETATM   15  C   UNL     1      -7.233  11.014  67.666  1.00  0.00    -0.093 A  
HETATM   16  C   UNL     1      -6.224  10.336  65.591  1.00  0.00    -0.113 A  
HETATM   17  C   UNL     1      -6.977   9.165  65.614  1.00  0.00    -0.081 A  
HETATM   18 CL   UNL     1      -8.409   7.264  66.787  1.00  0.00    -0.116 Cl 
HETATM   19  C   UNL     1      -7.850   8.897  66.684  1.00  0.00    -0.100 A  
HETATM   20  C   UNL     1      -6.320  11.245  66.635  1.00  0.00    -0.135 A  
HETATM   21 CL   UNL     1      -5.132  10.634  64.296  1.00  0.00    -0.154 Cl 
ENDBRANCH   5  14
BRANCH   4  22
HETATM   22  C   UNL     1      -9.722   8.143  71.870  1.00  0.00    -0.205 C  
HETATM   23  O   UNL     1     -10.456   8.392  72.824  1.00  0.00    -0.307 OA 
HETATM   24  N   UNL     1      -8.842   7.073  71.790  1.00  0.00    -0.126 N  
HETATM   25  H   UNL     1      -8.269   7.012  70.949  1.00  0.00     0.000 HD 
BRANCH  24  26
HETATM   26  N   UNL     1      -8.663   6.064  72.753  1.00  0.00    -0.125 NA 
HETATM   27  C   UNL     1      -9.750   5.094  72.854  1.00  0.00    -0.148 C  
HETATM   28  C   UNL     1      -9.519   3.835  72.027  1.00  0.00    -0.200 C  
HETATM   29  C   UNL     1      -8.212   3.170  72.442  1.00  0.00    -0.067 C  
HETATM   30  C   UNL     1      -7.050   4.143  72.284  1.00  0.00    -0.056 C  
HETATM   31  C   UNL     1      -7.317   5.511  72.928  1.00  0.00    -0.092 C  
ENDBRANCH  24  26
ENDBRANCH   4  22
TORSDOF 4
ENDMDL
MODEL       87
REMARK 921   NORMALIZED FREE ENERGY PREDICTED BY IDOCK:   -4.82 KCAL/MOL
REMARK 922        TOTAL FREE ENERGY PREDICTED BY IDOCK:   -6.83 KCAL/MOL
REMARK 923 INTER-LIGAND FREE ENERGY PREDICTED BY IDOCK:   -5.67 KCAL/MOL
REMARK 924 INTRA-LIGAND FREE ENERGY PREDICTED BY IDOCK:   -1.16 KCAL/MOL
REMARK 927      BINDING AFFINITY PREDICTED BY RF-SCORE:    0.00 PKD
ROOT
HETATM    1  C   UNL     1     -10.100  10.489  65.305  1.00  0.00    -0.369 C  
HETATM    2  C   UNL     1      -9.699   9.778  66.553  1.00  0.00    -0.267 A  
HETATM    3  C   UNL     1      -9.762  10.216  67.883  1.00  0.00    -0.146 A  
HETATM    4  C   UNL     1      -9.196   8.445  66.588  1.00  0.00    -0.180 A  
HETATM    5  N   UNL     1      -9.279   9.130  68.645  1.00  0.00    -0.136 NA 
HETATM    6  N   UNL     1      -9.037   8.038  67.855  1.00  0.00    -0.132 NA 
ENDROOT
BRANCH   3   7
HETATM    7  C   UNL     1     -10.294  11.514  68.380  1.00  0.00    -0.214 A  
HETATM    8  C   UNL     1     -11.492  11.541  69.122  1.00  0.00    -0.362 A  
HETATM    9  C   UNL     1     -10.193  13.944  68.635  1.00  0.00    -0.218 A  
HETATM   10  C   UNL     1      -9.641  12.739  68.170  1.00  0.00    -0.223 A  
HETATM   11  C   UNL     1     -12.009  12.731  69.648  1.00  0.00    -0.354 A  
HETATM   12 CL   UNL     1     -12.013  15.404  69.999  1.00  0.00    -0.353 Cl 
HETATM   13  C   UNL     1     -11.363  13.934  69.388  1.00  0.00    -0.258 A  
ENDBRANCH   3   7
BRANCH   5  14
HETATM   14  C   UNL     1      -9.089   8.943  70.054  1.00  0.00    -0.166 A  
HETATM   15  C   UNL     1      -7.789   9.190  70.560  1.00  0.00    -0.155 A  
HETATM   16  C   UNL     1      -8.447   8.460  72.755  1.00  0.00    -0.155 A  
HETATM   17  C   UNL     1      -9.747   8.266  72.294  1.00  0.00    -0.362 A  
HETATM   18 CL   UNL     1     -11.780   8.655  70.634  1.00  0.00    -0.229 Cl 
HETATM   19  C   UNL     1     -10.085   8.560  70.961  1.00  0.00    -0.205 A  
HETATM   20  C   UNL     1      -7.474   8.959  71.901  1.00  0.00     0.022 A  
HETATM   21 CL   UNL     1      -8.057   8.132  74.398  1.00  0.00    -0.306 Cl 
ENDBRANCH   5  14
BRANCH   4  22
HETATM   22  C   UNL     1      -8.884   7.545  65.440  1.00  0.00     0.088 C  
HETATM   23  O   UNL     1      -8.527   7.984  64.348  1.00  0.00    -0.071 OA 
HETATM   24  N   UNL     1      -9.028   6.203  65.759  1.00  0.00    -0.280 N  
HETATM   25  H   UNL     1      -9.367   5.987  66.696  1.00  0.00     0.000 HD 
BRANCH  24  26
HETATM   26  N   UNL     1      -8.752   5.109  64.918  1.00  0.00    -0.151 NA 
HETATM   27  C   UNL     1      -7.344   4.739  64.815  1.00  0.00    -0.071 C  
HETATM   28  C   UNL     1      -6.936   3.629  65.776  1.00  0.00    -0.058 C  
HETATM   29  C   UNL     1      -7.799   2.395  65.547  1.00  0.00    -0.078 C  
HETATM   30  C   UNL     1      -9.274   2.742  65.714  1.00  0.00    -0.094 C  
HETATM   31  C   UNL     1      -9.694   3.987  64.919  1.00  0.00    -0.193 C  
ENDBRANCH  24  26
ENDBRANCH   4  22
TORSDOF 4
ENDMDL
MODEL       88
REMARK 921   NORMALIZED FREE ENERGY PREDICTED BY IDOCK:   -4.81 KCAL/MOL
REMARK 922        TOTAL FREE ENERGY PREDICTED BY IDOCK:   -6.83 KCAL/MOL
REMARK 923 INTER-LIGAND FREE ENERGY PREDICTED BY IDOCK:   -6.41 KCAL/MOL
REMARK 924 INTRA-LIGAND FREE ENERGY PREDICTED BY IDOCK:   -0.41 KCAL/MOL
REMARK 927      BINDING AFFINITY PREDICTED BY RF-SCORE:    0.00 PKD
ROOT
HETATM    1  C   UNL     1      -8.301   6.935  68.599  1.00  0.00    -0.121 C  
HETATM    2  C   UNL     1      -8.994   8.171  69.065  1.00  0.00    -0.144 A  
HETATM    3  C   UNL     1      -9.310   9.335  68.350  1.00  0.00    -0.138 A  
HETATM    4  C   UNL     1      -9.509   8.351  70.381  1.00  0.00    -0.168 A  
HETATM    5  N   UNL     1      -9.982  10.158  69.279  1.00  0.00    -0.207 NA 
HETATM    6  N   UNL     1     -10.180   9.508  70.467  1.00  0.00    -0.269 NA 
ENDROOT
BRANCH   3   7
HETATM    7  C   UNL     1      -9.055   9.604  66.909  1.00  0.00    -0.160 A  
HETATM    8  C   UNL     1      -7.730   9.714  66.442  1.00  0.00    -0.101 A  
HETATM    9  C   UNL     1      -9.797  10.013  64.615  1.00  0.00    -0.288 A  
HETATM   10  C   UNL     1     -10.083   9.733  65.961  1.00  0.00    -0.322 A  
HETATM   11  C   UNL     1      -7.439   9.923  65.088  1.00  0.00    -0.133 A  
HETATM   12 CL   UNL     1      -8.126  10.383  62.523  1.00  0.00    -0.168 Cl 
HETATM   13  C   UNL     1      -8.478  10.088  64.180  1.00  0.00    -0.176 A  
ENDBRANCH   3   7
BRANCH   5  14
HETATM   14  C   UNL     1     -10.554  11.470  69.176  1.00  0.00    -0.136 A  
HETATM   15  C   UNL     1      -9.847  12.413  68.390  1.00  0.00    -0.198 A  
HETATM   16  C   UNL     1     -11.397  14.152  68.988  1.00  0.00    -0.275 A  
HETATM   17  C   UNL     1     -12.142  13.229  69.718  1.00  0.00    -0.355 A  
HETATM   18 CL   UNL     1     -12.961  10.789  70.361  1.00  0.00    -0.280 Cl 
HETATM   19  C   UNL     1     -11.756  11.878  69.768  1.00  0.00    -0.331 A  
HETATM   20  C   UNL     1     -10.271  13.740  68.290  1.00  0.00    -0.245 A  
HETATM   21 CL   UNL     1     -11.901  15.794  68.905  1.00  0.00    -0.398 Cl 
ENDBRANCH   5  14
BRANCH   4  22
HETATM   22  C   UNL     1      -9.393   7.434  71.552  1.00  0.00    -0.144 C  
HETATM   23  O   UNL     1      -8.303   7.044  71.967  1.00  0.00    -0.105 OA 
HETATM   24  N   UNL     1     -10.625   7.106  72.099  1.00  0.00    -0.206 N  
HETATM   25  H   UNL     1     -11.450   7.475  71.626  1.00  0.00     0.000 HD 
BRANCH  24  26
HETATM   26  N   UNL     1     -10.850   6.315  73.240  1.00  0.00    -0.260 NA 
HETATM   27  C   UNL     1     -11.315   4.956  72.978  1.00  0.00    -0.273 C  
HETATM   28  C   UNL     1     -10.192   3.926  72.938  1.00  0.00    -0.229 C  
HETATM   29  C   UNL     1      -9.417   3.948  74.249  1.00  0.00    -0.123 C  
HETATM   30  C   UNL     1      -8.864   5.343  74.514  1.00  0.00    -0.116 C  
HETATM   31  C   UNL     1      -9.919   6.449  74.363  1.00  0.00    -0.343 C  
ENDBRANCH  24  26
ENDBRANCH   4  22
TORSDOF 4
ENDMDL
MODEL       89
REMARK 921   NORMALIZED FREE ENERGY PREDICTED BY IDOCK:   -4.81 KCAL/MOL
REMARK 922        TOTAL FREE ENERGY PREDICTED BY IDOCK:   -6.83 KCAL/MOL
REMARK 923 INTER-LIGAND FREE ENERGY PREDICTED BY IDOCK:   -5.34 KCAL/MOL
REMARK 924 INTRA-LIGAND FREE ENERGY PREDICTED BY IDOCK:   -1.48 KCAL/MOL
REMARK 927      BINDING AFFINITY PREDICTED BY RF-SCORE:    0.00 PKD
ROOT
HETATM    1  C   UNL     1      -6.974  10.389  69.344  1.00  0.00    -0.091 C  
HETATM    2  C   UNL     1      -7.653   9.524  68.337  1.00  0.00    -0.081 A  
HETATM    3  C   UNL     1      -7.816   8.131  68.329  1.00  0.00    -0.122 A  
HETATM    4  C   UNL     1      -8.318  10.017  67.178  1.00  0.00    -0.121 A  
HETATM    5  N   UNL     1      -8.555   7.861  67.157  1.00  0.00    -0.126 NA 
HETATM    6  N   UNL     1      -8.933   9.018  66.530  1.00  0.00    -0.139 NA 
ENDROOT
BRANCH   3   7
HETATM    7  C   UNL     1      -7.370   7.166  69.369  1.00  0.00    -0.090 A  
HETATM    8  C   UNL     1      -8.128   7.008  70.548  1.00  0.00    -0.114 A  
HETATM    9  C   UNL     1      -5.827   5.486  70.249  1.00  0.00    -0.021 A  
HETATM   10  C   UNL     1      -6.225   6.366  69.230  1.00  0.00    -0.034 A  
HETATM   11  C   UNL     1      -7.773   6.081  71.535  1.00  0.00    -0.101 A  
HETATM   12 CL   UNL     1      -6.149   4.220  72.616  1.00  0.00    -0.016 Cl 
HETATM   13  C   UNL     1      -6.611   5.332  71.388  1.00  0.00    -0.039 A  
ENDBRANCH   3   7
BRANCH   5  14
HETATM   14  C   UNL     1      -9.039   6.642  66.576  1.00  0.00    -0.149 A  
HETATM   15  C   UNL     1      -8.263   6.081  65.532  1.00  0.00    -0.142 A  
HETATM   16  C   UNL     1      -9.899   4.356  65.171  1.00  0.00    -0.182 A  
HETATM   17  C   UNL     1     -10.650   4.854  66.233  1.00  0.00    -0.307 A  
HETATM   18 CL   UNL     1     -11.004   6.220  68.479  1.00  0.00    -0.397 Cl 
HETATM   19  C   UNL     1     -10.197   5.960  66.973  1.00  0.00    -0.209 A  
HETATM   20  C   UNL     1      -8.686   4.943  64.842  1.00  0.00    -0.150 A  
HETATM   21 CL   UNL     1     -10.447   2.979  64.298  1.00  0.00    -0.041 Cl 
ENDBRANCH   5  14
BRANCH   4  22
HETATM   22  C   UNL     1      -8.397  11.423  66.686  1.00  0.00    -0.172 C  
HETATM   23  O   UNL     1      -7.404  12.145  66.618  1.00  0.00     0.015 OA 
HETATM   24  N   UNL     1      -9.683  11.789  66.314  1.00  0.00    -0.216 N  
HETATM   25  H   UNL     1     -10.417  11.096  66.460  1.00  0.00     0.000 HD 
BRANCH  24  26
HETATM   26  N   UNL     1     -10.075  13.019  65.757  1.00  0.00    -0.290 NA 
HETATM   27  C   UNL     1     -10.731  12.937  64.456  1.00  0.00    -0.371 C  
HETATM   28  C   UNL     1     -12.253  12.913  64.544  1.00  0.00    -0.489 C  
HETATM   29  C   UNL     1     -12.754  14.147  65.283  1.00  0.00    -0.425 C  
HETATM   30  C   UNL     1     -12.131  14.222  66.672  1.00  0.00    -0.448 C  
HETATM   31  C   UNL     1     -10.606  14.044  66.660  1.00  0.00    -0.274 C  
ENDBRANCH  24  26
ENDBRANCH   4  22
TORSDOF 4
ENDMDL
MODEL       90
REMARK 921   NORMALIZED FREE ENERGY PREDICTED BY IDOCK:   -4.79 KCAL/MOL
REMARK 922        TOTAL FREE ENERGY PREDICTED BY IDOCK:   -6.80 KCAL/MOL
REMARK 923 INTER-LIGAND FREE ENERGY PREDICTED BY IDOCK:   -5.77 KCAL/MOL
REMARK 924 INTRA-LIGAND FREE ENERGY PREDICTED BY IDOCK:   -1.03 KCAL/MOL
REMARK 927      BINDING AFFINITY PREDICTED BY RF-SCORE:    0.00 PKD
ROOT
HETATM    1  C   UNL     1      -7.548  10.152  64.398  1.00  0.00    -0.130 C  
HETATM    2  C   UNL     1      -8.369   9.785  65.589  1.00  0.00    -0.138 A  
HETATM    3  C   UNL     1      -9.049  10.617  66.489  1.00  0.00    -0.162 A  
HETATM    4  C   UNL     1      -8.637   8.445  65.993  1.00  0.00    -0.146 A  
HETATM    5  N   UNL     1      -9.675   9.734  67.396  1.00  0.00    -0.157 NA 
HETATM    6  N   UNL     1      -9.496   8.429  67.021  1.00  0.00    -0.163 NA 
ENDROOT
BRANCH   3   7
HETATM    7  C   UNL     1      -9.146  12.101  66.447  1.00  0.00    -0.177 A  
HETATM    8  C   UNL     1     -10.104  12.716  65.616  1.00  0.00    -0.285 A  
HETATM    9  C   UNL     1      -8.445  14.340  67.135  1.00  0.00    -0.220 A  
HETATM   10  C   UNL     1      -8.337  12.944  67.225  1.00  0.00    -0.185 A  
HETATM   11  C   UNL     1     -10.264  14.106  65.575  1.00  0.00    -0.371 A  
HETATM   12 CL   UNL     1      -9.584  16.626  66.250  1.00  0.00    -0.307 Cl 
HETATM   13  C   UNL     1      -9.419  14.916  66.326  1.00  0.00    -0.309 A  
ENDBRANCH   3   7
BRANCH   5  14
HETATM   14  C   UNL     1     -10.507   9.952  68.543  1.00  0.00    -0.205 A  
HETATM   15  C   UNL     1     -11.646  10.774  68.357  1.00  0.00    -0.311 A  
HETATM   16  C   UNL     1     -12.176  10.661  70.700  1.00  0.00    -0.365 A  
HETATM   17  C   UNL     1     -11.096   9.803  70.897  1.00  0.00    -0.428 A  
HETATM   18 CL   UNL     1      -9.261   8.051  70.123  1.00  0.00    -0.152 Cl 
HETATM   19  C   UNL     1     -10.295   9.402  69.814  1.00  0.00    -0.223 A  
HETATM   20  C   UNL     1     -12.478  11.117  69.425  1.00  0.00    -0.085 A  
HETATM   21 CL   UNL     1     -13.170  11.115  72.028  1.00  0.00    -0.552 Cl 
ENDBRANCH   5  14
BRANCH   4  22
HETATM   22  C   UNL     1      -8.107   7.180  65.406  1.00  0.00    -0.137 C  
HETATM   23  O   UNL     1      -8.087   6.984  64.193  1.00  0.00    -0.115 OA 
HETATM   24  N   UNL     1      -7.644   6.296  66.371  1.00  0.00    -0.092 N  
HETATM   25  H   UNL     1      -7.758   6.578  67.344  1.00  0.00     0.000 HD 
BRANCH  24  26
HETATM   26  N   UNL     1      -7.033   5.051  66.140  1.00  0.00    -0.068 NA 
HETATM   27  C   UNL     1      -5.927   4.720  67.033  1.00  0.00    -0.027 C  
HETATM   28  C   UNL     1      -6.346   3.877  68.232  1.00  0.00    -0.037 C  
HETATM   29  C   UNL     1      -7.012   2.591  67.760  1.00  0.00    -0.048 C  
HETATM   30  C   UNL     1      -8.212   2.911  66.876  1.00  0.00    -0.085 C  
HETATM   31  C   UNL     1      -7.892   3.923  65.767  1.00  0.00    -0.090 C  
ENDBRANCH  24  26
ENDBRANCH   4  22
TORSDOF 4
ENDMDL
MODEL       91
REMARK 921   NORMALIZED FREE ENERGY PREDICTED BY IDOCK:   -4.77 KCAL/MOL
REMARK 922        TOTAL FREE ENERGY PREDICTED BY IDOCK:   -6.78 KCAL/MOL
REMARK 923 INTER-LIGAND FREE ENERGY PREDICTED BY IDOCK:   -5.94 KCAL/MOL
REMARK 924 INTRA-LIGAND FREE ENERGY PREDICTED BY IDOCK:   -0.84 KCAL/MOL
REMARK 927      BINDING AFFINITY PREDICTED BY RF-SCORE:    0.00 PKD
ROOT
HETATM    1  C   UNL     1      -7.884   7.461  68.676  1.00  0.00    -0.122 C  
HETATM    2  C   UNL     1      -8.403   8.855  68.578  1.00  0.00    -0.125 A  
HETATM    3  C   UNL     1      -8.241   9.793  67.548  1.00  0.00    -0.114 A  
HETATM    4  C   UNL     1      -9.232   9.471  69.560  1.00  0.00    -0.189 A  
HETATM    5  N   UNL     1      -8.965  10.928  67.974  1.00  0.00    -0.141 NA 
HETATM    6  N   UNL     1      -9.637  10.678  69.141  1.00  0.00    -0.198 NA 
ENDROOT
BRANCH   3   7
HETATM    7  C   UNL     1      -7.523   9.601  66.259  1.00  0.00    -0.098 A  
HETATM    8  C   UNL     1      -6.126   9.778  66.204  1.00  0.00    -0.065 A  
HETATM    9  C   UNL     1      -7.455   9.072  63.873  1.00  0.00    -0.110 A  
HETATM   10  C   UNL     1      -8.169   9.218  65.073  1.00  0.00    -0.146 A  
HETATM   11  C   UNL     1      -5.400   9.566  65.025  1.00  0.00    -0.046 A  
HETATM   12 CL   UNL     1      -5.192   9.004  62.397  1.00  0.00    -0.077 Cl 
HETATM   13  C   UNL     1      -6.073   9.228  63.857  1.00  0.00    -0.088 A  
ENDBRANCH   3   7
BRANCH   5  14
HETATM   14  C   UNL     1      -9.188  12.214  67.381  1.00  0.00    -0.182 A  
HETATM   15  C   UNL     1      -8.365  13.275  67.831  1.00  0.00    -0.163 A  
HETATM   16  C   UNL     1      -9.578  14.858  66.488  1.00  0.00    -0.276 A  
HETATM   17  C   UNL     1     -10.362  13.822  65.986  1.00  0.00    -0.311 A  
HETATM   18 CL   UNL     1     -10.893  11.288  65.407  1.00  0.00    -0.294 Cl 
HETATM   19  C   UNL     1     -10.134  12.494  66.386  1.00  0.00    -0.243 A  
HETATM   20  C   UNL     1      -8.552  14.584  67.381  1.00  0.00    -0.213 A  
HETATM   21 CL   UNL     1      -9.844  16.474  65.961  1.00  0.00    -0.346 Cl 
ENDBRANCH   5  14
BRANCH   4  22
HETATM   22  C   UNL     1      -9.663   8.925  70.880  1.00  0.00    -0.239 C  
HETATM   23  O   UNL     1      -9.103   9.241  71.928  1.00  0.00    -0.290 OA 
HETATM   24  N   UNL     1     -10.743   8.061  70.774  1.00  0.00    -0.219 N  
HETATM   25  H   UNL     1     -11.082   7.862  69.833  1.00  0.00     0.000 HD 
BRANCH  24  26
HETATM   26  N   UNL     1     -11.418   7.432  71.836  1.00  0.00    -0.258 NA 
HETATM   27  C   UNL     1     -11.707   6.014  71.641  1.00  0.00    -0.144 C  
HETATM   28  C   UNL     1     -10.658   5.091  72.248  1.00  0.00    -0.269 C  
HETATM   29  C   UNL     1     -10.511   5.374  73.737  1.00  0.00    -0.305 C  
HETATM   30  C   UNL     1     -10.143   6.836  73.965  1.00  0.00    -0.389 C  
HETATM   31  C   UNL     1     -11.053   7.811  73.203  1.00  0.00    -0.275 C  
ENDBRANCH  24  26
ENDBRANCH   4  22
TORSDOF 4
ENDMDL
MODEL       92
REMARK 921   NORMALIZED FREE ENERGY PREDICTED BY IDOCK:   -4.73 KCAL/MOL
REMARK 922        TOTAL FREE ENERGY PREDICTED BY IDOCK:   -6.73 KCAL/MOL
REMARK 923 INTER-LIGAND FREE ENERGY PREDICTED BY IDOCK:   -5.59 KCAL/MOL
REMARK 924 INTRA-LIGAND FREE ENERGY PREDICTED BY IDOCK:   -1.13 KCAL/MOL
REMARK 927      BINDING AFFINITY PREDICTED BY RF-SCORE:    0.00 PKD
ROOT
HETATM    1  C   UNL     1     -10.683   8.235  68.246  1.00  0.00    -0.076 C  
HETATM    2  C   UNL     1      -9.678   9.303  68.516  1.00  0.00    -0.162 A  
HETATM    3  C   UNL     1      -9.443  10.497  67.819  1.00  0.00    -0.149 A  
HETATM    4  C   UNL     1      -8.774   9.291  69.617  1.00  0.00    -0.153 A  
HETATM    5  N   UNL     1      -8.399  11.129  68.529  1.00  0.00    -0.148 NA 
HETATM    6  N   UNL     1      -8.079  10.436  69.664  1.00  0.00    -0.143 NA 
ENDROOT
BRANCH   3   7
HETATM    7  C   UNL     1     -10.185  11.012  66.637  1.00  0.00    -0.280 A  
HETATM    8  C   UNL     1     -11.211  11.962  66.815  1.00  0.00    -0.384 A  
HETATM    9  C   UNL     1     -10.643  11.107  64.237  1.00  0.00    -0.425 A  
HETATM   10  C   UNL     1      -9.899  10.615  65.321  1.00  0.00    -0.334 A  
HETATM   11  C   UNL     1     -11.908  12.509  65.730  1.00  0.00    -0.494 A  
HETATM   12 CL   UNL     1     -12.509  12.704  63.110  1.00  0.00    -0.390 Cl 
HETATM   13  C   UNL     1     -11.630  12.065  64.442  1.00  0.00    -0.336 A  
ENDBRANCH   3   7
BRANCH   5  14
HETATM   14  C   UNL     1      -7.703  12.368  68.330  1.00  0.00    -0.140 A  
HETATM   15  C   UNL     1      -8.472  13.554  68.423  1.00  0.00    -0.143 A  
HETATM   16  C   UNL     1      -6.579  14.895  67.792  1.00  0.00    -0.168 A  
HETATM   17  C   UNL     1      -5.788  13.750  67.753  1.00  0.00    -0.103 A  
HETATM   18 CL   UNL     1      -5.174  11.244  68.371  1.00  0.00    -0.040 Cl 
HETATM   19  C   UNL     1      -6.331  12.493  68.076  1.00  0.00    -0.087 A  
HETATM   20  C   UNL     1      -7.912  14.807  68.165  1.00  0.00    -0.129 A  
HETATM   21 CL   UNL     1      -5.893  16.430  67.432  1.00  0.00    -0.179 Cl 
ENDBRANCH   5  14
BRANCH   4  22
HETATM   22  C   UNL     1      -8.574   8.220  70.636  1.00  0.00    -0.136 C  
HETATM   23  O   UNL     1      -8.724   8.431  71.839  1.00  0.00    -0.159 OA 
HETATM   24  N   UNL     1      -8.227   7.002  70.071  1.00  0.00    -0.131 N  
HETATM   25  H   UNL     1      -8.102   6.984  69.059  1.00  0.00     0.000 HD 
BRANCH  24  26
HETATM   26  N   UNL     1      -8.029   5.789  70.755  1.00  0.00    -0.111 NA 
HETATM   27  C   UNL     1      -9.246   5.057  71.096  1.00  0.00    -0.145 C  
HETATM   28  C   UNL     1      -9.622   3.993  70.073  1.00  0.00    -0.274 C  
HETATM   29  C   UNL     1      -8.475   3.006  69.898  1.00  0.00    -0.094 C  
HETATM   30  C   UNL     1      -7.206   3.739  69.477  1.00  0.00    -0.045 C  
HETATM   31  C   UNL     1      -6.891   4.955  70.360  1.00  0.00    -0.037 C  
ENDBRANCH  24  26
ENDBRANCH   4  22
TORSDOF 4
ENDMDL
MODEL       93
REMARK 921   NORMALIZED FREE ENERGY PREDICTED BY IDOCK:   -4.65 KCAL/MOL
REMARK 922        TOTAL FREE ENERGY PREDICTED BY IDOCK:   -6.63 KCAL/MOL
REMARK 923 INTER-LIGAND FREE ENERGY PREDICTED BY IDOCK:   -6.06 KCAL/MOL
REMARK 924 INTRA-LIGAND FREE ENERGY PREDICTED BY IDOCK:   -0.56 KCAL/MOL
REMARK 927      BINDING AFFINITY PREDICTED BY RF-SCORE:    0.00 PKD
ROOT
HETATM    1  C   UNL     1      -9.457  14.336  68.865  1.00  0.00    -0.071 C  
HETATM    2  C   UNL     1      -9.277  13.546  67.612  1.00  0.00    -0.214 A  
HETATM    3  C   UNL     1      -8.986  12.184  67.456  1.00  0.00    -0.177 A  
HETATM    4  C   UNL     1      -9.423  14.083  66.301  1.00  0.00    -0.227 A  
HETATM    5  N   UNL     1      -8.955  11.979  66.059  1.00  0.00    -0.091 NA 
HETATM    6  N   UNL     1      -9.320  13.112  65.383  1.00  0.00     0.270 NA 
ENDROOT
BRANCH   3   7
HETATM    7  C   UNL     1      -8.820  11.169  68.531  1.00  0.00    -0.161 A  
HETATM    8  C   UNL     1      -9.937  10.434  68.977  1.00  0.00    -0.224 A  
HETATM    9  C   UNL     1      -7.475   9.927  70.152  1.00  0.00    -0.178 A  
HETATM   10  C   UNL     1      -7.581  10.875  69.122  1.00  0.00    -0.133 A  
HETATM   11  C   UNL     1      -9.824   9.438  69.954  1.00  0.00    -0.235 A  
HETATM   12 CL   UNL     1      -8.454   8.004  71.780  1.00  0.00    -0.146 Cl 
HETATM   13  C   UNL     1      -8.591   9.199  70.551  1.00  0.00    -0.219 A  
ENDBRANCH   3   7
BRANCH   5  14
HETATM   14  C   UNL     1      -8.710  10.816  65.255  1.00  0.00    -0.173 A  
HETATM   15  C   UNL     1      -7.693   9.936  65.701  1.00  0.00    -0.121 A  
HETATM   16  C   UNL     1      -7.937   8.574  63.734  1.00  0.00    -0.161 A  
HETATM   17  C   UNL     1      -8.980   9.391  63.305  1.00  0.00    -0.155 A  
HETATM   18 CL   UNL     1     -10.936  11.151  63.644  1.00  0.00    -0.359 Cl 
HETATM   19  C   UNL     1      -9.407  10.478  64.088  1.00  0.00    -0.267 A  
HETATM   20  C   UNL     1      -7.317   8.820  64.951  1.00  0.00    -0.093 A  
HETATM   21 CL   UNL     1      -7.450   7.226  62.784  1.00  0.00    -0.093 Cl 
ENDBRANCH   5  14
BRANCH   4  22
HETATM   22  C   UNL     1      -9.680  15.498  65.905  1.00  0.00    -0.357 C  
HETATM   23  O   UNL     1     -10.453  15.788  64.994  1.00  0.00    -0.462 OA 
HETATM   24  N   UNL     1      -8.973  16.407  66.679  1.00  0.00    -0.235 N  
HETATM   25  H   UNL     1      -8.339  16.019  67.377  1.00  0.00     0.000 HD 
BRANCH  24  26
HETATM   26  N   UNL     1      -9.043  17.809  66.597  1.00  0.00    -0.259 NA 
HETATM   27  C   UNL     1     -10.296  18.401  67.055  1.00  0.00    -0.393 C  
HETATM   28  C   UNL     1     -10.256  18.857  68.509  1.00  0.00    -0.407 C  
HETATM   29  C   UNL     1      -9.124  19.856  68.712  1.00  0.00    -0.133 C  
HETATM   30  C   UNL     1      -7.793  19.238  68.301  1.00  0.00    -0.354 C  
HETATM   31  C   UNL     1      -7.837  18.578  66.915  1.00  0.00    -0.233 C  
ENDBRANCH  24  26
ENDBRANCH   4  22
TORSDOF 4
ENDMDL
MODEL       94
REMARK 921   NORMALIZED FREE ENERGY PREDICTED BY IDOCK:   -4.63 KCAL/MOL
REMARK 922        TOTAL FREE ENERGY PREDICTED BY IDOCK:   -6.61 KCAL/MOL
REMARK 923 INTER-LIGAND FREE ENERGY PREDICTED BY IDOCK:   -5.37 KCAL/MOL
REMARK 924 INTRA-LIGAND FREE ENERGY PREDICTED BY IDOCK:   -1.23 KCAL/MOL
REMARK 927      BINDING AFFINITY PREDICTED BY RF-SCORE:    0.00 PKD
ROOT
HETATM    1  C   UNL     1      -6.820  11.071  67.098  1.00  0.00    -0.098 C  
HETATM    2  C   UNL     1      -8.043  10.687  67.860  1.00  0.00    -0.111 A  
HETATM    3  C   UNL     1      -8.414   9.436  68.372  1.00  0.00    -0.120 A  
HETATM    4  C   UNL     1      -9.065  11.602  68.245  1.00  0.00    -0.187 A  
HETATM    5  N   UNL     1      -9.647   9.662  69.021  1.00  0.00    -0.162 NA 
HETATM    6  N   UNL     1      -9.973  10.991  69.019  1.00  0.00    -0.195 NA 
ENDROOT
BRANCH   3   7
HETATM    7  C   UNL     1      -7.637   8.169  68.306  1.00  0.00    -0.102 A  
HETATM    8  C   UNL     1      -7.389   7.565  67.057  1.00  0.00    -0.094 A  
HETATM    9  C   UNL     1      -6.395   6.330  69.334  1.00  0.00    -0.035 A  
HETATM   10  C   UNL     1      -7.100   7.539  69.441  1.00  0.00    -0.073 A  
HETATM   11  C   UNL     1      -6.626   6.397  66.939  1.00  0.00    -0.055 A  
HETATM   12 CL   UNL     1      -5.239   4.318  67.949  1.00  0.00    -0.010 Cl 
HETATM   13  C   UNL     1      -6.144   5.774  68.084  1.00  0.00    -0.018 A  
ENDBRANCH   3   7
BRANCH   5  14
HETATM   14  C   UNL     1     -10.540   8.795  69.734  1.00  0.00    -0.224 A  
HETATM   15  C   UNL     1     -11.001   9.251  70.994  1.00  0.00    -0.390 A  
HETATM   16  C   UNL     1     -12.152   7.177  71.384  1.00  0.00    -0.344 A  
HETATM   17  C   UNL     1     -11.761   6.730  70.124  1.00  0.00    -0.370 A  
HETATM   18 CL   UNL     1     -10.931   7.047  67.624  1.00  0.00    -0.288 Cl 
HETATM   19  C   UNL     1     -11.005   7.556  69.275  1.00  0.00    -0.038 A  
HETATM   20  C   UNL     1     -11.808   8.452  71.807  1.00  0.00    -0.374 A  
HETATM   21 CL   UNL     1     -13.110   6.170  72.398  1.00  0.00     0.194 Cl 
ENDBRANCH   5  14
BRANCH   4  22
HETATM   22  C   UNL     1      -9.184  13.050  67.906  1.00  0.00    -0.208 C  
HETATM   23  O   UNL     1      -9.728  13.433  66.872  1.00  0.00    -0.238 OA 
HETATM   24  N   UNL     1      -8.638  13.874  68.880  1.00  0.00    -0.364 N  
HETATM   25  H   UNL     1      -8.186  13.414  69.670  1.00  0.00     0.000 HD 
BRANCH  24  26
HETATM   26  N   UNL     1      -8.645  15.280  68.886  1.00  0.00    -0.192 NA 
HETATM   27  C   UNL     1      -7.702  15.915  67.970  1.00  0.00    -0.132 C  
HETATM   28  C   UNL     1      -8.318  16.285  66.626  1.00  0.00    -0.315 C  
HETATM   29  C   UNL     1      -9.513  17.206  66.833  1.00  0.00    -0.267 C  
HETATM   30  C   UNL     1     -10.544  16.538  67.736  1.00  0.00    -0.332 C  
HETATM   31  C   UNL     1      -9.935  15.960  69.022  1.00  0.00    -0.233 C  
ENDBRANCH  24  26
ENDBRANCH   4  22
TORSDOF 4
ENDMDL
MODEL       95
REMARK 921   NORMALIZED FREE ENERGY PREDICTED BY IDOCK:   -4.62 KCAL/MOL
REMARK 922        TOTAL FREE ENERGY PREDICTED BY IDOCK:   -6.59 KCAL/MOL
REMARK 923 INTER-LIGAND FREE ENERGY PREDICTED BY IDOCK:   -6.42 KCAL/MOL
REMARK 924 INTRA-LIGAND FREE ENERGY PREDICTED BY IDOCK:   -0.16 KCAL/MOL
REMARK 927      BINDING AFFINITY PREDICTED BY RF-SCORE:    0.00 PKD
ROOT
HETATM    1  C   UNL     1      -8.346   8.297  66.965  1.00  0.00    -0.122 C  
HETATM    2  C   UNL     1      -9.073   8.990  68.068  1.00  0.00    -0.140 A  
HETATM    3  C   UNL     1      -9.963  10.071  68.002  1.00  0.00    -0.150 A  
HETATM    4  C   UNL     1      -9.000   8.608  69.439  1.00  0.00    -0.145 A  
HETATM    5  N   UNL     1     -10.364  10.291  69.338  1.00  0.00    -0.221 NA 
HETATM    6  N   UNL     1      -9.850   9.337  70.174  1.00  0.00    -0.199 NA 
ENDROOT
BRANCH   3   7
HETATM    7  C   UNL     1     -10.435  10.777  66.780  1.00  0.00    -0.305 A  
HETATM    8  C   UNL     1     -11.659  11.474  66.803  1.00  0.00    -0.133 A  
HETATM    9  C   UNL     1     -10.195  11.468  64.447  1.00  0.00    -0.350 A  
HETATM   10  C   UNL     1      -9.700  10.810  65.584  1.00  0.00    -0.287 A  
HETATM   11  C   UNL     1     -12.123  12.190  65.693  1.00  0.00    -0.180 A  
HETATM   12 CL   UNL     1     -11.979  13.015  63.131  1.00  0.00    -0.493 Cl 
HETATM   13  C   UNL     1     -11.394  12.170  64.510  1.00  0.00    -0.334 A  
ENDBRANCH   3   7
BRANCH   5  14
HETATM   14  C   UNL     1     -11.251  11.245  69.939  1.00  0.00    -0.187 A  
HETATM   15  C   UNL     1     -11.039  12.607  69.614  1.00  0.00     0.030 A  
HETATM   16  C   UNL     1     -12.757  13.296  71.149  1.00  0.00    -0.320 A  
HETATM   17  C   UNL     1     -13.024  11.961  71.440  1.00  0.00    -0.385 A  
HETATM   18 CL   UNL     1     -13.004   9.354  70.947  1.00  0.00    -0.194 Cl 
HETATM   19  C   UNL     1     -12.314  10.932  70.796  1.00  0.00    -0.390 A  
HETATM   20  C   UNL     1     -11.792  13.623  70.207  1.00  0.00    -0.336 A  
HETATM   21 CL   UNL     1     -13.659  14.544  71.916  1.00  0.00    -0.442 Cl 
ENDBRANCH   5  14
BRANCH   4  22
HETATM   22  C   UNL     1      -8.151   7.549  70.058  1.00  0.00    -0.127 C  
HETATM   23  O   UNL     1      -6.998   7.770  70.422  1.00  0.00    -0.046 OA 
HETATM   24  N   UNL     1      -8.814   6.336  70.180  1.00  0.00    -0.148 N  
HETATM   25  H   UNL     1      -9.759   6.289  69.801  1.00  0.00     0.000 HD 
BRANCH  24  26
HETATM   26  N   UNL     1      -8.312   5.165  70.775  1.00  0.00    -0.110 NA 
HETATM   27  C   UNL     1      -8.293   5.162  72.235  1.00  0.00    -0.121 C  
HETATM   28  C   UNL     1      -9.522   4.509  72.856  1.00  0.00    -0.153 C  
HETATM   29  C   UNL     1      -9.665   3.079  72.353  1.00  0.00    -0.216 C  
HETATM   30  C   UNL     1      -9.753   3.060  70.832  1.00  0.00    -0.155 C  
HETATM   31  C   UNL     1      -8.646   3.881  70.154  1.00  0.00    -0.065 C  
ENDBRANCH  24  26
ENDBRANCH   4  22
TORSDOF 4
ENDMDL
MODEL       96
REMARK 921   NORMALIZED FREE ENERGY PREDICTED BY IDOCK:   -4.59 KCAL/MOL
REMARK 922        TOTAL FREE ENERGY PREDICTED BY IDOCK:   -6.55 KCAL/MOL
REMARK 923 INTER-LIGAND FREE ENERGY PREDICTED BY IDOCK:   -5.16 KCAL/MOL
REMARK 924 INTRA-LIGAND FREE ENERGY PREDICTED BY IDOCK:   -1.39 KCAL/MOL
REMARK 927      BINDING AFFINITY PREDICTED BY RF-SCORE:    0.00 PKD
ROOT
HETATM    1  C   UNL     1      -6.010   8.165  66.200  1.00  0.00    -0.041 C  
HETATM    2  C   UNL     1      -7.287   8.226  66.969  1.00  0.00    -0.084 A  
HETATM    3  C   UNL     1      -7.769   9.239  67.810  1.00  0.00    -0.088 A  
HETATM    4  C   UNL     1      -8.293   7.218  66.930  1.00  0.00    -0.118 A  
HETATM    5  N   UNL     1      -9.030   8.778  68.245  1.00  0.00    -0.141 NA 
HETATM    6  N   UNL     1      -9.371   7.606  67.626  1.00  0.00    -0.141 NA 
ENDROOT
BRANCH   3   7
HETATM    7  C   UNL     1      -7.120  10.543  68.114  1.00  0.00    -0.082 A  
HETATM    8  C   UNL     1      -7.248  11.616  67.208  1.00  0.00    -0.137 A  
HETATM    9  C   UNL     1      -5.774  12.019  69.524  1.00  0.00    -0.085 A  
HETATM   10  C   UNL     1      -6.391  10.780  69.290  1.00  0.00    -0.061 A  
HETATM   11  C   UNL     1      -6.694  12.874  67.470  1.00  0.00    -0.156 A  
HETATM   12 CL   UNL     1      -5.226  14.599  68.932  1.00  0.00    -0.087 Cl 
HETATM   13  C   UNL     1      -5.942  13.066  68.624  1.00  0.00    -0.071 A  
ENDBRANCH   3   7
BRANCH   5  14
HETATM   14  C   UNL     1     -10.020   9.341  69.117  1.00  0.00    -0.179 A  
HETATM   15  C   UNL     1      -9.973   8.945  70.476  1.00  0.00    -0.243 A  
HETATM   16  C   UNL     1     -11.978  10.179  70.962  1.00  0.00    -0.378 A  
HETATM   17  C   UNL     1     -12.013  10.630  69.645  1.00  0.00    -0.340 A  
HETATM   18 CL   UNL     1     -10.950  11.191  67.280  1.00  0.00    -0.331 Cl 
HETATM   19  C   UNL     1     -11.006  10.260  68.735  1.00  0.00    -0.243 A  
HETATM   20  C   UNL     1     -10.938   9.368  71.392  1.00  0.00    -0.443 A  
HETATM   21 CL   UNL     1     -13.195  10.670  72.074  1.00  0.00    -0.555 Cl 
ENDBRANCH   5  14
BRANCH   4  22
HETATM   22  C   UNL     1      -8.257   5.903  66.226  1.00  0.00    -0.114 C  
HETATM   23  O   UNL     1      -7.651   4.937  66.687  1.00  0.00    -0.086 OA 
HETATM   24  N   UNL     1      -8.980   5.909  65.042  1.00  0.00    -0.368 N  
HETATM   25  H   UNL     1      -9.401   6.796  64.767  1.00  0.00     0.000 HD 
BRANCH  24  26
HETATM   26  N   UNL     1      -9.189   4.815  64.184  1.00  0.00    -0.069 NA 
HETATM   27  C   UNL     1      -8.080   4.502  63.288  1.00  0.00    -0.092 C  
HETATM   28  C   UNL     1      -7.146   3.426  63.830  1.00  0.00    -0.050 C  
HETATM   29  C   UNL     1      -7.930   2.153  64.124  1.00  0.00    -0.073 C  
HETATM   30  C   UNL     1      -9.056   2.441  65.110  1.00  0.00    -0.126 C  
HETATM   31  C   UNL     1      -9.909   3.654  64.713  1.00  0.00    -0.175 C  
ENDBRANCH  24  26
ENDBRANCH   4  22
TORSDOF 4
ENDMDL
MODEL       97
REMARK 921   NORMALIZED FREE ENERGY PREDICTED BY IDOCK:   -4.58 KCAL/MOL
REMARK 922        TOTAL FREE ENERGY PREDICTED BY IDOCK:   -6.54 KCAL/MOL
REMARK 923 INTER-LIGAND FREE ENERGY PREDICTED BY IDOCK:   -5.07 KCAL/MOL
REMARK 924 INTRA-LIGAND FREE ENERGY PREDICTED BY IDOCK:   -1.47 KCAL/MOL
REMARK 927      BINDING AFFINITY PREDICTED BY RF-SCORE:    0.00 PKD
ROOT
HETATM    1  C   UNL     1     -10.499   8.016  66.967  1.00  0.00    -0.410 C  
HETATM    2  C   UNL     1      -9.861   6.977  67.826  1.00  0.00    -0.166 A  
HETATM    3  C   UNL     1     -10.081   6.688  69.180  1.00  0.00    -0.169 A  
HETATM    4  C   UNL     1      -8.900   6.034  67.360  1.00  0.00    -0.106 A  
HETATM    5  N   UNL     1      -9.228   5.598  69.460  1.00  0.00    -0.127 NA 
HETATM    6  N   UNL     1      -8.599   5.156  68.327  1.00  0.00    -0.099 NA 
ENDROOT
BRANCH   3   7
HETATM    7  C   UNL     1     -11.056   7.341  70.094  1.00  0.00    -0.281 A  
HETATM    8  C   UNL     1     -12.155   6.608  70.585  1.00  0.00    -0.342 A  
HETATM    9  C   UNL     1     -11.884   9.255  71.371  1.00  0.00    -0.428 A  
HETATM   10  C   UNL     1     -10.926   8.671  70.528  1.00  0.00    -0.266 A  
HETATM   11  C   UNL     1     -13.074   7.166  71.482  1.00  0.00    -0.427 A  
HETATM   12 CL   UNL     1     -14.090   9.199  72.931  1.00  0.00    -0.201 Cl 
HETATM   13  C   UNL     1     -12.943   8.497  71.860  1.00  0.00    -0.362 A  
ENDBRANCH   3   7
BRANCH   5  14
HETATM   14  C   UNL     1      -8.980   4.843  70.654  1.00  0.00    -0.126 A  
HETATM   15  C   UNL     1      -9.191   3.444  70.579  1.00  0.00    -0.212 A  
HETATM   16  C   UNL     1      -8.731   3.195  72.926  1.00  0.00    -0.084 A  
HETATM   17  C   UNL     1      -8.460   4.558  73.011  1.00  0.00    -0.099 A  
HETATM   18 CL   UNL     1      -7.794   6.932  72.030  1.00  0.00    -0.095 Cl 
HETATM   19  C   UNL     1      -8.528   5.375  71.868  1.00  0.00    -0.127 A  
HETATM   20  C   UNL     1      -9.058   2.627  71.703  1.00  0.00    -0.156 A  
HETATM   21 CL   UNL     1      -8.608   2.201  74.324  1.00  0.00    -0.058 Cl 
ENDBRANCH   5  14
BRANCH   4  22
HETATM   22  C   UNL     1      -8.278   5.940  66.007  1.00  0.00    -0.123 C  
HETATM   23  O   UNL     1      -7.528   6.814  65.575  1.00  0.00    -0.076 OA 
HETATM   24  N   UNL     1      -8.629   4.778  65.336  1.00  0.00    -0.129 N  
HETATM   25  H   UNL     1      -9.291   4.160  65.805  1.00  0.00     0.000 HD 
BRANCH  24  26
HETATM   26  N   UNL     1      -8.164   4.368  64.074  1.00  0.00    -0.098 NA 
HETATM   27  C   UNL     1      -6.795   3.862  64.046  1.00  0.00    -0.045 C  
HETATM   28  C   UNL     1      -6.705   2.345  64.162  1.00  0.00    -0.031 C  
HETATM   29  C   UNL     1      -7.507   1.687  63.047  1.00  0.00    -0.045 C  
HETATM   30  C   UNL     1      -8.959   2.150  63.095  1.00  0.00    -0.088 C  
HETATM   31  C   UNL     1      -9.102   3.676  63.187  1.00  0.00    -0.100 C  
ENDBRANCH  24  26
ENDBRANCH   4  22
TORSDOF 4
ENDMDL
MODEL       98
REMARK 921   NORMALIZED FREE ENERGY PREDICTED BY IDOCK:   -4.57 KCAL/MOL
REMARK 922        TOTAL FREE ENERGY PREDICTED BY IDOCK:   -6.53 KCAL/MOL
REMARK 923 INTER-LIGAND FREE ENERGY PREDICTED BY IDOCK:   -5.17 KCAL/MOL
REMARK 924 INTRA-LIGAND FREE ENERGY PREDICTED BY IDOCK:   -1.36 KCAL/MOL
REMARK 927      BINDING AFFINITY PREDICTED BY RF-SCORE:    0.00 PKD
ROOT
HETATM    1  C   UNL     1      -8.212  11.387  68.548  1.00  0.00    -0.153 C  
HETATM    2  C   UNL     1      -8.380  10.002  68.021  1.00  0.00    -0.117 A  
HETATM    3  C   UNL     1      -8.289   8.777  68.697  1.00  0.00    -0.128 A  
HETATM    4  C   UNL     1      -8.723   9.696  66.672  1.00  0.00    -0.134 A  
HETATM    5  N   UNL     1      -8.563   7.801  67.715  1.00  0.00    -0.121 NA 
HETATM    6  N   UNL     1      -8.920   8.378  66.526  1.00  0.00    -0.147 NA 
ENDROOT
BRANCH   3   7
HETATM    7  C   UNL     1      -8.031   8.566  70.147  1.00  0.00    -0.105 A  
HETATM    8  C   UNL     1      -6.723   8.706  70.653  1.00  0.00    -0.043 A  
HETATM    9  C   UNL     1      -8.752   8.036  72.422  1.00  0.00    -0.224 A  
HETATM   10  C   UNL     1      -9.045   8.252  71.066  1.00  0.00    -0.189 A  
HETATM   11  C   UNL     1      -6.439   8.560  72.016  1.00  0.00    -0.073 A  
HETATM   12 CL   UNL     1      -7.105   7.990  74.564  1.00  0.00    -0.176 Cl 
HETATM   13  C   UNL     1      -7.456   8.209  72.895  1.00  0.00    -0.125 A  
ENDBRANCH   3   7
BRANCH   5  14
HETATM   14  C   UNL     1      -8.622   6.368  67.762  1.00  0.00    -0.116 A  
HETATM   15  C   UNL     1      -9.764   5.758  67.189  1.00  0.00    -0.147 A  
HETATM   16  C   UNL     1      -9.030   3.584  67.908  1.00  0.00    -0.139 A  
HETATM   17  C   UNL     1      -7.870   4.154  68.426  1.00  0.00    -0.073 A  
HETATM   18 CL   UNL     1      -6.013   6.038  68.626  1.00  0.00    -0.019 Cl 
HETATM   19  C   UNL     1      -7.635   5.535  68.305  1.00  0.00    -0.081 A  
HETATM   20  C   UNL     1      -9.961   4.377  67.253  1.00  0.00    -0.164 A  
HETATM   21 CL   UNL     1      -9.286   1.887  68.029  1.00  0.00    -0.229 Cl 
ENDBRANCH   5  14
BRANCH   4  22
HETATM   22  C   UNL     1      -8.886  10.635  65.524  1.00  0.00    -0.188 C  
HETATM   23  O   UNL     1      -7.989  10.822  64.704  1.00  0.00    -0.013 OA 
HETATM   24  N   UNL     1     -10.138  11.233  65.495  1.00  0.00    -0.244 N  
HETATM   25  H   UNL     1     -10.770  11.010  66.264  1.00  0.00     0.000 HD 
BRANCH  24  26
HETATM   26  N   UNL     1     -10.621  12.115  64.513  1.00  0.00    -0.292 NA 
HETATM   27  C   UNL     1     -12.056  12.038  64.253  1.00  0.00    -0.322 C  
HETATM   28  C   UNL     1     -12.871  13.056  65.042  1.00  0.00    -0.365 C  
HETATM   29  C   UNL     1     -12.381  14.466  64.740  1.00  0.00    -0.427 C  
HETATM   30  C   UNL     1     -10.897  14.591  65.065  1.00  0.00    -0.425 C  
HETATM   31  C   UNL     1     -10.049  13.463  64.458  1.00  0.00    -0.192 C  
ENDBRANCH  24  26
ENDBRANCH   4  22
TORSDOF 4
ENDMDL
MODEL       99
REMARK 921   NORMALIZED FREE ENERGY PREDICTED BY IDOCK:   -4.55 KCAL/MOL
REMARK 922        TOTAL FREE ENERGY PREDICTED BY IDOCK:   -6.51 KCAL/MOL
REMARK 923 INTER-LIGAND FREE ENERGY PREDICTED BY IDOCK:   -5.23 KCAL/MOL
REMARK 924 INTRA-LIGAND FREE ENERGY PREDICTED BY IDOCK:   -1.28 KCAL/MOL
REMARK 927      BINDING AFFINITY PREDICTED BY RF-SCORE:    0.00 PKD
ROOT
HETATM    1  C   UNL     1     -11.283  11.714  64.818  1.00  0.00    -0.300 C  
HETATM    2  C   UNL     1     -10.191  11.170  65.675  1.00  0.00    -0.310 A  
HETATM    3  C   UNL     1      -9.912  11.422  67.026  1.00  0.00    -0.201 A  
HETATM    4  C   UNL     1      -9.227  10.217  65.233  1.00  0.00    -0.199 A  
HETATM    5  N   UNL     1      -8.786  10.622  67.318  1.00  0.00    -0.136 NA 
HETATM    6  N   UNL     1      -8.450   9.830  66.254  1.00  0.00    -0.123 NA 
ENDROOT
BRANCH   3   7
HETATM    7  C   UNL     1     -10.684  12.287  67.958  1.00  0.00    -0.245 A  
HETATM    8  C   UNL     1     -10.452  13.677  67.976  1.00  0.00    -0.251 A  
HETATM    9  C   UNL     1     -12.358  12.640  69.706  1.00  0.00    -0.090 A  
HETATM   10  C   UNL     1     -11.671  11.790  68.824  1.00  0.00    -0.389 A  
HETATM   11  C   UNL     1     -11.184  14.538  68.803  1.00  0.00    -0.281 A  
HETATM   12 CL   UNL     1     -13.000  15.058  70.726  1.00  0.00    -0.435 Cl 
HETATM   13  C   UNL     1     -12.126  14.011  69.680  1.00  0.00    -0.355 A  
ENDBRANCH   3   7
BRANCH   5  14
HETATM   14  C   UNL     1      -8.017  10.432  68.514  1.00  0.00    -0.114 A  
HETATM   15  C   UNL     1      -6.840  11.209  68.646  1.00  0.00    -0.070 A  
HETATM   16  C   UNL     1      -6.262  10.085  70.691  1.00  0.00    -0.103 A  
HETATM   17  C   UNL     1      -7.443   9.351  70.614  1.00  0.00    -0.150 A  
HETATM   18 CL   UNL     1      -9.924   8.889  69.797  1.00  0.00    -0.188 Cl 
HETATM   19  C   UNL     1      -8.349   9.561  69.560  1.00  0.00    -0.145 A  
HETATM   20  C   UNL     1      -5.976  11.043  69.730  1.00  0.00    -0.086 A  
HETATM   21 CL   UNL     1      -5.180   9.844  72.007  1.00  0.00    -0.069 Cl 
ENDBRANCH   5  14
BRANCH   4  22
HETATM   22  C   UNL     1      -9.044   9.655  63.863  1.00  0.00    -0.185 C  
HETATM   23  O   UNL     1      -9.497  10.214  62.866  1.00  0.00    -0.299 OA 
HETATM   24  N   UNL     1      -8.312   8.476  63.862  1.00  0.00    -0.331 N  
HETATM   25  H   UNL     1      -8.032   8.110  64.772  1.00  0.00     0.000 HD 
BRANCH  24  26
HETATM   26  N   UNL     1      -7.920   7.737  62.733  1.00  0.00    -0.138 NA 
HETATM   27  C   UNL     1      -6.496   7.792  62.412  1.00  0.00    -0.080 C  
HETATM   28  C   UNL     1      -5.698   6.630  62.993  1.00  0.00    -0.034 C  
HETATM   29  C   UNL     1      -6.273   5.306  62.505  1.00  0.00    -0.018 C  
HETATM   30  C   UNL     1      -7.745   5.196  62.885  1.00  0.00    -0.072 C  
HETATM   31  C   UNL     1      -8.561   6.439  62.504  1.00  0.00     0.162 C  
ENDBRANCH  24  26
ENDBRANCH   4  22
TORSDOF 4
ENDMDL
MODEL      100
REMARK 921   NORMALIZED FREE ENERGY PREDICTED BY IDOCK:   -4.52 KCAL/MOL
REMARK 922        TOTAL FREE ENERGY PREDICTED BY IDOCK:   -6.47 KCAL/MOL
REMARK 923 INTER-LIGAND FREE ENERGY PREDICTED BY IDOCK:   -5.11 KCAL/MOL
REMARK 924 INTRA-LIGAND FREE ENERGY PREDICTED BY IDOCK:   -1.36 KCAL/MOL
REMARK 927      BINDING AFFINITY PREDICTED BY RF-SCORE:    0.00 PKD
ROOT
HETATM    1  C   UNL     1      -7.049   9.374  64.367  1.00  0.00    -0.101 C  
HETATM    2  C   UNL     1      -7.640   8.992  65.682  1.00  0.00    -0.086 A  
HETATM    3  C   UNL     1      -7.763   7.722  66.264  1.00  0.00    -0.089 A  
HETATM    4  C   UNL     1      -8.165   9.923  66.624  1.00  0.00    -0.121 A  
HETATM    5  N   UNL     1      -8.371   7.956  67.516  1.00  0.00    -0.123 NA 
HETATM    6  N   UNL     1      -8.514   9.296  67.756  1.00  0.00    -0.116 NA 
ENDROOT
BRANCH   3   7
HETATM    7  C   UNL     1      -7.287   6.427  65.709  1.00  0.00    -0.080 A  
HETATM    8  C   UNL     1      -5.912   6.232  65.469  1.00  0.00    -0.026 A  
HETATM    9  C   UNL     1      -7.656   4.156  64.881  1.00  0.00    -0.077 A  
HETATM   10  C   UNL     1      -8.146   5.352  65.428  1.00  0.00    -0.120 A  
HETATM   11  C   UNL     1      -5.410   5.015  64.989  1.00  0.00    -0.013 A  
HETATM   12 CL   UNL     1      -5.684   2.502  64.055  1.00  0.00    -0.009 Cl 
HETATM   13  C   UNL     1      -6.290   3.984  64.681  1.00  0.00    -0.030 A  
ENDBRANCH   3   7
BRANCH   5  14
HETATM   14  C   UNL     1      -8.768   7.080  68.580  1.00  0.00    -0.123 A  
HETATM   15  C   UNL     1      -7.856   6.926  69.653  1.00  0.00    -0.119 A  
HETATM   16  C   UNL     1      -9.262   5.268  70.681  1.00  0.00    -0.148 A  
HETATM   17  C   UNL     1     -10.202   5.445  69.668  1.00  0.00    -0.345 A  
HETATM   18 CL   UNL     1     -11.377   6.785  67.703  1.00  0.00    -0.197 Cl 
HETATM   19  C   UNL     1      -9.985   6.389  68.648  1.00  0.00    -0.146 A  
HETATM   20  C   UNL     1      -8.106   6.035  70.699  1.00  0.00    -0.116 A  
HETATM   21 CL   UNL     1      -9.557   4.138  71.943  1.00  0.00    -0.204 Cl 
ENDBRANCH   5  14
BRANCH   4  22
HETATM   22  C   UNL     1      -8.322  11.399  66.475  1.00  0.00    -0.164 C  
HETATM   23  O   UNL     1      -7.503  12.190  66.939  1.00  0.00    -0.117 OA 
HETATM   24  N   UNL     1      -9.459  11.746  65.760  1.00  0.00    -0.272 N  
HETATM   25  H   UNL     1     -10.068  10.982  65.467  1.00  0.00     0.000 HD 
BRANCH  24  26
HETATM   26  N   UNL     1      -9.856  13.046  65.399  1.00  0.00    -0.173 NA 
HETATM   27  C   UNL     1     -10.598  13.149  64.146  1.00  0.00    -0.361 C  
HETATM   28  C   UNL     1     -12.110  13.138  64.334  1.00  0.00    -0.471 C  
HETATM   29  C   UNL     1     -12.531  14.270  65.262  1.00  0.00    -0.428 C  
HETATM   30  C   UNL     1     -11.818  14.148  66.603  1.00  0.00    -0.447 C  
HETATM   31  C   UNL     1     -10.301  13.949  66.464  1.00  0.00    -0.286 C  
ENDBRANCH  24  26
ENDBRANCH   4  22
TORSDOF 4
ENDMDL
MODEL      101
REMARK 921   NORMALIZED FREE ENERGY PREDICTED BY IDOCK:   -4.51 KCAL/MOL
REMARK 922        TOTAL FREE ENERGY PREDICTED BY IDOCK:   -6.46 KCAL/MOL
REMARK 923 INTER-LIGAND FREE ENERGY PREDICTED BY IDOCK:   -5.33 KCAL/MOL
REMARK 924 INTRA-LIGAND FREE ENERGY PREDICTED BY IDOCK:   -1.12 KCAL/MOL
REMARK 927      BINDING AFFINITY PREDICTED BY RF-SCORE:    0.00 PKD
ROOT
HETATM    1  C   UNL     1      -9.563  16.184  66.711  1.00  0.00    -0.256 C  
HETATM    2  C   UNL     1      -8.926  14.944  67.240  1.00  0.00    -0.212 A  
HETATM    3  C   UNL     1      -9.209  13.603  66.940  1.00  0.00    -0.250 A  
HETATM    4  C   UNL     1      -7.837  14.932  68.158  1.00  0.00    -0.122 A  
HETATM    5  N   UNL     1      -8.287  12.859  67.707  1.00  0.00    -0.164 NA 
HETATM    6  N   UNL     1      -7.404  13.679  68.356  1.00  0.00    -0.109 NA 
ENDROOT
BRANCH   3   7
HETATM    7  C   UNL     1     -10.213  13.090  65.969  1.00  0.00    -0.292 A  
HETATM    8  C   UNL     1     -11.588  13.264  66.227  1.00  0.00    -0.384 A  
HETATM    9  C   UNL     1     -10.842  11.958  63.895  1.00  0.00    -0.456 A  
HETATM   10  C   UNL     1      -9.861  12.450  64.770  1.00  0.00    -0.103 A  
HETATM   11  C   UNL     1     -12.569  12.838  65.323  1.00  0.00    -0.460 A  
HETATM   12 CL   UNL     1     -13.392  11.610  63.069  1.00  0.00     0.495 Cl 
HETATM   13  C   UNL     1     -12.190  12.170  64.164  1.00  0.00    -0.413 A  
ENDBRANCH   3   7
BRANCH   5  14
HETATM   14  C   UNL     1      -8.060  11.450  67.850  1.00  0.00    -0.126 A  
HETATM   15  C   UNL     1      -9.015  10.723  68.602  1.00  0.00    -0.162 A  
HETATM   16  C   UNL     1      -7.713   8.710  68.412  1.00  0.00    -0.100 A  
HETATM   17  C   UNL     1      -6.790   9.389  67.620  1.00  0.00    -0.076 A  
HETATM   18 CL   UNL     1      -6.002  11.338  66.002  1.00  0.00    -0.071 Cl 
HETATM   19  C   UNL     1      -6.988  10.742  67.290  1.00  0.00    -0.086 A  
HETATM   20  C   UNL     1      -8.848   9.363  68.872  1.00  0.00    -0.136 A  
HETATM   21 CL   UNL     1      -7.478   7.046  68.777  1.00  0.00    -0.097 Cl 
ENDBRANCH   5  14
BRANCH   4  22
HETATM   22  C   UNL     1      -7.186  16.092  68.834  1.00  0.00    -0.178 C  
HETATM   23  O   UNL     1      -6.972  16.102  70.045  1.00  0.00     0.006 OA 
HETATM   24  N   UNL     1      -6.855  17.109  67.951  1.00  0.00    -0.154 N  
HETATM   25  H   UNL     1      -7.127  16.978  66.977  1.00  0.00     0.000 HD 
BRANCH  24  26
HETATM   26  N   UNL     1      -6.181  18.303  68.265  1.00  0.00    -0.183 NA 
HETATM   27  C   UNL     1      -5.130  18.693  67.330  1.00  0.00    -0.144 C  
HETATM   28  C   UNL     1      -5.601  19.673  66.262  1.00  0.00    -0.172 C  
HETATM   29  C   UNL     1      -6.180  20.921  66.916  1.00  0.00    -0.341 C  
HETATM   30  C   UNL     1      -7.325  20.546  67.850  1.00  0.00    -0.254 C  
HETATM   31  C   UNL     1      -6.965  19.410  68.819  1.00  0.00    -0.333 C  
ENDBRANCH  24  26
ENDBRANCH   4  22
TORSDOF 4
ENDMDL
MODEL      102
REMARK 921   NORMALIZED FREE ENERGY PREDICTED BY IDOCK:   -4.44 KCAL/MOL
REMARK 922        TOTAL FREE ENERGY PREDICTED BY IDOCK:   -6.37 KCAL/MOL
REMARK 923 INTER-LIGAND FREE ENERGY PREDICTED BY IDOCK:   -5.17 KCAL/MOL
REMARK 924 INTRA-LIGAND FREE ENERGY PREDICTED BY IDOCK:   -1.20 KCAL/MOL
REMARK 927      BINDING AFFINITY PREDICTED BY RF-SCORE:    0.00 PKD
ROOT
HETATM    1  C   UNL     1      -6.236   8.465  68.155  1.00  0.00    -0.051 C  
HETATM    2  C   UNL     1      -7.649   8.757  68.529  1.00  0.00    -0.098 A  
HETATM    3  C   UNL     1      -8.395   8.286  69.619  1.00  0.00    -0.123 A  
HETATM    4  C   UNL     1      -8.499   9.648  67.812  1.00  0.00    -0.125 A  
HETATM    5  N   UNL     1      -9.657   8.905  69.489  1.00  0.00    -0.168 NA 
HETATM    6  N   UNL     1      -9.667   9.798  68.451  1.00  0.00    -0.147 NA 
ENDROOT
BRANCH   3   7
HETATM    7  C   UNL     1      -7.927   7.389  70.710  1.00  0.00    -0.104 A  
HETATM    8  C   UNL     1      -7.303   7.939  71.848  1.00  0.00    -0.080 A  
HETATM    9  C   UNL     1      -7.618   5.185  71.723  1.00  0.00    -0.106 A  
HETATM   10  C   UNL     1      -8.099   5.996  70.683  1.00  0.00    -0.116 A  
HETATM   11  C   UNL     1      -6.886   7.141  72.920  1.00  0.00    -0.068 A  
HETATM   12 CL   UNL     1      -6.486   4.772  74.142  1.00  0.00    -0.060 Cl 
HETATM   13  C   UNL     1      -7.031   5.760  72.846  1.00  0.00    -0.077 A  
ENDBRANCH   3   7
BRANCH   5  14
HETATM   14  C   UNL     1     -10.856   8.838  70.274  1.00  0.00    -0.231 A  
HETATM   15  C   UNL     1     -11.262  10.030  70.920  1.00  0.00    -0.415 A  
HETATM   16  C   UNL     1     -13.074   8.885  72.011  1.00  0.00    -0.402 A  
HETATM   17  C   UNL     1     -12.729   7.714  71.340  1.00  0.00    -0.357 A  
HETATM   18 CL   UNL     1     -11.593   6.320  69.389  1.00  0.00    -0.372 Cl 
HETATM   19  C   UNL     1     -11.658   7.700  70.429  1.00  0.00    -0.119 A  
HETATM   20  C   UNL     1     -12.367  10.055  71.774  1.00  0.00    -0.434 A  
HETATM   21 CL   UNL     1     -14.410   8.897  73.094  1.00  0.00     0.282 Cl 
ENDBRANCH   5  14
BRANCH   4  22
HETATM   22  C   UNL     1      -8.213  10.375  66.540  1.00  0.00    -0.131 C  
HETATM   23  O   UNL     1      -7.200  10.153  65.879  1.00  0.00    -0.108 OA 
HETATM   24  N   UNL     1      -9.207  11.284  66.209  1.00  0.00    -0.194 N  
HETATM   25  H   UNL     1      -9.973  11.388  66.873  1.00  0.00     0.000 HD 
BRANCH  24  26
HETATM   26  N   UNL     1      -9.262  12.077  65.048  1.00  0.00     0.160 NA 
HETATM   27  C   UNL     1      -9.613  11.367  63.822  1.00  0.00    -0.237 C  
HETATM   28  C   UNL     1     -11.099  11.428  63.489  1.00  0.00    -0.373 C  
HETATM   29  C   UNL     1     -11.550  12.879  63.377  1.00  0.00    -0.463 C  
HETATM   30  C   UNL     1     -11.253  13.627  64.672  1.00  0.00    -0.383 C  
HETATM   31  C   UNL     1      -9.813  13.429  65.165  1.00  0.00    -0.068 C  
ENDBRANCH  24  26
ENDBRANCH   4  22
TORSDOF 4
ENDMDL
MODEL      103
REMARK 921   NORMALIZED FREE ENERGY PREDICTED BY IDOCK:   -4.35 KCAL/MOL
REMARK 922        TOTAL FREE ENERGY PREDICTED BY IDOCK:   -6.26 KCAL/MOL
REMARK 923 INTER-LIGAND FREE ENERGY PREDICTED BY IDOCK:   -5.12 KCAL/MOL
REMARK 924 INTRA-LIGAND FREE ENERGY PREDICTED BY IDOCK:   -1.14 KCAL/MOL
REMARK 927      BINDING AFFINITY PREDICTED BY RF-SCORE:    0.00 PKD
ROOT
HETATM    1  C   UNL     1     -11.123   6.598  67.056  1.00  0.00    -0.395 C  
HETATM    2  C   UNL     1     -10.039   6.346  68.049  1.00  0.00    -0.168 A  
HETATM    3  C   UNL     1      -9.796   6.977  69.278  1.00  0.00    -0.159 A  
HETATM    4  C   UNL     1      -9.045   5.334  67.910  1.00  0.00    -0.110 A  
HETATM    5  N   UNL     1      -8.661   6.323  69.802  1.00  0.00    -0.135 NA 
HETATM    6  N   UNL     1      -8.284   5.271  69.011  1.00  0.00    -0.085 NA 
ENDROOT
BRANCH   3   7
HETATM    7  C   UNL     1     -10.607   8.049  69.915  1.00  0.00    -0.242 A  
HETATM    8  C   UNL     1     -10.499   9.376  69.452  1.00  0.00    -0.231 A  
HETATM    9  C   UNL     1     -12.240   8.853  71.549  1.00  0.00    -0.388 A  
HETATM   10  C   UNL     1     -11.514   7.805  70.959  1.00  0.00    -0.298 A  
HETATM   11  C   UNL     1     -11.273  10.412  69.990  1.00  0.00    -0.385 A  
HETATM   12 CL   UNL     1     -13.056  11.422  71.742  1.00  0.00    -0.577 Cl 
HETATM   13  C   UNL     1     -12.132  10.147  71.051  1.00  0.00    -0.377 A  
ENDBRANCH   3   7
BRANCH   5  14
HETATM   14  C   UNL     1      -7.915   6.498  71.015  1.00  0.00    -0.111 A  
HETATM   15  C   UNL     1      -6.935   7.521  71.019  1.00  0.00    -0.054 A  
HETATM   16  C   UNL     1      -6.211   6.893  73.224  1.00  0.00    -0.062 A  
HETATM   17  C   UNL     1      -7.206   5.919  73.267  1.00  0.00    -0.086 A  
HETATM   18 CL   UNL     1      -9.500   4.808  72.530  1.00  0.00    -0.157 Cl 
HETATM   19  C   UNL     1      -8.095   5.756  72.190  1.00  0.00    -0.108 A  
HETATM   20  C   UNL     1      -6.098   7.722  72.118  1.00  0.00    -0.040 A  
HETATM   21 CL   UNL     1      -5.154   7.106  74.565  1.00  0.00    -0.049 Cl 
ENDBRANCH   5  14
BRANCH   4  22
HETATM   22  C   UNL     1      -8.820   4.413  66.758  1.00  0.00    -0.114 C  
HETATM   23  O   UNL     1      -8.787   3.192  66.899  1.00  0.00    -0.123 OA 
HETATM   24  N   UNL     1      -8.675   5.088  65.555  1.00  0.00    -0.138 N  
HETATM   25  H   UNL     1      -8.689   6.106  65.595  1.00  0.00     0.000 HD 
BRANCH  24  26
HETATM   26  N   UNL     1      -8.511   4.506  64.285  1.00  0.00    -0.114 NA 
HETATM   27  C   UNL     1      -7.153   4.078  63.963  1.00  0.00    -0.050 C  
HETATM   28  C   UNL     1      -6.892   2.607  64.263  1.00  0.00    -0.040 C  
HETATM   29  C   UNL     1      -7.886   1.735  63.507  1.00  0.00    -0.060 C  
HETATM   30  C   UNL     1      -9.315   2.119  63.876  1.00  0.00    -0.114 C  
HETATM   31  C   UNL     1      -9.575   3.630  63.787  1.00  0.00    -0.150 C  
ENDBRANCH  24  26
ENDBRANCH   4  22
TORSDOF 4
ENDMDL
MODEL      104
REMARK 921   NORMALIZED FREE ENERGY PREDICTED BY IDOCK:   -4.33 KCAL/MOL
REMARK 922        TOTAL FREE ENERGY PREDICTED BY IDOCK:   -6.23 KCAL/MOL
REMARK 923 INTER-LIGAND FREE ENERGY PREDICTED BY IDOCK:   -4.93 KCAL/MOL
REMARK 924 INTRA-LIGAND FREE ENERGY PREDICTED BY IDOCK:   -1.30 KCAL/MOL
REMARK 927      BINDING AFFINITY PREDICTED BY RF-SCORE:    0.00 PKD
ROOT
HETATM    1  C   UNL     1      -5.727   7.228  68.307  1.00  0.00    -0.023 C  
HETATM    2  C   UNL     1      -7.107   7.743  68.540  1.00  0.00    -0.073 A  
HETATM    3  C   UNL     1      -7.964   7.526  69.629  1.00  0.00    -0.125 A  
HETATM    4  C   UNL     1      -7.792   8.625  67.655  1.00  0.00    -0.103 A  
HETATM    5  N   UNL     1      -9.124   8.274  69.331  1.00  0.00    -0.153 NA 
HETATM    6  N   UNL     1      -8.961   9.008  68.186  1.00  0.00    -0.133 NA 
ENDROOT
BRANCH   3   7
HETATM    7  C   UNL     1      -7.677   6.740  70.858  1.00  0.00    -0.093 A  
HETATM    8  C   UNL     1      -7.621   5.333  70.791  1.00  0.00    -0.083 A  
HETATM    9  C   UNL     1      -7.187   6.550  73.246  1.00  0.00    -0.081 A  
HETATM   10  C   UNL     1      -7.428   7.333  72.106  1.00  0.00    -0.080 A  
HETATM   11  C   UNL     1      -7.311   4.552  71.911  1.00  0.00    -0.073 A  
HETATM   12 CL   UNL     1      -6.768   4.208  74.529  1.00  0.00    -0.057 Cl 
HETATM   13  C   UNL     1      -7.110   5.165  73.142  1.00  0.00    -0.085 A  
ENDBRANCH   3   7
BRANCH   5  14
HETATM   14  C   UNL     1     -10.360   8.467  70.032  1.00  0.00    -0.210 A  
HETATM   15  C   UNL     1     -10.709   9.802  70.353  1.00  0.00    -0.368 A  
HETATM   16  C   UNL     1     -12.648   9.060  71.566  1.00  0.00    -0.338 A  
HETATM   17  C   UNL     1     -12.358   7.744  71.213  1.00  0.00    -0.314 A  
HETATM   18 CL   UNL     1     -11.235   5.860  69.721  1.00  0.00    -0.433 Cl 
HETATM   19  C   UNL     1     -11.249   7.449  70.400  1.00  0.00    -0.262 A  
HETATM   20  C   UNL     1     -11.848  10.096  71.105  1.00  0.00    -0.472 A  
HETATM   21 CL   UNL     1     -14.029   9.410  72.529  1.00  0.00    -0.406 Cl 
ENDBRANCH   5  14
BRANCH   4  22
HETATM   22  C   UNL     1      -7.346   9.125  66.322  1.00  0.00    -0.092 C  
HETATM   23  O   UNL     1      -6.886  10.256  66.173  1.00  0.00    -0.100 OA 
HETATM   24  N   UNL     1      -7.497   8.180  65.318  1.00  0.00    -0.076 N  
HETATM   25  H   UNL     1      -7.928   7.295  65.582  1.00  0.00     0.000 HD 
BRANCH  24  26
HETATM   26  N   UNL     1      -7.116   8.322  63.971  1.00  0.00    -0.081 NA 
HETATM   27  C   UNL     1      -8.114   8.934  63.099  1.00  0.00    -0.173 C  
HETATM   28  C   UNL     1      -7.929  10.436  62.925  1.00  0.00    -0.150 C  
HETATM   29  C   UNL     1      -6.538  10.733  62.382  1.00  0.00    -0.099 C  
HETATM   30  C   UNL     1      -5.474  10.160  63.311  1.00  0.00    -0.122 C  
HETATM   31  C   UNL     1      -5.728   8.692  63.685  1.00  0.00    -0.071 C  
ENDBRANCH  24  26
ENDBRANCH   4  22
TORSDOF 4
ENDMDL
MODEL      105
REMARK 921   NORMALIZED FREE ENERGY PREDICTED BY IDOCK:   -4.32 KCAL/MOL
REMARK 922        TOTAL FREE ENERGY PREDICTED BY IDOCK:   -6.22 KCAL/MOL
REMARK 923 INTER-LIGAND FREE ENERGY PREDICTED BY IDOCK:   -5.53 KCAL/MOL
REMARK 924 INTRA-LIGAND FREE ENERGY PREDICTED BY IDOCK:   -0.69 KCAL/MOL
REMARK 927      BINDING AFFINITY PREDICTED BY RF-SCORE:    0.00 PKD
ROOT
HETATM    1  C   UNL     1     -10.278  15.676  65.871  1.00  0.00    -0.372 C  
HETATM    2  C   UNL     1      -9.660  14.849  66.947  1.00  0.00    -0.256 A  
HETATM    3  C   UNL     1      -9.311  13.491  66.934  1.00  0.00    -0.253 A  
HETATM    4  C   UNL     1      -9.265  15.357  68.219  1.00  0.00    -0.188 A  
HETATM    5  N   UNL     1      -8.743  13.251  68.204  1.00  0.00    -0.175 NA 
HETATM    6  N   UNL     1      -8.634  14.409  68.926  1.00  0.00    -0.113 NA 
ENDROOT
BRANCH   3   7
HETATM    7  C   UNL     1      -9.445  12.538  65.800  1.00  0.00    -0.066 A  
HETATM    8  C   UNL     1      -8.570  11.437  65.704  1.00  0.00     0.044 A  
HETATM    9  C   UNL     1     -10.508  11.750  63.743  1.00  0.00    -0.466 A  
HETATM   10  C   UNL     1     -10.434  12.659  64.810  1.00  0.00    -0.343 A  
HETATM   11  C   UNL     1      -8.685  10.489  64.680  1.00  0.00    -0.193 A  
HETATM   12 CL   UNL     1      -9.768   9.519  62.410  1.00  0.00     0.358 Cl 
HETATM   13  C   UNL     1      -9.647  10.659  63.691  1.00  0.00    -0.314 A  
ENDBRANCH   3   7
BRANCH   5  14
HETATM   14  C   UNL     1      -8.197  12.074  68.815  1.00  0.00     0.027 A  
HETATM   15  C   UNL     1      -6.895  12.185  69.362  1.00  0.00    -0.010 A  
HETATM   16  C   UNL     1      -6.862   9.841  69.897  1.00  0.00    -0.085 A  
HETATM   17  C   UNL     1      -8.165   9.719  69.419  1.00  0.00    -0.135 A  
HETATM   18 CL   UNL     1     -10.562  10.637  68.747  1.00  0.00    -0.210 Cl 
HETATM   19  C   UNL     1      -8.855  10.843  68.930  1.00  0.00    -0.138 A  
HETATM   20  C   UNL     1      -6.238  11.080  69.907  1.00  0.00    -0.127 A  
HETATM   21 CL   UNL     1      -6.043   8.466  70.526  1.00  0.00    -0.031 Cl 
ENDBRANCH   5  14
BRANCH   4  22
HETATM   22  C   UNL     1      -9.461  16.731  68.767  1.00  0.00    -0.259 C  
HETATM   23  O   UNL     1     -10.328  16.980  69.602  1.00  0.00    -0.211 OA 
HETATM   24  N   UNL     1      -8.563  17.648  68.242  1.00  0.00    -0.261 N  
HETATM   25  H   UNL     1      -7.921  17.305  67.528  1.00  0.00     0.000 HD 
BRANCH  24  26
HETATM   26  N   UNL     1      -8.448  19.004  68.598  1.00  0.00    -0.362 NA 
HETATM   27  C   UNL     1      -7.365  19.319  69.523  1.00  0.00    -0.084 C  
HETATM   28  C   UNL     1      -6.087  19.775  68.829  1.00  0.00    -0.287 C  
HETATM   29  C   UNL     1      -6.371  20.990  67.955  1.00  0.00    -0.361 C  
HETATM   30  C   UNL     1      -7.456  20.666  66.935  1.00  0.00    -0.313 C  
HETATM   31  C   UNL     1      -8.695  20.009  67.561  1.00  0.00    -0.344 C  
ENDBRANCH  24  26
ENDBRANCH   4  22
TORSDOF 4
ENDMDL
MODEL      106
REMARK 921   NORMALIZED FREE ENERGY PREDICTED BY IDOCK:   -4.29 KCAL/MOL
REMARK 922        TOTAL FREE ENERGY PREDICTED BY IDOCK:   -6.18 KCAL/MOL
REMARK 923 INTER-LIGAND FREE ENERGY PREDICTED BY IDOCK:   -5.34 KCAL/MOL
REMARK 924 INTRA-LIGAND FREE ENERGY PREDICTED BY IDOCK:   -0.84 KCAL/MOL
REMARK 927      BINDING AFFINITY PREDICTED BY RF-SCORE:    0.00 PKD
ROOT
HETATM    1  C   UNL     1      -7.166  10.602  67.331  1.00  0.00    -0.092 C  
HETATM    2  C   UNL     1      -8.461  10.328  68.017  1.00  0.00    -0.118 A  
HETATM    3  C   UNL     1      -8.815   9.258  68.851  1.00  0.00    -0.135 A  
HETATM    4  C   UNL     1      -9.595  11.188  67.958  1.00  0.00    -0.176 A  
HETATM    5  N   UNL     1     -10.148   9.523  69.234  1.00  0.00    -0.188 NA 
HETATM    6  N   UNL     1     -10.566  10.740  68.766  1.00  0.00    -0.187 NA 
ENDROOT
BRANCH   3   7
HETATM    7  C   UNL     1      -7.947   8.133  69.290  1.00  0.00    -0.115 A  
HETATM    8  C   UNL     1      -7.333   8.177  70.558  1.00  0.00    -0.056 A  
HETATM    9  C   UNL     1      -6.871   5.963  68.951  1.00  0.00    -0.066 A  
HETATM   10  C   UNL     1      -7.719   6.990  68.507  1.00  0.00    -0.120 A  
HETATM   11  C   UNL     1      -6.544   7.123  71.034  1.00  0.00    -0.044 A  
HETATM   12 CL   UNL     1      -5.302   4.744  70.783  1.00  0.00    -0.003 Cl 
HETATM   13  C   UNL     1      -6.302   6.024  70.219  1.00  0.00    -0.032 A  
ENDBRANCH   3   7
BRANCH   5  14
HETATM   14  C   UNL     1     -11.076   8.817  70.068  1.00  0.00    -0.162 A  
HETATM   15  C   UNL     1     -10.945   7.407  70.116  1.00  0.00    -0.272 A  
HETATM   16  C   UNL     1     -12.906   7.218  71.495  1.00  0.00    -0.388 A  
HETATM   17  C   UNL     1     -13.021   8.606  71.511  1.00  0.00    -0.344 A  
HETATM   18 CL   UNL     1     -12.108  11.085  71.273  1.00  0.00    -0.353 Cl 
HETATM   19  C   UNL     1     -12.078   9.410  70.847  1.00  0.00    -0.255 A  
HETATM   20  C   UNL     1     -11.846   6.616  70.831  1.00  0.00    -0.434 A  
HETATM   21 CL   UNL     1     -14.046   6.247  72.342  1.00  0.00     0.222 Cl 
ENDBRANCH   5  14
BRANCH   4  22
HETATM   22  C   UNL     1      -9.766  12.439  67.162  1.00  0.00    -0.207 C  
HETATM   23  O   UNL     1     -10.373  12.452  66.093  1.00  0.00    -0.239 OA 
HETATM   24  N   UNL     1      -9.186  13.543  67.770  1.00  0.00    -0.203 N  
HETATM   25  H   UNL     1      -8.682  13.375  68.641  1.00  0.00     0.000 HD 
BRANCH  24  26
HETATM   26  N   UNL     1      -9.224  14.870  67.307  1.00  0.00    -0.197 NA 
HETATM   27  C   UNL     1     -10.436  15.614  67.638  1.00  0.00    -0.283 C  
HETATM   28  C   UNL     1     -10.307  16.451  68.905  1.00  0.00    -0.270 C  
HETATM   29  C   UNL     1      -9.141  17.422  68.775  1.00  0.00    -0.227 C  
HETATM   30  C   UNL     1      -7.850  16.663  68.493  1.00  0.00    -0.218 C  
HETATM   31  C   UNL     1      -7.984  15.649  67.348  1.00  0.00    -0.178 C  
ENDBRANCH  24  26
ENDBRANCH   4  22
TORSDOF 4
ENDMDL
MODEL      107
REMARK 921   NORMALIZED FREE ENERGY PREDICTED BY IDOCK:   -4.26 KCAL/MOL
REMARK 922        TOTAL FREE ENERGY PREDICTED BY IDOCK:   -6.14 KCAL/MOL
REMARK 923 INTER-LIGAND FREE ENERGY PREDICTED BY IDOCK:   -4.85 KCAL/MOL
REMARK 924 INTRA-LIGAND FREE ENERGY PREDICTED BY IDOCK:   -1.29 KCAL/MOL
REMARK 927      BINDING AFFINITY PREDICTED BY RF-SCORE:    0.00 PKD
ROOT
HETATM    1  C   UNL     1     -11.003   6.273  66.957  1.00  0.00    -0.442 C  
HETATM    2  C   UNL     1      -9.794   6.432  67.815  1.00  0.00    -0.136 A  
HETATM    3  C   UNL     1      -9.682   6.992  69.096  1.00  0.00    -0.156 A  
HETATM    4  C   UNL     1      -8.494   5.973  67.458  1.00  0.00    -0.107 A  
HETATM    5  N   UNL     1      -8.318   6.855  69.432  1.00  0.00    -0.131 NA 
HETATM    6  N   UNL     1      -7.639   6.149  68.475  1.00  0.00    -0.090 NA 
ENDROOT
BRANCH   3   7
HETATM    7  C   UNL     1     -10.778   7.540  69.938  1.00  0.00    -0.254 A  
HETATM    8  C   UNL     1     -11.686   6.662  70.564  1.00  0.00    -0.453 A  
HETATM    9  C   UNL     1     -12.014   9.389  70.956  1.00  0.00    -0.389 A  
HETATM   10  C   UNL     1     -10.949   8.914  70.173  1.00  0.00    -0.245 A  
HETATM   11  C   UNL     1     -12.707   7.127  71.402  1.00  0.00    -0.433 A  
HETATM   12 CL   UNL     1     -14.153   9.074  72.578  1.00  0.00    -0.508 Cl 
HETATM   13  C   UNL     1     -12.877   8.495  71.581  1.00  0.00    -0.338 A  
ENDBRANCH   3   7
BRANCH   5  14
HETATM   14  C   UNL     1      -7.563   7.228  70.593  1.00  0.00    -0.091 A  
HETATM   15  C   UNL     1      -7.454   6.260  71.621  1.00  0.00    -0.094 A  
HETATM   16  C   UNL     1      -6.285   7.814  73.035  1.00  0.00    -0.063 A  
HETATM   17  C   UNL     1      -6.327   8.763  72.017  1.00  0.00    -0.069 A  
HETATM   18 CL   UNL     1      -6.549   9.558  69.496  1.00  0.00    -0.043 Cl 
HETATM   19  C   UNL     1      -6.913   8.456  70.776  1.00  0.00    -0.045 A  
HETATM   20  C   UNL     1      -6.813   6.547  72.827  1.00  0.00    -0.069 A  
HETATM   21 CL   UNL     1      -5.531   8.190  74.535  1.00  0.00    -0.077 Cl 
ENDBRANCH   5  14
BRANCH   4  22
HETATM   22  C   UNL     1      -8.054   5.351  66.175  1.00  0.00    -0.106 C  
HETATM   23  O   UNL     1      -7.960   6.001  65.136  1.00  0.00    -0.109 OA 
HETATM   24  N   UNL     1      -7.761   4.001  66.308  1.00  0.00    -0.089 N  
HETATM   25  H   UNL     1      -7.921   3.585  67.225  1.00  0.00     0.000 HD 
BRANCH  24  26
HETATM   26  N   UNL     1      -7.266   3.150  65.304  1.00  0.00    -0.065 NA 
HETATM   27  C   UNL     1      -8.273   2.587  64.408  1.00  0.00    -0.082 C  
HETATM   28  C   UNL     1      -8.458   3.387  63.124  1.00  0.00    -0.089 C  
HETATM   29  C   UNL     1      -7.133   3.500  62.382  1.00  0.00    -0.036 C  
HETATM   30  C   UNL     1      -6.080   4.145  63.276  1.00  0.00    -0.018 C  
HETATM   31  C   UNL     1      -5.994   3.503  64.668  1.00  0.00    -0.022 C  
ENDBRANCH  24  26
ENDBRANCH   4  22
TORSDOF 4
ENDMDL
MODEL      108
REMARK 921   NORMALIZED FREE ENERGY PREDICTED BY IDOCK:   -4.24 KCAL/MOL
REMARK 922        TOTAL FREE ENERGY PREDICTED BY IDOCK:   -6.13 KCAL/MOL
REMARK 923 INTER-LIGAND FREE ENERGY PREDICTED BY IDOCK:   -5.01 KCAL/MOL
REMARK 924 INTRA-LIGAND FREE ENERGY PREDICTED BY IDOCK:   -1.11 KCAL/MOL
REMARK 927      BINDING AFFINITY PREDICTED BY RF-SCORE:    0.00 PKD
ROOT
HETATM    1  C   UNL     1     -10.814   9.600  67.342  1.00  0.00    -0.242 C  
HETATM    2  C   UNL     1      -9.691  10.439  67.852  1.00  0.00    -0.168 A  
HETATM    3  C   UNL     1      -9.374  11.773  67.558  1.00  0.00    -0.174 A  
HETATM    4  C   UNL     1      -8.733   9.996  68.809  1.00  0.00    -0.136 A  
HETATM    5  N   UNL     1      -8.233  12.054  68.340  1.00  0.00    -0.159 NA 
HETATM    6  N   UNL     1      -7.922  11.003  69.161  1.00  0.00    -0.117 NA 
ENDROOT
BRANCH   3   7
HETATM    7  C   UNL     1     -10.125  12.703  66.672  1.00  0.00    -0.248 A  
HETATM    8  C   UNL     1     -10.106  12.507  65.276  1.00  0.00    -0.275 A  
HETATM    9  C   UNL     1     -11.563  14.642  66.285  1.00  0.00    -0.344 A  
HETATM   10  C   UNL     1     -10.891  13.774  67.160  1.00  0.00    -0.288 A  
HETATM   11  C   UNL     1     -10.832  13.329  64.406  1.00  0.00    -0.422 A  
HETATM   12 CL   UNL     1     -12.409  15.442  63.847  1.00  0.00    -0.028 Cl 
HETATM   13  C   UNL     1     -11.547  14.407  64.915  1.00  0.00    -0.395 A  
ENDBRANCH   3   7
BRANCH   5  14
HETATM   14  C   UNL     1      -7.426  13.230  68.490  1.00  0.00    -0.115 A  
HETATM   15  C   UNL     1      -7.952  14.265  69.302  1.00  0.00     0.125 A  
HETATM   16  C   UNL     1      -6.096  15.698  68.771  1.00  0.00    -0.100 A  
HETATM   17  C   UNL     1      -5.530  14.675  68.015  1.00  0.00    -0.127 A  
HETATM   18 CL   UNL     1      -5.177  12.146  67.295  1.00  0.00    -0.110 Cl 
HETATM   19  C   UNL     1      -6.162  13.423  67.918  1.00  0.00    -0.147 A  
HETATM   20  C   UNL     1      -7.288  15.484  69.449  1.00  0.00    -0.215 A  
HETATM   21 CL   UNL     1      -5.293  17.213  68.912  1.00  0.00    -0.144 Cl 
ENDBRANCH   5  14
BRANCH   4  22
HETATM   22  C   UNL     1      -8.587   8.638  69.410  1.00  0.00    -0.127 C  
HETATM   23  O   UNL     1      -8.820   8.424  70.598  1.00  0.00    -0.135 OA 
HETATM   24  N   UNL     1      -8.186   7.684  68.485  1.00  0.00    -0.124 N  
HETATM   25  H   UNL     1      -7.994   8.014  67.540  1.00  0.00     0.000 HD 
BRANCH  24  26
HETATM   26  N   UNL     1      -8.018   6.308  68.722  1.00  0.00    -0.101 NA 
HETATM   27  C   UNL     1      -9.151   5.639  69.352  1.00  0.00    -0.117 C  
HETATM   28  C   UNL     1     -10.095   4.976  68.356  1.00  0.00    -0.176 C  
HETATM   29  C   UNL     1      -9.333   3.974  67.500  1.00  0.00    -0.219 C  
HETATM   30  C   UNL     1      -8.181   4.663  66.778  1.00  0.00    -0.106 C  
HETATM   31  C   UNL     1      -7.310   5.518  67.711  1.00  0.00    -0.076 C  
ENDBRANCH  24  26
ENDBRANCH   4  22
TORSDOF 4
ENDMDL
MODEL      109
REMARK 921   NORMALIZED FREE ENERGY PREDICTED BY IDOCK:   -4.21 KCAL/MOL
REMARK 922        TOTAL FREE ENERGY PREDICTED BY IDOCK:   -6.08 KCAL/MOL
REMARK 923 INTER-LIGAND FREE ENERGY PREDICTED BY IDOCK:   -5.10 KCAL/MOL
REMARK 924 INTRA-LIGAND FREE ENERGY PREDICTED BY IDOCK:   -0.98 KCAL/MOL
REMARK 927      BINDING AFFINITY PREDICTED BY RF-SCORE:    0.00 PKD
ROOT
HETATM    1  C   UNL     1     -11.207   9.529  71.198  1.00  0.00    -0.446 C  
HETATM    2  C   UNL     1     -10.371   8.667  70.315  1.00  0.00    -0.217 A  
HETATM    3  C   UNL     1      -9.820   8.955  69.058  1.00  0.00    -0.180 A  
HETATM    4  C   UNL     1      -9.943   7.351  70.653  1.00  0.00    -0.186 A  
HETATM    5  N   UNL     1      -9.106   7.790  68.701  1.00  0.00    -0.136 NA 
HETATM    6  N   UNL     1      -9.110   6.874  69.719  1.00  0.00    -0.144 NA 
ENDROOT
BRANCH   3   7
HETATM    7  C   UNL     1      -9.910  10.235  68.306  1.00  0.00    -0.161 A  
HETATM    8  C   UNL     1      -8.736  10.953  68.002  1.00  0.00    -0.132 A  
HETATM    9  C   UNL     1     -11.166  11.995  67.164  1.00  0.00    -0.374 A  
HETATM   10  C   UNL     1     -11.125  10.770  67.849  1.00  0.00    -0.369 A  
HETATM   11  C   UNL     1      -8.766  12.139  67.259  1.00  0.00    -0.182 A  
HETATM   12 CL   UNL     1     -10.033  14.142  65.977  1.00  0.00    -0.326 Cl 
HETATM   13  C   UNL     1      -9.987  12.665  66.856  1.00  0.00    -0.230 A  
ENDBRANCH   3   7
BRANCH   5  14
HETATM   14  C   UNL     1      -8.330   7.444  67.545  1.00  0.00    -0.113 A  
HETATM   15  C   UNL     1      -6.978   7.866  67.535  1.00  0.00    -0.075 A  
HETATM   16  C   UNL     1      -6.679   7.034  65.299  1.00  0.00    -0.051 A  
HETATM   17  C   UNL     1      -7.988   6.557  65.308  1.00  0.00    -0.119 A  
HETATM   18 CL   UNL     1     -10.229   5.741  66.470  1.00  0.00    -0.241 Cl 
HETATM   19  C   UNL     1      -8.797   6.710  66.448  1.00  0.00    -0.144 A  
HETATM   20  C   UNL     1      -6.157   7.654  66.425  1.00  0.00    -0.044 A  
HETATM   21 CL   UNL     1      -5.688   6.808  63.912  1.00  0.00    -0.031 Cl 
ENDBRANCH   5  14
BRANCH   4  22
HETATM   22  C   UNL     1     -10.297   6.546  71.859  1.00  0.00    -0.200 C  
HETATM   23  O   UNL     1     -10.988   7.005  72.767  1.00  0.00    -0.260 OA 
HETATM   24  N   UNL     1      -9.779   5.260  71.815  1.00  0.00    -0.154 N  
HETATM   25  H   UNL     1      -9.191   5.030  71.014  1.00  0.00     0.000 HD 
BRANCH  24  26
HETATM   26  N   UNL     1      -9.982   4.243  72.765  1.00  0.00    -0.147 NA 
HETATM   27  C   UNL     1     -10.244   2.917  72.215  1.00  0.00    -0.110 C  
HETATM   28  C   UNL     1      -8.995   2.050  72.099  1.00  0.00    -0.108 C  
HETATM   29  C   UNL     1      -8.329   1.908  73.462  1.00  0.00    -0.054 C  
HETATM   30  C   UNL     1      -7.987   3.280  74.030  1.00  0.00    -0.070 C  
HETATM   31  C   UNL     1      -9.164   4.264  73.980  1.00  0.00    -0.098 C  
ENDBRANCH  24  26
ENDBRANCH   4  22
TORSDOF 4
ENDMDL
MODEL      110
REMARK 921   NORMALIZED FREE ENERGY PREDICTED BY IDOCK:   -4.13 KCAL/MOL
REMARK 922        TOTAL FREE ENERGY PREDICTED BY IDOCK:   -5.99 KCAL/MOL
REMARK 923 INTER-LIGAND FREE ENERGY PREDICTED BY IDOCK:   -4.65 KCAL/MOL
REMARK 924 INTRA-LIGAND FREE ENERGY PREDICTED BY IDOCK:   -1.34 KCAL/MOL
REMARK 927      BINDING AFFINITY PREDICTED BY RF-SCORE:    0.00 PKD
ROOT
HETATM    1  C   UNL     1      -9.003   8.848  64.996  1.00  0.00    -0.160 C  
HETATM    2  C   UNL     1      -8.970   8.181  66.330  1.00  0.00    -0.215 A  
HETATM    3  C   UNL     1      -9.363   8.678  67.581  1.00  0.00    -0.137 A  
HETATM    4  C   UNL     1      -8.545   6.838  66.543  1.00  0.00    -0.128 A  
HETATM    5  N   UNL     1      -9.137   7.614  68.480  1.00  0.00    -0.132 NA 
HETATM    6  N   UNL     1      -8.738   6.482  67.820  1.00  0.00    -0.116 NA 
ENDROOT
BRANCH   3   7
HETATM    7  C   UNL     1      -9.957  10.010  67.875  1.00  0.00    -0.183 A  
HETATM    8  C   UNL     1      -9.122  11.141  67.979  1.00  0.00    -0.153 A  
HETATM    9  C   UNL     1     -11.852  11.486  68.334  1.00  0.00    -0.353 A  
HETATM   10  C   UNL     1     -11.337  10.215  68.032  1.00  0.00    -0.152 A  
HETATM   11  C   UNL     1      -9.638  12.422  68.210  1.00  0.00    -0.211 A  
HETATM   12 CL   UNL     1     -11.640  14.151  68.727  1.00  0.00    -0.338 Cl 
HETATM   13  C   UNL     1     -11.004  12.587  68.404  1.00  0.00    -0.248 A  
ENDBRANCH   3   7
BRANCH   5  14
HETATM   14  C   UNL     1      -9.330   7.483  69.895  1.00  0.00    -0.150 A  
HETATM   15  C   UNL     1     -10.249   6.495  70.325  1.00  0.00    -0.227 A  
HETATM   16  C   UNL     1      -9.998   7.180  72.616  1.00  0.00    -0.177 A  
HETATM   17  C   UNL     1      -9.046   8.118  72.225  1.00  0.00    -0.263 A  
HETATM   18 CL   UNL     1      -7.221   9.137  70.590  1.00  0.00    -0.092 Cl 
HETATM   19  C   UNL     1      -8.668   8.234  70.875  1.00  0.00    -0.146 A  
HETATM   20  C   UNL     1     -10.573   6.339  71.674  1.00  0.00    -0.271 A  
HETATM   21 CL   UNL     1     -10.423   7.023  74.275  1.00  0.00    -0.130 Cl 
ENDBRANCH   5  14
BRANCH   4  22
HETATM   22  C   UNL     1      -7.977   5.880  65.550  1.00  0.00    -0.117 C  
HETATM   23  O   UNL     1      -6.832   5.997  65.116  1.00  0.00    -0.049 OA 
HETATM   24  N   UNL     1      -8.868   4.874  65.207  1.00  0.00    -0.148 N  
HETATM   25  H   UNL     1      -9.799   4.925  65.620  1.00  0.00     0.000 HD 
BRANCH  24  26
HETATM   26  N   UNL     1      -8.615   3.790  64.347  1.00  0.00    -0.100 NA 
HETATM   27  C   UNL     1      -8.632   4.105  62.922  1.00  0.00    -0.097 C  
HETATM   28  C   UNL     1      -7.251   4.403  62.350  1.00  0.00    -0.039 C  
HETATM   29  C   UNL     1      -6.318   3.224  62.593  1.00  0.00    -0.018 C  
HETATM   30  C   UNL     1      -6.233   2.916  64.084  1.00  0.00    -0.022 C  
HETATM   31  C   UNL     1      -7.608   2.808  64.757  1.00  0.00    -0.076 C  
ENDBRANCH  24  26
ENDBRANCH   4  22
TORSDOF 4
ENDMDL
MODEL      111
REMARK 921   NORMALIZED FREE ENERGY PREDICTED BY IDOCK:   -4.11 KCAL/MOL
REMARK 922        TOTAL FREE ENERGY PREDICTED BY IDOCK:   -5.97 KCAL/MOL
REMARK 923 INTER-LIGAND FREE ENERGY PREDICTED BY IDOCK:   -4.88 KCAL/MOL
REMARK 924 INTRA-LIGAND FREE ENERGY PREDICTED BY IDOCK:   -1.09 KCAL/MOL
REMARK 927      BINDING AFFINITY PREDICTED BY RF-SCORE:    0.00 PKD
ROOT
HETATM    1  C   UNL     1      -6.275  11.285  70.096  1.00  0.00    -0.147 C  
HETATM    2  C   UNL     1      -7.256  10.993  69.012  1.00  0.00    -0.111 A  
HETATM    3  C   UNL     1      -7.955  11.883  68.183  1.00  0.00    -0.151 A  
HETATM    4  C   UNL     1      -7.626   9.680  68.600  1.00  0.00    -0.080 A  
HETATM    5  N   UNL     1      -8.719  11.058  67.330  1.00  0.00    -0.131 NA 
HETATM    6  N   UNL     1      -8.432   9.735  67.530  1.00  0.00    -0.121 NA 
ENDROOT
BRANCH   3   7
HETATM    7  C   UNL     1      -7.850  13.367  68.164  1.00  0.00    -0.145 A  
HETATM    8  C   UNL     1      -8.434  14.123  69.200  1.00  0.00     0.201 A  
HETATM    9  C   UNL     1      -7.113  15.476  67.170  1.00  0.00    -0.171 A  
HETATM   10  C   UNL     1      -7.164  14.073  67.162  1.00  0.00     0.215 A  
HETATM   11  C   UNL     1      -8.325  15.518  69.250  1.00  0.00    -0.257 A  
HETATM   12 CL   UNL     1      -7.572  17.908  68.257  1.00  0.00    -0.256 Cl 
HETATM   13  C   UNL     1      -7.676  16.192  68.222  1.00  0.00    -0.148 A  
ENDBRANCH   3   7
BRANCH   5  14
HETATM   14  C   UNL     1      -9.640  11.349  66.270  1.00  0.00    -0.213 A  
HETATM   15  C   UNL     1     -10.820  12.049  66.624  1.00  0.00    -0.311 A  
HETATM   16  C   UNL     1     -11.668  11.862  64.381  1.00  0.00    -0.275 A  
HETATM   17  C   UNL     1     -10.491  11.225  63.996  1.00  0.00    -0.440 A  
HETATM   18 CL   UNL     1      -7.926  10.590  64.233  1.00  0.00    -0.069 Cl 
HETATM   19  C   UNL     1      -9.453  11.018  64.921  1.00  0.00    -0.233 A  
HETATM   20  C   UNL     1     -11.821  12.311  65.685  1.00  0.00    -0.423 A  
HETATM   21 CL   UNL     1     -12.914  12.142  63.230  1.00  0.00    -0.374 Cl 
ENDBRANCH   5  14
BRANCH   4  22
HETATM   22  C   UNL     1      -7.212   8.375  69.192  1.00  0.00    -0.065 C  
HETATM   23  O   UNL     1      -6.060   7.955  69.098  1.00  0.00    -0.033 OA 
HETATM   24  N   UNL     1      -8.250   7.733  69.850  1.00  0.00    -0.123 N  
HETATM   25  H   UNL     1      -9.164   8.184  69.816  1.00  0.00     0.000 HD 
BRANCH  24  26
HETATM   26  N   UNL     1      -8.168   6.521  70.559  1.00  0.00    -0.117 NA 
HETATM   27  C   UNL     1      -9.388   6.118  71.253  1.00  0.00    -0.159 C  
HETATM   28  C   UNL     1     -10.257   5.160  70.447  1.00  0.00    -0.334 C  
HETATM   29  C   UNL     1      -9.458   3.918  70.072  1.00  0.00    -0.263 C  
HETATM   30  C   UNL     1      -8.210   4.309  69.289  1.00  0.00    -0.077 C  
HETATM   31  C   UNL     1      -7.400   5.426  69.962  1.00  0.00    -0.068 C  
ENDBRANCH  24  26
ENDBRANCH   4  22
TORSDOF 4
ENDMDL
MODEL      112
REMARK 921   NORMALIZED FREE ENERGY PREDICTED BY IDOCK:   -4.07 KCAL/MOL
REMARK 922        TOTAL FREE ENERGY PREDICTED BY IDOCK:   -5.92 KCAL/MOL
REMARK 923 INTER-LIGAND FREE ENERGY PREDICTED BY IDOCK:   -4.41 KCAL/MOL
REMARK 924 INTRA-LIGAND FREE ENERGY PREDICTED BY IDOCK:   -1.51 KCAL/MOL
REMARK 927      BINDING AFFINITY PREDICTED BY RF-SCORE:    0.00 PKD
ROOT
HETATM    1  C   UNL     1      -7.919   9.095  64.877  1.00  0.00    -0.123 C  
HETATM    2  C   UNL     1      -8.074   8.609  66.279  1.00  0.00    -0.103 A  
HETATM    3  C   UNL     1      -8.170   7.294  66.757  1.00  0.00    -0.121 A  
HETATM    4  C   UNL     1      -8.106   9.459  67.421  1.00  0.00    -0.110 A  
HETATM    5  N   UNL     1      -8.274   7.426  68.159  1.00  0.00    -0.124 NA 
HETATM    6  N   UNL     1      -8.133   8.731  68.546  1.00  0.00    -0.115 NA 
ENDROOT
BRANCH   3   7
HETATM    7  C   UNL     1      -8.103   6.039  65.961  1.00  0.00    -0.113 A  
HETATM    8  C   UNL     1      -9.276   5.514  65.381  1.00  0.00    -0.012 A  
HETATM    9  C   UNL     1      -6.892   4.148  64.992  1.00  0.00    -0.050 A  
HETATM   10  C   UNL     1      -6.905   5.344  65.728  1.00  0.00    -0.061 A  
HETATM   11  C   UNL     1      -9.255   4.361  64.588  1.00  0.00    -0.156 A  
HETATM   12 CL   UNL     1      -8.038   2.233  63.468  1.00  0.00    -0.072 Cl 
HETATM   13  C   UNL     1      -8.062   3.671  64.409  1.00  0.00    -0.086 A  
ENDBRANCH   3   7
BRANCH   5  14
HETATM   14  C   UNL     1      -8.404   6.465  69.216  1.00  0.00    -0.122 A  
HETATM   15  C   UNL     1      -9.683   5.884  69.396  1.00  0.00    -0.191 A  
HETATM   16  C   UNL     1      -8.929   4.696  71.346  1.00  0.00    -0.128 A  
HETATM   17  C   UNL     1      -7.647   5.208  71.154  1.00  0.00    -0.095 A  
HETATM   18 CL   UNL     1      -5.689   6.279  69.721  1.00  0.00    -0.013 Cl 
HETATM   19  C   UNL     1      -7.367   6.045  70.060  1.00  0.00    -0.075 A  
HETATM   20  C   UNL     1      -9.940   5.001  70.446  1.00  0.00    -0.317 A  
HETATM   21 CL   UNL     1      -9.248   3.642  72.667  1.00  0.00    -0.130 Cl 
ENDBRANCH   5  14
BRANCH   4  22
HETATM   22  C   UNL     1      -8.093  10.950  67.464  1.00  0.00    -0.116 C  
HETATM   23  O   UNL     1      -7.045  11.589  67.546  1.00  0.00    -0.092 OA 
HETATM   24  N   UNL     1      -9.364  11.499  67.385  1.00  0.00    -0.165 N  
HETATM   25  H   UNL     1     -10.145  10.845  67.357  1.00  0.00     0.000 HD 
BRANCH  24  26
HETATM   26  N   UNL     1      -9.682  12.868  67.339  1.00  0.00    -0.198 NA 
HETATM   27  C   UNL     1      -9.576  13.492  66.023  1.00  0.00    -0.161 C  
HETATM   28  C   UNL     1     -10.896  13.538  65.264  1.00  0.00    -0.316 C  
HETATM   29  C   UNL     1     -11.947  14.273  66.085  1.00  0.00    -0.422 C  
HETATM   30  C   UNL     1     -12.125  13.601  67.442  1.00  0.00    -0.375 C  
HETATM   31  C   UNL     1     -10.795  13.343  68.166  1.00  0.00    -0.255 C  
ENDBRANCH  24  26
ENDBRANCH   4  22
TORSDOF 4
ENDMDL
MODEL      113
REMARK 921   NORMALIZED FREE ENERGY PREDICTED BY IDOCK:   -4.04 KCAL/MOL
REMARK 922        TOTAL FREE ENERGY PREDICTED BY IDOCK:   -5.87 KCAL/MOL
REMARK 923 INTER-LIGAND FREE ENERGY PREDICTED BY IDOCK:   -4.75 KCAL/MOL
REMARK 924 INTRA-LIGAND FREE ENERGY PREDICTED BY IDOCK:   -1.12 KCAL/MOL
REMARK 927      BINDING AFFINITY PREDICTED BY RF-SCORE:    0.00 PKD
ROOT
HETATM    1  C   UNL     1      -8.246   7.274  68.832  1.00  0.00    -0.125 C  
HETATM    2  C   UNL     1      -7.848   8.692  69.068  1.00  0.00    -0.100 A  
HETATM    3  C   UNL     1      -7.784   9.759  68.161  1.00  0.00    -0.082 A  
HETATM    4  C   UNL     1      -7.489   9.221  70.342  1.00  0.00    -0.121 A  
HETATM    5  N   UNL     1      -7.374  10.867  68.934  1.00  0.00    -0.102 NA 
HETATM    6  N   UNL     1      -7.297  10.545  70.262  1.00  0.00    -0.171 NA 
ENDROOT
BRANCH   3   7
HETATM    7  C   UNL     1      -8.144   9.737  66.718  1.00  0.00    -0.120 A  
HETATM    8  C   UNL     1      -9.457  10.058  66.319  1.00  0.00    -0.241 A  
HETATM    9  C   UNL     1      -7.612   9.398  64.355  1.00  0.00    -0.114 A  
HETATM   10  C   UNL     1      -7.222   9.432  65.703  1.00  0.00    -0.091 A  
HETATM   11  C   UNL     1      -9.832  10.094  64.970  1.00  0.00    -0.392 A  
HETATM   12 CL   UNL     1      -9.374   9.751  62.337  1.00  0.00    -0.284 Cl 
HETATM   13  C   UNL     1      -8.909   9.747  63.992  1.00  0.00    -0.231 A  
ENDBRANCH   3   7
BRANCH   5  14
HETATM   14  C   UNL     1      -7.120  12.239  68.603  1.00  0.00    -0.103 A  
HETATM   15  C   UNL     1      -5.773  12.594  68.342  1.00  0.00    -0.060 A  
HETATM   16  C   UNL     1      -6.371  14.912  68.115  1.00  0.00    -0.136 A  
HETATM   17  C   UNL     1      -7.710  14.579  68.309  1.00  0.00    -0.126 A  
HETATM   18 CL   UNL     1      -9.786  12.929  68.328  1.00  0.00    -0.229 Cl 
HETATM   19  C   UNL     1      -8.094  13.240  68.496  1.00  0.00    -0.094 A  
HETATM   20  C   UNL     1      -5.404  13.917  68.091  1.00  0.00    -0.119 A  
HETATM   21 CL   UNL     1      -5.919  16.550  67.850  1.00  0.00    -0.125 Cl 
ENDBRANCH   5  14
BRANCH   4  22
HETATM   22  C   UNL     1      -7.344   8.494  71.637  1.00  0.00    -0.100 C  
HETATM   23  O   UNL     1      -6.438   8.750  72.428  1.00  0.00    -0.150 OA 
HETATM   24  N   UNL     1      -8.334   7.541  71.829  1.00  0.00    -0.105 N  
HETATM   25  H   UNL     1      -9.000   7.412  71.068  1.00  0.00     0.000 HD 
BRANCH  24  26
HETATM   26  N   UNL     1      -8.509   6.736  72.968  1.00  0.00    -0.116 NA 
HETATM   27  C   UNL     1      -9.608   7.125  73.846  1.00  0.00    -0.278 C  
HETATM   28  C   UNL     1     -10.904   6.371  73.568  1.00  0.00    -0.198 C  
HETATM   29  C   UNL     1     -10.672   4.871  73.687  1.00  0.00    -0.352 C  
HETATM   30  C   UNL     1      -9.571   4.428  72.731  1.00  0.00    -0.171 C  
HETATM   31  C   UNL     1      -8.305   5.292  72.827  1.00  0.00    -0.113 C  
ENDBRANCH  24  26
ENDBRANCH   4  22
TORSDOF 4
ENDMDL
MODEL      114
REMARK 921   NORMALIZED FREE ENERGY PREDICTED BY IDOCK:   -4.02 KCAL/MOL
REMARK 922        TOTAL FREE ENERGY PREDICTED BY IDOCK:   -5.86 KCAL/MOL
REMARK 923 INTER-LIGAND FREE ENERGY PREDICTED BY IDOCK:   -4.59 KCAL/MOL
REMARK 924 INTRA-LIGAND FREE ENERGY PREDICTED BY IDOCK:   -1.27 KCAL/MOL
REMARK 927      BINDING AFFINITY PREDICTED BY RF-SCORE:    0.00 PKD
ROOT
HETATM    1  C   UNL     1     -10.463  10.612  65.110  1.00  0.00    -0.271 C  
HETATM    2  C   UNL     1      -9.546   9.930  66.068  1.00  0.00    -0.284 A  
HETATM    3  C   UNL     1      -9.497  10.019  67.467  1.00  0.00    -0.148 A  
HETATM    4  C   UNL     1      -8.542   8.994  65.686  1.00  0.00    -0.166 A  
HETATM    5  N   UNL     1      -8.456   9.145  67.849  1.00  0.00    -0.117 NA 
HETATM    6  N   UNL     1      -7.960   8.463  66.771  1.00  0.00    -0.097 NA 
ENDROOT
BRANCH   3   7
HETATM    7  C   UNL     1     -10.398  10.806  68.351  1.00  0.00    -0.199 A  
HETATM    8  C   UNL     1     -11.142  10.151  69.353  1.00  0.00    -0.288 A  
HETATM    9  C   UNL     1     -11.415  12.901  69.099  1.00  0.00    -0.360 A  
HETATM   10  C   UNL     1     -10.533  12.201  68.260  1.00  0.00    -0.225 A  
HETATM   11  C   UNL     1     -11.969  10.854  70.238  1.00  0.00    -0.448 A  
HETATM   12 CL   UNL     1     -13.159  13.092  71.155  1.00  0.00    -0.252 Cl 
HETATM   13  C   UNL     1     -12.115  12.229  70.096  1.00  0.00    -0.287 A  
ENDBRANCH   3   7
BRANCH   5  14
HETATM   14  C   UNL     1      -7.907   8.791  69.125  1.00  0.00    -0.098 A  
HETATM   15  C   UNL     1      -7.960   7.422  69.484  1.00  0.00    -0.127 A  
HETATM   16  C   UNL     1      -7.056   7.901  71.660  1.00  0.00    -0.067 A  
HETATM   17  C   UNL     1      -6.939   9.244  71.309  1.00  0.00    -0.026 A  
HETATM   18 CL   UNL     1      -6.749  11.261  69.595  1.00  0.00    -0.133 Cl 
HETATM   19  C   UNL     1      -7.309   9.683  70.025  1.00  0.00    -0.130 A  
HETATM   20  C   UNL     1      -7.530   6.980  70.737  1.00  0.00    -0.082 A  
HETATM   21 CL   UNL     1      -6.564   7.372  73.221  1.00  0.00    -0.064 Cl 
ENDBRANCH   5  14
BRANCH   4  22
HETATM   22  C   UNL     1      -8.140   8.581  64.310  1.00  0.00    -0.155 C  
HETATM   23  O   UNL     1      -8.056   9.389  63.387  1.00  0.00    -0.135 OA 
HETATM   24  N   UNL     1      -7.868   7.223  64.218  1.00  0.00    -0.130 N  
HETATM   25  H   UNL     1      -8.015   6.667  65.059  1.00  0.00     0.000 HD 
BRANCH  24  26
HETATM   26  N   UNL     1      -7.409   6.538  63.078  1.00  0.00    -0.059 NA 
HETATM   27  C   UNL     1      -6.026   6.076  63.140  1.00  0.00    -0.022 C  
HETATM   28  C   UNL     1      -5.888   4.633  63.610  1.00  0.00    -0.017 C  
HETATM   29  C   UNL     1      -6.686   3.708  62.700  1.00  0.00    -0.027 C  
HETATM   30  C   UNL     1      -8.150   4.131  62.669  1.00  0.00    -0.075 C  
HETATM   31  C   UNL     1      -8.339   5.631  62.401  1.00  0.00    -0.104 C  
ENDBRANCH  24  26
ENDBRANCH   4  22
TORSDOF 4
ENDMDL
MODEL      115
REMARK 921   NORMALIZED FREE ENERGY PREDICTED BY IDOCK:   -3.95 KCAL/MOL
REMARK 922        TOTAL FREE ENERGY PREDICTED BY IDOCK:   -5.76 KCAL/MOL
REMARK 923 INTER-LIGAND FREE ENERGY PREDICTED BY IDOCK:   -4.96 KCAL/MOL
REMARK 924 INTRA-LIGAND FREE ENERGY PREDICTED BY IDOCK:   -0.80 KCAL/MOL
REMARK 927      BINDING AFFINITY PREDICTED BY RF-SCORE:    0.00 PKD
ROOT
HETATM    1  C   UNL     1      -6.184  11.367  70.198  1.00  0.00    -0.138 C  
HETATM    2  C   UNL     1      -7.290  11.507  69.208  1.00  0.00    -0.009 A  
HETATM    3  C   UNL     1      -7.675  12.628  68.459  1.00  0.00    -0.114 A  
HETATM    4  C   UNL     1      -8.153  10.443  68.817  1.00  0.00    -0.125 A  
HETATM    5  N   UNL     1      -8.759  12.183  67.672  1.00  0.00    -0.163 NA 
HETATM    6  N   UNL     1      -8.967  10.839  67.828  1.00  0.00    -0.136 NA 
ENDROOT
BRANCH   3   7
HETATM    7  C   UNL     1      -7.029  13.968  68.448  1.00  0.00    -0.100 A  
HETATM    8  C   UNL     1      -7.572  15.013  69.223  1.00  0.00    -0.187 A  
HETATM    9  C   UNL     1      -5.307  15.540  67.710  1.00  0.00    -0.118 A  
HETATM   10  C   UNL     1      -5.868  14.253  67.711  1.00  0.00    -0.090 A  
HETATM   11  C   UNL     1      -6.976  16.278  69.280  1.00  0.00    -0.217 A  
HETATM   12 CL   UNL     1      -5.136  18.105  68.543  1.00  0.00    -0.158 Cl 
HETATM   13  C   UNL     1      -5.851  16.542  68.507  1.00  0.00    -0.120 A  
ENDBRANCH   3   7
BRANCH   5  14
HETATM   14  C   UNL     1      -9.590  12.840  66.706  1.00  0.00    -0.244 A  
HETATM   15  C   UNL     1     -10.107  14.108  67.068  1.00  0.00    -0.261 A  
HETATM   16  C   UNL     1     -11.392  14.224  65.039  1.00  0.00    -0.365 A  
HETATM   17  C   UNL     1     -10.851  13.006  64.634  1.00  0.00    -0.373 A  
HETATM   18 CL   UNL     1      -9.036  11.071  64.651  1.00  0.00    -0.177 Cl 
HETATM   19  C   UNL     1      -9.908  12.340  65.437  1.00  0.00    -0.192 A  
HETATM   20  C   UNL     1     -10.993  14.798  66.237  1.00  0.00    -0.330 A  
HETATM   21 CL   UNL     1     -12.516  15.047  64.030  1.00  0.00    -0.191 Cl 
ENDBRANCH   5  14
BRANCH   4  22
HETATM   22  C   UNL     1      -8.204   9.051  69.352  1.00  0.00    -0.117 C  
HETATM   23  O   UNL     1      -7.211   8.327  69.377  1.00  0.00    -0.057 OA 
HETATM   24  N   UNL     1      -9.465   8.701  69.814  1.00  0.00    -0.164 N  
HETATM   25  H   UNL     1     -10.205   9.393  69.696  1.00  0.00     0.000 HD 
BRANCH  24  26
HETATM   26  N   UNL     1      -9.824   7.489  70.428  1.00  0.00    -0.183 NA 
HETATM   27  C   UNL     1      -9.984   6.353  69.526  1.00  0.00    -0.162 C  
HETATM   28  C   UNL     1      -8.732   5.493  69.403  1.00  0.00    -0.107 C  
HETATM   29  C   UNL     1      -8.307   4.988  70.775  1.00  0.00    -0.107 C  
HETATM   30  C   UNL     1      -8.070   6.160  71.721  1.00  0.00    -0.110 C  
HETATM   31  C   UNL     1      -9.225   7.172  71.727  1.00  0.00    -0.139 C  
ENDBRANCH  24  26
ENDBRANCH   4  22
TORSDOF 4
ENDMDL
MODEL      116
REMARK 921   NORMALIZED FREE ENERGY PREDICTED BY IDOCK:   -3.89 KCAL/MOL
REMARK 922        TOTAL FREE ENERGY PREDICTED BY IDOCK:   -5.69 KCAL/MOL
REMARK 923 INTER-LIGAND FREE ENERGY PREDICTED BY IDOCK:   -5.66 KCAL/MOL
REMARK 924 INTRA-LIGAND FREE ENERGY PREDICTED BY IDOCK:   -0.02 KCAL/MOL
REMARK 927      BINDING AFFINITY PREDICTED BY RF-SCORE:    0.00 PKD
ROOT
HETATM    1  C   UNL     1     -10.066  15.327  71.114  1.00  0.00     1.054 C  
HETATM    2  C   UNL     1     -10.170  15.044  69.654  1.00  0.00    -0.171 A  
HETATM    3  C   UNL     1     -10.765  13.956  69.000  1.00  0.00    -0.195 A  
HETATM    4  C   UNL     1      -9.686  15.914  68.634  1.00  0.00    -0.207 A  
HETATM    5  N   UNL     1     -10.592  14.221  67.625  1.00  0.00    -0.252 NA 
HETATM    6  N   UNL     1     -10.029  15.452  67.423  1.00  0.00    -0.228 NA 
ENDROOT
BRANCH   3   7
HETATM    7  C   UNL     1     -11.485  12.814  69.625  1.00  0.00    -0.255 A  
HETATM    8  C   UNL     1     -11.259  11.504  69.157  1.00  0.00    -0.337 A  
HETATM    9  C   UNL     1     -13.055  11.863  71.241  1.00  0.00    -0.228 A  
HETATM   10  C   UNL     1     -12.378  12.966  70.698  1.00  0.00    -0.385 A  
HETATM   11  C   UNL     1     -11.879  10.392  69.742  1.00  0.00    -0.278 A  
HETATM   12 CL   UNL     1     -13.583   9.222  71.471  1.00  0.00    -0.426 Cl 
HETATM   13  C   UNL     1     -12.790  10.579  70.775  1.00  0.00    -0.367 A  
ENDBRANCH   3   7
BRANCH   5  14
HETATM   14  C   UNL     1     -10.968  13.499  66.443  1.00  0.00    -0.293 A  
HETATM   15  C   UNL     1     -12.017  14.050  65.667  1.00  0.00    -0.408 A  
HETATM   16  C   UNL     1     -11.990  12.154  64.188  1.00  0.00    -0.408 A  
HETATM   17  C   UNL     1     -10.918  11.622  64.900  1.00  0.00    -0.345 A  
HETATM   18 CL   UNL     1      -8.824  11.751  66.523  1.00  0.00    -0.189 Cl 
HETATM   19  C   UNL     1     -10.368  12.317  65.992  1.00  0.00    -0.245 A  
HETATM   20  C   UNL     1     -12.517  13.387  64.544  1.00  0.00    -0.359 A  
HETATM   21 CL   UNL     1     -12.628  11.311  62.831  1.00  0.00     0.515 Cl 
ENDBRANCH   5  14
BRANCH   4  22
HETATM   22  C   UNL     1      -8.922  17.186  68.790  1.00  0.00    -0.233 C  
HETATM   23  O   UNL     1      -9.476  18.246  69.078  1.00  0.00    -0.244 OA 
HETATM   24  N   UNL     1      -7.559  17.019  68.594  1.00  0.00    -0.228 N  
HETATM   25  H   UNL     1      -7.246  16.086  68.324  1.00  0.00     0.000 HD 
BRANCH  24  26
HETATM   26  N   UNL     1      -6.567  18.006  68.728  1.00  0.00    -0.224 NA 
HETATM   27  C   UNL     1      -7.061  19.367  68.919  1.00  0.00    -0.358 C  
HETATM   28  C   UNL     1      -7.151  19.781  70.383  1.00  0.00     0.327 C  
HETATM   29  C   UNL     1      -5.788  19.642  71.050  1.00  0.00    -0.228 C  
HETATM   30  C   UNL     1      -5.279  18.211  70.922  1.00  0.00    -0.275 C  
HETATM   31  C   UNL     1      -5.360  17.669  69.487  1.00  0.00    -0.195 C  
ENDBRANCH  24  26
ENDBRANCH   4  22
TORSDOF 4
ENDMDL
MODEL      117
REMARK 921   NORMALIZED FREE ENERGY PREDICTED BY IDOCK:   -3.87 KCAL/MOL
REMARK 922        TOTAL FREE ENERGY PREDICTED BY IDOCK:   -5.67 KCAL/MOL
REMARK 923 INTER-LIGAND FREE ENERGY PREDICTED BY IDOCK:   -6.42 KCAL/MOL
REMARK 924 INTRA-LIGAND FREE ENERGY PREDICTED BY IDOCK:    0.75 KCAL/MOL
REMARK 927      BINDING AFFINITY PREDICTED BY RF-SCORE:    0.00 PKD
ROOT
HETATM    1  C   UNL     1      -8.552   9.199  67.387  1.00  0.00    -0.115 C  
HETATM    2  C   UNL     1      -9.423   9.700  68.490  1.00  0.00    -0.145 A  
HETATM    3  C   UNL     1     -10.255  10.828  68.522  1.00  0.00    -0.178 A  
HETATM    4  C   UNL     1      -9.582   9.043  69.744  1.00  0.00    -0.175 A  
HETATM    5  N   UNL     1     -10.856  10.797  69.799  1.00  0.00    -0.250 NA 
HETATM    6  N   UNL     1     -10.514   9.661  70.482  1.00  0.00    -0.284 NA 
ENDROOT
BRANCH   3   7
HETATM    7  C   UNL     1     -10.502  11.797  67.421  1.00  0.00    -0.238 A  
HETATM    8  C   UNL     1     -10.086  13.136  67.561  1.00  0.00    -0.222 A  
HETATM    9  C   UNL     1     -11.353  12.393  65.207  1.00  0.00    -0.374 A  
HETATM   10  C   UNL     1     -11.116  11.439  66.210  1.00  0.00    -0.281 A  
HETATM   11  C   UNL     1     -10.256  14.074  66.536  1.00  0.00    -0.279 A  
HETATM   12 CL   UNL     1     -11.153  14.858  64.118  1.00  0.00     0.101 Cl 
HETATM   13  C   UNL     1     -10.906  13.701  65.365  1.00  0.00    -0.301 A  
ENDBRANCH   3   7
BRANCH   5  14
HETATM   14  C   UNL     1     -11.796  11.664  70.449  1.00  0.00    -0.293 A  
HETATM   15  C   UNL     1     -11.811  13.017  70.030  1.00  0.00    -0.355 A  
HETATM   16  C   UNL     1     -13.430  13.578  71.717  1.00  0.00    -0.380 A  
HETATM   17  C   UNL     1     -13.477  12.242  72.108  1.00  0.00    -0.431 A  
HETATM   18 CL   UNL     1     -13.150   9.633  71.753  1.00  0.00    -0.473 Cl 
HETATM   19  C   UNL     1     -12.705  11.274  71.441  1.00  0.00    -0.396 A  
HETATM   20  C   UNL     1     -12.628  13.963  70.653  1.00  0.00    -0.405 A  
HETATM   21 CL   UNL     1     -14.407  14.746  72.518  1.00  0.00    -0.359 Cl 
ENDBRANCH   5  14
BRANCH   4  22
HETATM   22  C   UNL     1      -8.879   7.826  70.246  1.00  0.00    -0.144 C  
HETATM   23  O   UNL     1      -9.492   6.856  70.688  1.00  0.00    -0.165 OA 
HETATM   24  N   UNL     1      -7.499   7.922  70.136  1.00  0.00    -0.076 N  
HETATM   25  H   UNL     1      -7.127   8.804  69.783  1.00  0.00     0.000 HD 
BRANCH  24  26
HETATM   26  N   UNL     1      -6.562   6.926  70.464  1.00  0.00    -0.051 NA 
HETATM   27  C   UNL     1      -7.123   5.607  70.742  1.00  0.00    -0.069 C  
HETATM   28  C   UNL     1      -7.131   4.682  69.530  1.00  0.00    -0.051 C  
HETATM   29  C   UNL     1      -5.717   4.523  68.985  1.00  0.00    -0.017 C  
HETATM   30  C   UNL     1      -5.132   5.884  68.625  1.00  0.00     0.000 C  
HETATM   31  C   UNL     1      -5.284   6.921  69.747  1.00  0.00    -0.015 C  
ENDBRANCH  24  26
ENDBRANCH   4  22
TORSDOF 4
ENDMDL
MODEL      118
REMARK 921   NORMALIZED FREE ENERGY PREDICTED BY IDOCK:   -3.81 KCAL/MOL
REMARK 922        TOTAL FREE ENERGY PREDICTED BY IDOCK:   -5.59 KCAL/MOL
REMARK 923 INTER-LIGAND FREE ENERGY PREDICTED BY IDOCK:   -5.70 KCAL/MOL
REMARK 924 INTRA-LIGAND FREE ENERGY PREDICTED BY IDOCK:    0.10 KCAL/MOL
REMARK 927      BINDING AFFINITY PREDICTED BY RF-SCORE:    0.00 PKD
ROOT
HETATM    1  C   UNL     1      -7.534  11.456  66.004  1.00  0.00     0.206 C  
HETATM    2  C   UNL     1      -8.578  11.699  67.041  1.00  0.00    -0.169 A  
HETATM    3  C   UNL     1      -9.079  12.915  67.528  1.00  0.00    -0.191 A  
HETATM    4  C   UNL     1      -9.299  10.667  67.708  1.00  0.00    -0.146 A  
HETATM    5  N   UNL     1     -10.062  12.548  68.473  1.00  0.00    -0.211 NA 
HETATM    6  N   UNL     1     -10.249  11.192  68.494  1.00  0.00    -0.191 NA 
ENDROOT
BRANCH   3   7
HETATM    7  C   UNL     1      -8.705  14.285  67.086  1.00  0.00    -0.243 A  
HETATM    8  C   UNL     1      -9.638  15.072  66.381  1.00  0.00    -0.314 A  
HETATM    9  C   UNL     1      -7.136  16.151  66.901  1.00  0.00    -0.222 A  
HETATM   10  C   UNL     1      -7.455  14.863  67.360  1.00  0.00    -0.228 A  
HETATM   11  C   UNL     1      -9.349  16.383  65.984  1.00  0.00    -0.335 A  
HETATM   12 CL   UNL     1      -7.713  18.508  65.711  1.00  0.00    -0.121 Cl 
HETATM   13  C   UNL     1      -8.088  16.913  66.232  1.00  0.00    -0.316 A  
ENDBRANCH   3   7
BRANCH   5  14
HETATM   14  C   UNL     1     -10.930  13.317  69.317  1.00  0.00    -0.089 A  
HETATM   15  C   UNL     1     -12.139  12.698  69.721  1.00  0.00    -0.301 A  
HETATM   16  C   UNL     1     -12.864  14.710  70.820  1.00  0.00    -0.358 A  
HETATM   17  C   UNL     1     -11.657  15.320  70.487  1.00  0.00    -0.340 A  
HETATM   18 CL   UNL     1      -9.098  15.338  69.788  1.00  0.00    -0.138 Cl 
HETATM   19  C   UNL     1     -10.666  14.611  69.786  1.00  0.00    -0.104 A  
HETATM   20  C   UNL     1     -13.093  13.386  70.474  1.00  0.00     0.148 A  
HETATM   21 CL   UNL     1     -14.052  15.578  71.711  1.00  0.00    -0.587 Cl 
ENDBRANCH   5  14
BRANCH   4  22
HETATM   22  C   UNL     1      -9.115   9.191  67.596  1.00  0.00    -0.122 C  
HETATM   23  O   UNL     1      -8.207   8.603  68.181  1.00  0.00    -0.114 OA 
HETATM   24  N   UNL     1     -10.073   8.592  66.791  1.00  0.00    -0.277 N  
HETATM   25  H   UNL     1     -10.745   9.211  66.340  1.00  0.00     0.000 HD 
BRANCH  24  26
HETATM   26  N   UNL     1     -10.209   7.216  66.536  1.00  0.00    -0.127 NA 
HETATM   27  C   UNL     1      -9.080   6.592  65.851  1.00  0.00    -0.039 C  
HETATM   28  C   UNL     1      -8.080   5.941  66.800  1.00  0.00    -0.102 C  
HETATM   29  C   UNL     1      -8.780   4.901  67.666  1.00  0.00    -0.103 C  
HETATM   30  C   UNL     1      -9.924   5.543  68.442  1.00  0.00    -0.210 C  
HETATM   31  C   UNL     1     -10.854   6.387  67.558  1.00  0.00    -0.354 C  
ENDBRANCH  24  26
ENDBRANCH   4  22
TORSDOF 4
ENDMDL
MODEL      119
REMARK 921   NORMALIZED FREE ENERGY PREDICTED BY IDOCK:   -3.78 KCAL/MOL
REMARK 922        TOTAL FREE ENERGY PREDICTED BY IDOCK:   -5.56 KCAL/MOL
REMARK 923 INTER-LIGAND FREE ENERGY PREDICTED BY IDOCK:   -4.22 KCAL/MOL
REMARK 924 INTRA-LIGAND FREE ENERGY PREDICTED BY IDOCK:   -1.33 KCAL/MOL
REMARK 927      BINDING AFFINITY PREDICTED BY RF-SCORE:    0.00 PKD
ROOT
HETATM    1  C   UNL     1      -9.580  15.921  65.232  1.00  0.00     0.176 C  
HETATM    2  C   UNL     1      -9.108  16.340  66.584  1.00  0.00    -0.278 A  
HETATM    3  C   UNL     1      -8.158  17.310  66.931  1.00  0.00    -0.228 A  
HETATM    4  C   UNL     1      -9.615  15.812  67.807  1.00  0.00    -0.214 A  
HETATM    5  N   UNL     1      -8.131  17.301  68.343  1.00  0.00    -0.249 NA 
HETATM    6  N   UNL     1      -9.087  16.464  68.852  1.00  0.00    -0.249 NA 
ENDROOT
BRANCH   3   7
HETATM    7  C   UNL     1      -7.402  18.201  66.010  1.00  0.00    -0.290 A  
HETATM    8  C   UNL     1      -7.752  19.563  65.910  1.00  0.00    -0.288 A  
HETATM    9  C   UNL     1      -5.648  18.629  64.361  1.00  0.00    -0.183 A  
HETATM   10  C   UNL     1      -6.317  17.759  65.236  1.00  0.00     0.259 A  
HETATM   11  C   UNL     1      -7.043  20.450  65.091  1.00  0.00    -0.139 A  
HETATM   12 CL   UNL     1      -5.151  21.051  63.268  1.00  0.00    -0.226 Cl 
HETATM   13  C   UNL     1      -6.000  19.974  64.305  1.00  0.00    -0.268 A  
ENDBRANCH   3   7
BRANCH   5  14
HETATM   14  C   UNL     1      -7.374  18.051  69.303  1.00  0.00    -0.022 A  
HETATM   15  C   UNL     1      -7.977  19.228  69.811  1.00  0.00     0.468 A  
HETATM   16  C   UNL     1      -5.993  19.770  71.056  1.00  0.00    -0.193 A  
HETATM   17  C   UNL     1      -5.401  18.588  70.618  1.00  0.00    -0.257 A  
HETATM   18 CL   UNL     1      -5.423  16.118  69.649  1.00  0.00    -0.126 Cl 
HETATM   19  C   UNL     1      -6.108  17.699  69.788  1.00  0.00    -0.216 A  
HETATM   20  C   UNL     1      -7.295  20.075  70.687  1.00  0.00     0.757 A  
HETATM   21 CL   UNL     1      -5.130  20.830  72.101  1.00  0.00    -0.172 Cl 
ENDBRANCH   5  14
BRANCH   4  22
HETATM   22  C   UNL     1     -10.606  14.714  67.998  1.00  0.00    -0.240 C  
HETATM   23  O   UNL     1     -11.657  14.887  68.614  1.00  0.00    -0.290 OA 
HETATM   24  N   UNL     1     -10.211  13.526  67.402  1.00  0.00    -0.236 N  
HETATM   25  H   UNL     1      -9.294  13.520  66.955  1.00  0.00     0.000 HD 
BRANCH  24  26
HETATM   26  N   UNL     1     -10.947  12.329  67.352  1.00  0.00    -0.242 NA 
HETATM   27  C   UNL     1     -11.378  11.914  66.020  1.00  0.00    -0.316 C  
HETATM   28  C   UNL     1     -10.428  10.925  65.355  1.00  0.00    -0.291 C  
HETATM   29  C   UNL     1     -10.256   9.693  66.234  1.00  0.00    -0.286 C  
HETATM   30  C   UNL     1      -9.744  10.094  67.613  1.00  0.00    -0.187 C  
HETATM   31  C   UNL     1     -10.549  11.239  68.246  1.00  0.00    -0.197 C  
ENDBRANCH  24  26
ENDBRANCH   4  22
TORSDOF 4
ENDMDL
MODEL      120
REMARK 921   NORMALIZED FREE ENERGY PREDICTED BY IDOCK:   -3.75 KCAL/MOL
REMARK 922        TOTAL FREE ENERGY PREDICTED BY IDOCK:   -5.52 KCAL/MOL
REMARK 923 INTER-LIGAND FREE ENERGY PREDICTED BY IDOCK:   -4.46 KCAL/MOL
REMARK 924 INTRA-LIGAND FREE ENERGY PREDICTED BY IDOCK:   -1.06 KCAL/MOL
REMARK 927      BINDING AFFINITY PREDICTED BY RF-SCORE:    0.00 PKD
ROOT
HETATM    1  C   UNL     1     -10.421  10.720  64.012  1.00  0.00    -0.287 C  
HETATM    2  C   UNL     1      -9.387  10.369  65.028  1.00  0.00    -0.279 A  
HETATM    3  C   UNL     1      -9.101  10.986  66.254  1.00  0.00    -0.182 A  
HETATM    4  C   UNL     1      -8.504   9.256  64.919  1.00  0.00    -0.168 A  
HETATM    5  N   UNL     1      -8.050  10.222  66.807  1.00  0.00    -0.119 NA 
HETATM    6  N   UNL     1      -7.773   9.127  66.035  1.00  0.00    -0.095 NA 
ENDROOT
BRANCH   3   7
HETATM    7  C   UNL     1      -9.805  12.146  66.864  1.00  0.00    -0.213 A  
HETATM    8  C   UNL     1     -10.743  11.932  67.894  1.00  0.00    -0.239 A  
HETATM    9  C   UNL     1     -10.270  14.538  67.068  1.00  0.00    -0.262 A  
HETATM   10  C   UNL     1      -9.563  13.475  66.482  1.00  0.00    -0.284 A  
HETATM   11  C   UNL     1     -11.398  12.994  68.530  1.00  0.00    -0.323 A  
HETATM   12 CL   UNL     1     -12.000  15.601  68.851  1.00  0.00    -0.358 Cl 
HETATM   13  C   UNL     1     -11.170  14.296  68.101  1.00  0.00    -0.275 A  
ENDBRANCH   3   7
BRANCH   5  14
HETATM   14  C   UNL     1      -7.312  10.333  68.031  1.00  0.00    -0.086 A  
HETATM   15  C   UNL     1      -7.344   9.214  68.899  1.00  0.00    -0.074 A  
HETATM   16  C   UNL     1      -6.086  10.403  70.568  1.00  0.00    -0.116 A  
HETATM   17  C   UNL     1      -5.989  11.495  69.708  1.00  0.00    -0.116 A  
HETATM   18 CL   UNL     1      -6.024  12.683  67.336  1.00  0.00    -0.151 Cl 
HETATM   19  C   UNL     1      -6.551  11.443  68.420  1.00  0.00    -0.063 A  
HETATM   20  C   UNL     1      -6.728   9.246  70.152  1.00  0.00    -0.059 A  
HETATM   21 CL   UNL     1      -5.361  10.466  72.127  1.00  0.00     0.093 Cl 
ENDBRANCH   5  14
BRANCH   4  22
HETATM   22  C   UNL     1      -8.357   8.301  63.781  1.00  0.00    -0.021 C  
HETATM   23  O   UNL     1      -8.681   8.602  62.634  1.00  0.00    -0.167 OA 
HETATM   24  N   UNL     1      -7.812   7.086  64.170  1.00  0.00    -0.127 N  
HETATM   25  H   UNL     1      -7.625   6.964  65.165  1.00  0.00     0.000 HD 
BRANCH  24  26
HETATM   26  N   UNL     1      -7.494   6.005  63.329  1.00  0.00    -0.068 NA 
HETATM   27  C   UNL     1      -6.665   4.966  63.932  1.00  0.00    -0.042 C  
HETATM   28  C   UNL     1      -7.468   3.804  64.505  1.00  0.00    -0.072 C  
HETATM   29  C   UNL     1      -8.340   3.186  63.420  1.00  0.00    -0.086 C  
HETATM   30  C   UNL     1      -9.263   4.239  62.818  1.00  0.00    -0.127 C  
HETATM   31  C   UNL     1      -8.527   5.523  62.408  1.00  0.00    -0.100 C  
ENDBRANCH  24  26
ENDBRANCH   4  22
TORSDOF 4
ENDMDL
MODEL      121
REMARK 921   NORMALIZED FREE ENERGY PREDICTED BY IDOCK:   -3.52 KCAL/MOL
REMARK 922        TOTAL FREE ENERGY PREDICTED BY IDOCK:   -5.24 KCAL/MOL
REMARK 923 INTER-LIGAND FREE ENERGY PREDICTED BY IDOCK:   -4.90 KCAL/MOL
REMARK 924 INTRA-LIGAND FREE ENERGY PREDICTED BY IDOCK:   -0.34 KCAL/MOL
REMARK 927      BINDING AFFINITY PREDICTED BY RF-SCORE:    0.00 PKD
ROOT
HETATM    1  C   UNL     1      -5.244  14.001  70.045  1.00  0.00    -0.091 C  
HETATM    2  C   UNL     1      -6.216  14.560  69.062  1.00  0.00    -0.092 A  
HETATM    3  C   UNL     1      -6.679  15.876  68.922  1.00  0.00    -0.134 A  
HETATM    4  C   UNL     1      -6.830  13.802  68.023  1.00  0.00    -0.140 A  
HETATM    5  N   UNL     1      -7.559  15.835  67.818  1.00  0.00    -0.131 NA 
HETATM    6  N   UNL     1      -7.559  14.599  67.230  1.00  0.00    -0.187 NA 
ENDROOT
BRANCH   3   7
HETATM    7  C   UNL     1      -6.271  17.065  69.719  1.00  0.00    -0.198 A  
HETATM    8  C   UNL     1      -6.666  18.353  69.306  1.00  0.00    -0.248 A  
HETATM    9  C   UNL     1      -5.133  18.123  71.607  1.00  0.00     0.020 A  
HETATM   10  C   UNL     1      -5.518  16.972  70.900  1.00  0.00    -0.027 A  
HETATM   11  C   UNL     1      -6.345  19.497  70.046  1.00  0.00    -0.285 A  
HETATM   12 CL   UNL     1      -5.131  20.783  72.081  1.00  0.00    -0.172 Cl 
HETATM   13  C   UNL     1      -5.563  19.378  71.189  1.00  0.00    -0.214 A  
ENDBRANCH   3   7
BRANCH   5  14
HETATM   14  C   UNL     1      -8.352  16.840  67.173  1.00  0.00    -0.183 A  
HETATM   15  C   UNL     1      -7.661  17.775  66.364  1.00  0.00    -0.318 A  
HETATM   16  C   UNL     1      -9.688  19.006  65.962  1.00  0.00    -0.186 A  
HETATM   17  C   UNL     1     -10.399  18.065  66.703  1.00  0.00    -0.375 A  
HETATM   18 CL   UNL     1     -10.786  15.682  67.803  1.00  0.00    -0.301 Cl 
HETATM   19  C   UNL     1      -9.746  16.952  67.262  1.00  0.00    -0.251 A  
HETATM   20  C   UNL     1      -8.326  18.843  65.756  1.00  0.00     0.258 A  
HETATM   21 CL   UNL     1     -10.506  20.342  65.252  1.00  0.00    -0.130 Cl 
ENDBRANCH   5  14
BRANCH   4  22
HETATM   22  C   UNL     1      -6.719  12.338  67.760  1.00  0.00    -0.107 C  
HETATM   23  O   UNL     1      -5.706  11.840  67.271  1.00  0.00    -0.086 OA 
HETATM   24  N   UNL     1      -7.856  11.639  68.139  1.00  0.00    -0.125 N  
HETATM   25  H   UNL     1      -8.635  12.190  68.498  1.00  0.00     0.000 HD 
BRANCH  24  26
HETATM   26  N   UNL     1      -8.040  10.246  68.077  1.00  0.00    -0.105 NA 
HETATM   27  C   UNL     1      -8.659   9.643  69.254  1.00  0.00    -0.153 C  
HETATM   28  C   UNL     1     -10.169   9.478  69.128  1.00  0.00    -0.209 C  
HETATM   29  C   UNL     1     -10.504   8.641  67.901  1.00  0.00    -0.269 C  
HETATM   30  C   UNL     1      -9.923   9.284  66.647  1.00  0.00    -0.333 C  
HETATM   31  C   UNL     1      -8.442   9.662  66.794  1.00  0.00    -0.127 C  
ENDBRANCH  24  26
ENDBRANCH   4  22
TORSDOF 4
ENDMDL
MODEL      122
REMARK 921   NORMALIZED FREE ENERGY PREDICTED BY IDOCK:   -3.50 KCAL/MOL
REMARK 922        TOTAL FREE ENERGY PREDICTED BY IDOCK:   -5.21 KCAL/MOL
REMARK 923 INTER-LIGAND FREE ENERGY PREDICTED BY IDOCK:   -4.53 KCAL/MOL
REMARK 924 INTRA-LIGAND FREE ENERGY PREDICTED BY IDOCK:   -0.68 KCAL/MOL
REMARK 927      BINDING AFFINITY PREDICTED BY RF-SCORE:    0.00 PKD
ROOT
HETATM    1  C   UNL     1      -8.596  15.887  68.209  1.00  0.00    -0.176 C  
HETATM    2  C   UNL     1      -8.002  14.546  68.479  1.00  0.00    -0.142 A  
HETATM    3  C   UNL     1      -8.407  13.286  68.017  1.00  0.00    -0.162 A  
HETATM    4  C   UNL     1      -6.832  14.334  69.264  1.00  0.00    -0.124 A  
HETATM    5  N   UNL     1      -7.470  12.382  68.564  1.00  0.00    -0.111 NA 
HETATM    6  N   UNL     1      -6.473  13.043  69.229  1.00  0.00    -0.105 NA 
ENDROOT
BRANCH   3   7
HETATM    7  C   UNL     1      -9.533  12.984  67.093  1.00  0.00    -0.230 A  
HETATM    8  C   UNL     1      -9.277  12.768  65.724  1.00  0.00     0.179 A  
HETATM    9  C   UNL     1     -11.902  12.613  66.611  1.00  0.00    -0.449 A  
HETATM   10  C   UNL     1     -10.866  12.874  67.522  1.00  0.00    -0.256 A  
HETATM   11  C   UNL     1     -10.298  12.438  64.825  1.00  0.00    -0.324 A  
HETATM   12 CL   UNL     1     -12.875  12.011  64.163  1.00  0.00    -0.402 Cl 
HETATM   13  C   UNL     1     -11.613  12.378  65.270  1.00  0.00    -0.373 A  
ENDBRANCH   3   7
BRANCH   5  14
HETATM   14  C   UNL     1      -7.331  10.957  68.473  1.00  0.00    -0.098 A  
HETATM   15  C   UNL     1      -8.224  10.179  69.250  1.00  0.00    -0.156 A  
HETATM   16  C   UNL     1      -7.114   8.150  68.590  1.00  0.00    -0.072 A  
HETATM   17  C   UNL     1      -6.263   8.889  67.772  1.00  0.00    -0.055 A  
HETATM   18 CL   UNL     1      -5.564  11.012  66.343  1.00  0.00    -0.112 Cl 
HETATM   19  C   UNL     1      -6.403  10.284  67.667  1.00  0.00    -0.058 A  
HETATM   20  C   UNL     1      -8.122   8.787  69.300  1.00  0.00    -0.110 A  
HETATM   21 CL   UNL     1      -6.955   6.440  68.680  1.00  0.00    -0.077 Cl 
ENDBRANCH   5  14
BRANCH   4  22
HETATM   22  C   UNL     1      -6.039  15.338  70.031  1.00  0.00    -0.150 C  
HETATM   23  O   UNL     1      -5.566  15.085  71.138  1.00  0.00    -0.112 OA 
HETATM   24  N   UNL     1      -5.897  16.539  69.351  1.00  0.00    -0.156 N  
HETATM   25  H   UNL     1      -6.376  16.618  68.454  1.00  0.00     0.000 HD 
BRANCH  24  26
HETATM   26  N   UNL     1      -5.159  17.658  69.776  1.00  0.00    -0.175 NA 
HETATM   27  C   UNL     1      -5.222  18.821  68.895  1.00  0.00    -0.192 C  
HETATM   28  C   UNL     1      -6.288  19.832  69.300  1.00  0.00    -0.361 C  
HETATM   29  C   UNL     1      -6.050  20.298  70.731  1.00  0.00    -0.306 C  
HETATM   30  C   UNL     1      -6.045  19.106  71.681  1.00  0.00     0.479 C  
HETATM   31  C   UNL     1      -5.135  17.962  71.209  1.00  0.00    -0.139 C  
ENDBRANCH  24  26
ENDBRANCH   4  22
TORSDOF 4
ENDMDL
MODEL      123
REMARK 921   NORMALIZED FREE ENERGY PREDICTED BY IDOCK:   -3.32 KCAL/MOL
REMARK 922        TOTAL FREE ENERGY PREDICTED BY IDOCK:   -4.99 KCAL/MOL
REMARK 923 INTER-LIGAND FREE ENERGY PREDICTED BY IDOCK:   -3.82 KCAL/MOL
REMARK 924 INTRA-LIGAND FREE ENERGY PREDICTED BY IDOCK:   -1.17 KCAL/MOL
REMARK 927      BINDING AFFINITY PREDICTED BY RF-SCORE:    0.00 PKD
ROOT
HETATM    1  C   UNL     1     -11.083   6.994  67.127  1.00  0.00    -0.298 C  
HETATM    2  C   UNL     1      -9.902   7.749  67.635  1.00  0.00    -0.208 A  
HETATM    3  C   UNL     1      -9.601   9.113  67.514  1.00  0.00    -0.150 A  
HETATM    4  C   UNL     1      -8.852   7.169  68.404  1.00  0.00    -0.127 A  
HETATM    5  N   UNL     1      -8.379   9.276  68.201  1.00  0.00    -0.119 NA 
HETATM    6  N   UNL     1      -7.995   8.114  68.815  1.00  0.00    -0.113 NA 
ENDROOT
BRANCH   3   7
HETATM    7  C   UNL     1     -10.430  10.164  66.865  1.00  0.00    -0.286 A  
HETATM    8  C   UNL     1     -11.184  11.051  67.661  1.00  0.00    -0.373 A  
HETATM    9  C   UNL     1     -11.304  11.334  64.904  1.00  0.00    -0.023 A  
HETATM   10  C   UNL     1     -10.487  10.345  65.474  1.00  0.00    -0.192 A  
HETATM   11  C   UNL     1     -11.944  12.084  67.099  1.00  0.00    -0.105 A  
HETATM   12 CL   UNL     1     -12.977  13.453  65.020  1.00  0.00    -0.325 Cl 
HETATM   13  C   UNL     1     -12.014  12.211  65.717  1.00  0.00    -0.194 A  
ENDBRANCH   3   7
BRANCH   5  14
HETATM   14  C   UNL     1      -7.546  10.419  68.439  1.00  0.00    -0.093 A  
HETATM   15  C   UNL     1      -7.252  10.724  69.791  1.00  0.00    -0.106 A  
HETATM   16  C   UNL     1      -6.083  12.723  69.144  1.00  0.00    -0.092 A  
HETATM   17  C   UNL     1      -6.308  12.413  67.804  1.00  0.00    -0.109 A  
HETATM   18 CL   UNL     1      -6.849  10.780  65.785  1.00  0.00    -0.097 Cl 
HETATM   19  C   UNL     1      -6.988  11.235  67.447  1.00  0.00    -0.101 A  
HETATM   20  C   UNL     1      -6.519  11.861  70.139  1.00  0.00     0.094 A  
HETATM   21 CL   UNL     1      -5.217  14.148  69.566  1.00  0.00    -0.087 Cl 
ENDBRANCH   5  14
BRANCH   4  22
HETATM   22  C   UNL     1      -8.659   5.736  68.773  1.00  0.00    -0.109 C  
HETATM   23  O   UNL     1      -8.592   5.370  69.945  1.00  0.00    -0.104 OA 
HETATM   24  N   UNL     1      -8.586   4.904  67.665  1.00  0.00    -0.104 N  
HETATM   25  H   UNL     1      -8.621   5.354  66.751  1.00  0.00     0.000 HD 
BRANCH  24  26
HETATM   26  N   UNL     1      -8.468   3.503  67.678  1.00  0.00    -0.093 NA 
HETATM   27  C   UNL     1      -7.161   2.988  68.074  1.00  0.00    -0.050 C  
HETATM   28  C   UNL     1      -7.068   2.641  69.555  1.00  0.00    -0.040 C  
HETATM   29  C   UNL     1      -8.141   1.623  69.922  1.00  0.00    -0.055 C  
HETATM   30  C   UNL     1      -9.524   2.165  69.577  1.00  0.00    -0.113 C  
HETATM   31  C   UNL     1      -9.615   2.721  68.149  1.00  0.00    -0.049 C  
ENDBRANCH  24  26
ENDBRANCH   4  22
TORSDOF 4
ENDMDL
MODEL      124
REMARK 921   NORMALIZED FREE ENERGY PREDICTED BY IDOCK:   -3.31 KCAL/MOL
REMARK 922        TOTAL FREE ENERGY PREDICTED BY IDOCK:   -4.98 KCAL/MOL
REMARK 923 INTER-LIGAND FREE ENERGY PREDICTED BY IDOCK:   -4.20 KCAL/MOL
REMARK 924 INTRA-LIGAND FREE ENERGY PREDICTED BY IDOCK:   -0.78 KCAL/MOL
REMARK 927      BINDING AFFINITY PREDICTED BY RF-SCORE:    0.00 PKD
ROOT
HETATM    1  C   UNL     1      -5.201  13.452  69.921  1.00  0.00    -0.087 C  
HETATM    2  C   UNL     1      -6.417  13.214  69.092  1.00  0.00    -0.107 A  
HETATM    3  C   UNL     1      -7.350  14.138  68.598  1.00  0.00    -0.126 A  
HETATM    4  C   UNL     1      -6.820  11.935  68.610  1.00  0.00    -0.086 A  
HETATM    5  N   UNL     1      -8.271  13.363  67.861  1.00  0.00    -0.148 NA 
HETATM    6  N   UNL     1      -7.879  12.053  67.798  1.00  0.00    -0.134 NA 
ENDROOT
BRANCH   3   7
HETATM    7  C   UNL     1      -7.324  15.617  68.758  1.00  0.00    -0.144 A  
HETATM    8  C   UNL     1      -8.515  16.357  68.614  1.00  0.00    -0.229 A  
HETATM    9  C   UNL     1      -6.175  17.731  69.193  1.00  0.00    -0.230 A  
HETATM   10  C   UNL     1      -6.158  16.332  69.076  1.00  0.00    -0.142 A  
HETATM   11  C   UNL     1      -8.550  17.744  68.799  1.00  0.00    -0.206 A  
HETATM   12 CL   UNL     1      -7.402  20.138  69.261  1.00  0.00    -0.093 Cl 
HETATM   13  C   UNL     1      -7.372  18.430  69.072  1.00  0.00    -0.208 A  
ENDBRANCH   3   7
BRANCH   5  14
HETATM   14  C   UNL     1      -9.451  13.704  67.120  1.00  0.00    -0.244 A  
HETATM   15  C   UNL     1      -9.280  13.977  65.740  1.00  0.00     0.246 A  
HETATM   16  C   UNL     1     -11.598  14.573  65.516  1.00  0.00    -0.350 A  
HETATM   17  C   UNL     1     -11.804  14.253  66.856  1.00  0.00    -0.458 A  
HETATM   18 CL   UNL     1     -11.220  13.044  69.144  1.00  0.00    -0.309 Cl 
HETATM   19  C   UNL     1     -10.748  13.765  67.645  1.00  0.00    -0.249 A  
HETATM   20  C   UNL     1     -10.346  14.399  64.944  1.00  0.00    -0.419 A  
HETATM   21 CL   UNL     1     -12.908  15.133  64.552  1.00  0.00     0.212 Cl 
ENDBRANCH   5  14
BRANCH   4  22
HETATM   22  C   UNL     1      -6.203  10.606  68.892  1.00  0.00    -0.044 C  
HETATM   23  O   UNL     1      -5.352  10.115  68.153  1.00  0.00    -0.036 OA 
HETATM   24  N   UNL     1      -6.685  10.029  70.058  1.00  0.00    -0.095 N  
HETATM   25  H   UNL     1      -7.419  10.537  70.551  1.00  0.00     0.000 HD 
BRANCH  24  26
HETATM   26  N   UNL     1      -6.263   8.814  70.626  1.00  0.00    -0.036 NA 
HETATM   27  C   UNL     1      -6.225   8.786  72.085  1.00  0.00    -0.069 C  
HETATM   28  C   UNL     1      -7.490   8.215  72.715  1.00  0.00    -0.163 C  
HETATM   29  C   UNL     1      -7.746   6.808  72.192  1.00  0.00    -0.095 C  
HETATM   30  C   UNL     1      -7.855   6.820  70.671  1.00  0.00    -0.105 C  
HETATM   31  C   UNL     1      -6.700   7.569  69.990  1.00  0.00    -0.046 C  
ENDBRANCH  24  26
ENDBRANCH   4  22
TORSDOF 4
ENDMDL
MODEL      125
REMARK 921   NORMALIZED FREE ENERGY PREDICTED BY IDOCK:   -3.31 KCAL/MOL
REMARK 922        TOTAL FREE ENERGY PREDICTED BY IDOCK:   -4.97 KCAL/MOL
REMARK 923 INTER-LIGAND FREE ENERGY PREDICTED BY IDOCK:   -4.39 KCAL/MOL
REMARK 924 INTRA-LIGAND FREE ENERGY PREDICTED BY IDOCK:   -0.59 KCAL/MOL
REMARK 927      BINDING AFFINITY PREDICTED BY RF-SCORE:    0.00 PKD
ROOT
HETATM    1  C   UNL     1      -8.589   6.218  67.544  1.00  0.00    -0.107 C  
HETATM    2  C   UNL     1      -8.070   7.366  68.342  1.00  0.00    -0.125 A  
HETATM    3  C   UNL     1      -7.907   8.707  67.966  1.00  0.00    -0.103 A  
HETATM    4  C   UNL     1      -7.675   7.277  69.708  1.00  0.00    -0.107 A  
HETATM    5  N   UNL     1      -7.406   9.347  69.120  1.00  0.00    -0.070 NA 
HETATM    6  N   UNL     1      -7.368   8.490  70.186  1.00  0.00    -0.050 NA 
ENDROOT
BRANCH   3   7
HETATM    7  C   UNL     1      -8.258   9.325  66.659  1.00  0.00    -0.115 A  
HETATM    8  C   UNL     1      -9.596   9.672  66.386  1.00  0.00    -0.268 A  
HETATM    9  C   UNL     1      -7.685  10.173  64.438  1.00  0.00    -0.134 A  
HETATM   10  C   UNL     1      -7.305   9.613  65.668  1.00  0.00    -0.101 A  
HETATM   11  C   UNL     1      -9.968  10.296  65.189  1.00  0.00    -0.395 A  
HETATM   12 CL   UNL     1      -9.467  11.260  62.722  1.00  0.00    -0.375 Cl 
HETATM   13  C   UNL     1      -9.010  10.530  64.210  1.00  0.00    -0.216 A  
ENDBRANCH   3   7
BRANCH   5  14
HETATM   14  C   UNL     1      -7.031  10.705  69.389  1.00  0.00    -0.106 A  
HETATM   15  C   UNL     1      -7.748  11.714  68.699  1.00  0.00    -0.134 A  
HETATM   16  C   UNL     1      -6.338  13.426  69.627  1.00  0.00    -0.093 A  
HETATM   17  C   UNL     1      -5.657  12.459  70.361  1.00  0.00    -0.162 A  
HETATM   18 CL   UNL     1      -5.385  10.092  71.528  1.00  0.00    -0.077 Cl 
HETATM   19  C   UNL     1      -6.036  11.107  70.289  1.00  0.00    -0.144 A  
HETATM   20  C   UNL     1      -7.410  13.063  68.825  1.00  0.00    -0.064 A  
HETATM   21 CL   UNL     1      -5.888  15.082  69.753  1.00  0.00    -0.110 Cl 
ENDBRANCH   5  14
BRANCH   4  22
HETATM   22  C   UNL     1      -7.602   6.062  70.571  1.00  0.00    -0.092 C  
HETATM   23  O   UNL     1      -6.717   5.220  70.435  1.00  0.00    -0.040 OA 
HETATM   24  N   UNL     1      -8.614   6.019  71.520  1.00  0.00    -0.131 N  
HETATM   25  H   UNL     1      -9.302   6.772  71.491  1.00  0.00     0.000 HD 
BRANCH  24  26
HETATM   26  N   UNL     1      -8.786   5.042  72.516  1.00  0.00    -0.123 NA 
HETATM   27  C   UNL     1      -9.600   5.448  73.657  1.00  0.00    -0.139 C  
HETATM   28  C   UNL     1     -11.065   5.048  73.531  1.00  0.00    -0.386 C  
HETATM   29  C   UNL     1     -11.182   3.541  73.341  1.00  0.00    -0.258 C  
HETATM   30  C   UNL     1     -10.392   3.100  72.115  1.00  0.00    -0.062 C  
HETATM   31  C   UNL     1      -8.959   3.650  72.090  1.00  0.00    -0.100 C  
ENDBRANCH  24  26
ENDBRANCH   4  22
TORSDOF 4
ENDMDL
MODEL      126
REMARK 921   NORMALIZED FREE ENERGY PREDICTED BY IDOCK:   -3.09 KCAL/MOL
REMARK 922        TOTAL FREE ENERGY PREDICTED BY IDOCK:   -4.71 KCAL/MOL
REMARK 923 INTER-LIGAND FREE ENERGY PREDICTED BY IDOCK:   -3.18 KCAL/MOL
REMARK 924 INTRA-LIGAND FREE ENERGY PREDICTED BY IDOCK:   -1.53 KCAL/MOL
REMARK 927      BINDING AFFINITY PREDICTED BY RF-SCORE:    0.00 PKD
ROOT
HETATM    1  C   UNL     1      -5.868   8.064  65.497  1.00  0.00    -0.037 C  
HETATM    2  C   UNL     1      -6.687   7.544  66.629  1.00  0.00    -0.058 A  
HETATM    3  C   UNL     1      -7.053   8.177  67.825  1.00  0.00    -0.087 A  
HETATM    4  C   UNL     1      -7.295   6.255  66.650  1.00  0.00    -0.078 A  
HETATM    5  N   UNL     1      -7.847   7.230  68.508  1.00  0.00    -0.120 NA 
HETATM    6  N   UNL     1      -8.063   6.117  67.740  1.00  0.00    -0.112 NA 
ENDROOT
BRANCH   3   7
HETATM    7  C   UNL     1      -6.734   9.569  68.241  1.00  0.00    -0.058 A  
HETATM    8  C   UNL     1      -7.478  10.645  67.716  1.00  0.00    -0.091 A  
HETATM    9  C   UNL     1      -5.442  11.210  69.515  1.00  0.00    -0.046 A  
HETATM   10  C   UNL     1      -5.727   9.879  69.170  1.00  0.00    -0.034 A  
HETATM   11  C   UNL     1      -7.244  11.968  68.110  1.00  0.00    -0.090 A  
HETATM   12 CL   UNL     1      -5.895  13.873  69.458  1.00  0.00    -0.093 Cl 
HETATM   13  C   UNL     1      -6.212  12.247  68.999  1.00  0.00    -0.082 A  
ENDBRANCH   3   7
BRANCH   5  14
HETATM   14  C   UNL     1      -8.517   7.260  69.776  1.00  0.00    -0.136 A  
HETATM   15  C   UNL     1      -7.777   6.814  70.898  1.00  0.00    -0.093 A  
HETATM   16  C   UNL     1      -9.695   7.061  72.327  1.00  0.00    -0.153 A  
HETATM   17  C   UNL     1     -10.425   7.560  71.251  1.00  0.00    -0.220 A  
HETATM   18 CL   UNL     1     -10.703   8.696  68.870  1.00  0.00    -0.164 Cl 
HETATM   19  C   UNL     1      -9.825   7.714  69.989  1.00  0.00    -0.180 A  
HETATM   20  C   UNL     1      -8.360   6.724  72.165  1.00  0.00    -0.107 A  
HETATM   21 CL   UNL     1     -10.432   6.913  73.875  1.00  0.00    -0.401 Cl 
ENDBRANCH   5  14
BRANCH   4  22
HETATM   22  C   UNL     1      -7.175   5.161  65.643  1.00  0.00    -0.068 C  
HETATM   23  O   UNL     1      -6.226   4.379  65.643  1.00  0.00    -0.026 OA 
HETATM   24  N   UNL     1      -8.241   5.132  64.755  1.00  0.00    -0.124 N  
HETATM   25  H   UNL     1      -8.940   5.868  64.854  1.00  0.00     0.000 HD 
BRANCH  24  26
HETATM   26  N   UNL     1      -8.452   4.190  63.733  1.00  0.00    -0.096 NA 
HETATM   27  C   UNL     1      -8.828   2.853  64.182  1.00  0.00    -0.102 C  
HETATM   28  C   UNL     1     -10.334   2.620  64.202  1.00  0.00     0.027 C  
HETATM   29  C   UNL     1     -10.921   2.869  62.819  1.00  0.00    -0.146 C  
HETATM   30  C   UNL     1     -10.597   4.284  62.353  1.00  0.00    -0.084 C  
HETATM   31  C   UNL     1      -9.112   4.644  62.506  1.00  0.00    -0.118 C  
ENDBRANCH  24  26
ENDBRANCH   4  22
TORSDOF 4
ENDMDL
MODEL      127
REMARK 921   NORMALIZED FREE ENERGY PREDICTED BY IDOCK:   -2.92 KCAL/MOL
REMARK 922        TOTAL FREE ENERGY PREDICTED BY IDOCK:   -4.49 KCAL/MOL
REMARK 923 INTER-LIGAND FREE ENERGY PREDICTED BY IDOCK:   -3.44 KCAL/MOL
REMARK 924 INTRA-LIGAND FREE ENERGY PREDICTED BY IDOCK:   -1.05 KCAL/MOL
REMARK 927      BINDING AFFINITY PREDICTED BY RF-SCORE:    0.00 PKD
ROOT
HETATM    1  C   UNL     1     -11.384  10.446  67.098  1.00  0.00     0.109 C  
HETATM    2  C   UNL     1     -10.522  10.035  68.243  1.00  0.00    -0.246 A  
HETATM    3  C   UNL     1      -9.702   8.905  68.377  1.00  0.00    -0.161 A  
HETATM    4  C   UNL     1     -10.358  10.799  69.435  1.00  0.00    -0.179 A  
HETATM    5  N   UNL     1      -9.104   9.041  69.648  1.00  0.00    -0.149 NA 
HETATM    6  N   UNL     1      -9.434  10.237  70.227  1.00  0.00     0.169 NA 
ENDROOT
BRANCH   3   7
HETATM    7  C   UNL     1      -9.465   7.841  67.366  1.00  0.00    -0.177 A  
HETATM    8  C   UNL     1      -8.501   8.037  66.356  1.00  0.00    -0.138 A  
HETATM    9  C   UNL     1      -9.905   5.644  66.385  1.00  0.00    -0.184 A  
HETATM   10  C   UNL     1     -10.143   6.611  67.374  1.00  0.00    -0.211 A  
HETATM   11  C   UNL     1      -8.210   7.047  65.409  1.00  0.00    -0.133 A  
HETATM   12 CL   UNL     1      -8.602   4.654  64.234  1.00  0.00    -0.134 Cl 
HETATM   13  C   UNL     1      -8.928   5.857  65.418  1.00  0.00    -0.002 A  
ENDBRANCH   3   7
BRANCH   5  14
HETATM   14  C   UNL     1      -8.175   8.225  70.375  1.00  0.00    -0.114 A  
HETATM   15  C   UNL     1      -8.564   6.886  70.626  1.00  0.00    -0.141 A  
HETATM   16  C   UNL     1      -6.588   6.502  71.941  1.00  0.00    -0.058 A  
HETATM   17  C   UNL     1      -6.155   7.795  71.658  1.00  0.00    -0.035 A  
HETATM   18 CL   UNL     1      -6.090  10.041  70.247  1.00  0.00    -0.070 Cl 
HETATM   19  C   UNL     1      -6.917   8.639  70.830  1.00  0.00    -0.064 A  
HETATM   20  C   UNL     1      -7.773   6.030  71.394  1.00  0.00    -0.104 A  
HETATM   21 CL   UNL     1      -5.628   5.467  72.924  1.00  0.00    -0.022 Cl 
ENDBRANCH   5  14
BRANCH   4  22
HETATM   22  C   UNL     1     -11.048  12.062  69.825  1.00  0.00     0.079 C  
HETATM   23  O   UNL     1     -11.966  12.075  70.643  1.00  0.00    -0.331 OA 
HETATM   24  N   UNL     1     -10.528  13.176  69.183  1.00  0.00    -0.437 N  
HETATM   25  H   UNL     1      -9.789  13.009  68.500  1.00  0.00     0.000 HD 
BRANCH  24  26
HETATM   26  N   UNL     1     -10.918  14.513  69.379  1.00  0.00    -0.256 NA 
HETATM   27  C   UNL     1     -12.242  14.860  68.870  1.00  0.00    -0.108 C  
HETATM   28  C   UNL     1     -13.340  14.772  69.923  1.00  0.00     0.706 C  
HETATM   29  C   UNL     1     -13.004  15.672  71.105  1.00  0.00    -0.539 C  
HETATM   30  C   UNL     1     -11.653  15.287  71.697  1.00  0.00    -0.473 C  
HETATM   31  C   UNL     1     -10.546  15.160  70.640  1.00  0.00    -0.035 C  
ENDBRANCH  24  26
ENDBRANCH   4  22
TORSDOF 4
ENDMDL
MODEL      128
REMARK 921   NORMALIZED FREE ENERGY PREDICTED BY IDOCK:   -2.89 KCAL/MOL
REMARK 922        TOTAL FREE ENERGY PREDICTED BY IDOCK:   -4.46 KCAL/MOL
REMARK 923 INTER-LIGAND FREE ENERGY PREDICTED BY IDOCK:   -3.66 KCAL/MOL
REMARK 924 INTRA-LIGAND FREE ENERGY PREDICTED BY IDOCK:   -0.80 KCAL/MOL
REMARK 927      BINDING AFFINITY PREDICTED BY RF-SCORE:    0.00 PKD
ROOT
HETATM    1  C   UNL     1      -8.991   8.645  64.529  1.00  0.00     0.169 C  
HETATM    2  C   UNL     1      -8.118   9.322  65.531  1.00  0.00    -0.113 A  
HETATM    3  C   UNL     1      -8.329  10.522  66.225  1.00  0.00    -0.152 A  
HETATM    4  C   UNL     1      -6.877   8.798  65.995  1.00  0.00    -0.073 A  
HETATM    5  N   UNL     1      -7.196  10.663  67.056  1.00  0.00    -0.097 NA 
HETATM    6  N   UNL     1      -6.382   9.565  66.976  1.00  0.00    -0.065 NA 
ENDROOT
BRANCH   3   7
HETATM    7  C   UNL     1      -9.522  11.407  66.151  1.00  0.00    -0.237 A  
HETATM    8  C   UNL     1      -9.682  12.276  65.053  1.00  0.00    -0.080 A  
HETATM    9  C   UNL     1     -11.632  12.281  67.027  1.00  0.00    -0.418 A  
HETATM   10  C   UNL     1     -10.535  11.410  67.124  1.00  0.00    -0.259 A  
HETATM   11  C   UNL     1     -10.809  13.095  64.917  1.00  0.00    -0.348 A  
HETATM   12 CL   UNL     1     -13.141  14.140  65.774  1.00  0.00    -0.295 Cl 
HETATM   13  C   UNL     1     -11.774  13.106  65.916  1.00  0.00    -0.384 A  
ENDBRANCH   3   7
BRANCH   5  14
HETATM   14  C   UNL     1      -6.806  11.670  68.000  1.00  0.00    -0.072 A  
HETATM   15  C   UNL     1      -6.645  12.985  67.500  1.00  0.00    -0.160 A  
HETATM   16  C   UNL     1      -5.866  13.761  69.638  1.00  0.00    -0.106 A  
HETATM   17  C   UNL     1      -6.073  12.489  70.168  1.00  0.00    -0.099 A  
HETATM   18 CL   UNL     1      -7.166  10.073  70.232  1.00  0.00    -0.160 Cl 
HETATM   19  C   UNL     1      -6.595  11.457  69.369  1.00  0.00    -0.119 A  
HETATM   20  C   UNL     1      -6.189  14.023  68.315  1.00  0.00    -0.116 A  
HETATM   21 CL   UNL     1      -5.263  15.024  70.637  1.00  0.00    -0.125 Cl 
ENDBRANCH   5  14
BRANCH   4  22
HETATM   22  C   UNL     1      -6.164   7.570  65.538  1.00  0.00    -0.038 C  
HETATM   23  O   UNL     1      -5.273   7.613  64.691  1.00  0.00    -0.029 OA 
HETATM   24  N   UNL     1      -6.609   6.422  66.178  1.00  0.00    -0.047 N  
HETATM   25  H   UNL     1      -7.382   6.534  66.833  1.00  0.00     0.000 HD 
BRANCH  24  26
HETATM   26  N   UNL     1      -6.100   5.122  66.014  1.00  0.00    -0.029 NA 
HETATM   27  C   UNL     1      -7.042   4.041  66.289  1.00  0.00    -0.064 C  
HETATM   28  C   UNL     1      -7.752   3.523  65.044  1.00  0.00    -0.081 C  
HETATM   29  C   UNL     1      -6.731   3.050  64.018  1.00  0.00    -0.035 C  
HETATM   30  C   UNL     1      -5.773   4.181  63.665  1.00  0.00    -0.014 C  
HETATM   31  C   UNL     1      -5.182   4.879  64.898  1.00  0.00    -0.013 C  
ENDBRANCH  24  26
ENDBRANCH   4  22
TORSDOF 4
ENDMDL
MODEL      129
REMARK 921   NORMALIZED FREE ENERGY PREDICTED BY IDOCK:   -2.87 KCAL/MOL
REMARK 922        TOTAL FREE ENERGY PREDICTED BY IDOCK:   -4.44 KCAL/MOL
REMARK 923 INTER-LIGAND FREE ENERGY PREDICTED BY IDOCK:   -3.30 KCAL/MOL
REMARK 924 INTRA-LIGAND FREE ENERGY PREDICTED BY IDOCK:   -1.13 KCAL/MOL
REMARK 927      BINDING AFFINITY PREDICTED BY RF-SCORE:    0.00 PKD
ROOT
HETATM    1  C   UNL     1      -7.347  11.947  69.790  1.00  0.00     0.617 C  
HETATM    2  C   UNL     1      -7.869  10.744  69.080  1.00  0.00    -0.142 A  
HETATM    3  C   UNL     1      -7.741   9.389  69.418  1.00  0.00    -0.085 A  
HETATM    4  C   UNL     1      -8.663  10.794  67.899  1.00  0.00    -0.129 A  
HETATM    5  N   UNL     1      -8.449   8.698  68.411  1.00  0.00    -0.130 NA 
HETATM    6  N   UNL     1      -9.081   9.566  67.562  1.00  0.00    -0.130 NA 
ENDROOT
BRANCH   3   7
HETATM    7  C   UNL     1      -7.067   8.819  70.615  1.00  0.00    -0.063 A  
HETATM    8  C   UNL     1      -7.646   8.987  71.890  1.00  0.00     0.132 A  
HETATM    9  C   UNL     1      -5.259   7.584  71.704  1.00  0.00    -0.035 A  
HETATM   10  C   UNL     1      -5.874   8.083  70.545  1.00  0.00    -0.029 A  
HETATM   11  C   UNL     1      -7.073   8.432  73.040  1.00  0.00    -0.111 A  
HETATM   12 CL   UNL     1      -5.141   7.093  74.359  1.00  0.00    -0.046 Cl 
HETATM   13  C   UNL     1      -5.869   7.744  72.944  1.00  0.00    -0.045 A  
ENDBRANCH   3   7
BRANCH   5  14
HETATM   14  C   UNL     1      -8.692   7.303  68.181  1.00  0.00    -0.128 A  
HETATM   15  C   UNL     1      -7.987   6.702  67.109  1.00  0.00    -0.109 A  
HETATM   16  C   UNL     1      -9.154   4.625  67.435  1.00  0.00    -0.123 A  
HETATM   17  C   UNL     1      -9.815   5.175  68.531  1.00  0.00    -0.218 A  
HETATM   18 CL   UNL     1     -10.122   6.907  70.517  1.00  0.00    -0.198 Cl 
HETATM   19  C   UNL     1      -9.545   6.493  68.941  1.00  0.00    -0.127 A  
HETATM   20  C   UNL     1      -8.210   5.372  66.746  1.00  0.00    -0.108 A  
HETATM   21 CL   UNL     1      -9.466   2.999  66.967  1.00  0.00    -0.155 Cl 
ENDBRANCH   5  14
BRANCH   4  22
HETATM   22  C   UNL     1      -9.049  11.991  67.095  1.00  0.00    -0.186 C  
HETATM   23  O   UNL     1      -8.840  12.055  65.885  1.00  0.00    -0.052 OA 
HETATM   24  N   UNL     1      -9.664  12.972  67.858  1.00  0.00    -0.212 N  
HETATM   25  H   UNL     1      -9.737  12.796  68.860  1.00  0.00     0.000 HD 
BRANCH  24  26
HETATM   26  N   UNL     1     -10.195  14.187  67.388  1.00  0.00    -0.243 NA 
HETATM   27  C   UNL     1     -11.211  14.797  68.240  1.00  0.00    -0.286 C  
HETATM   28  C   UNL     1     -10.652  15.839  69.202  1.00  0.00    -0.242 C  
HETATM   29  C   UNL     1      -9.926  16.930  68.426  1.00  0.00    -0.275 C  
HETATM   30  C   UNL     1      -8.815  16.325  67.577  1.00  0.00    -0.194 C  
HETATM   31  C   UNL     1      -9.282  15.129  66.735  1.00  0.00    -0.254 C  
ENDBRANCH  24  26
ENDBRANCH   4  22
TORSDOF 4
ENDMDL
MODEL      130
REMARK 921   NORMALIZED FREE ENERGY PREDICTED BY IDOCK:   -2.86 KCAL/MOL
REMARK 922        TOTAL FREE ENERGY PREDICTED BY IDOCK:   -4.42 KCAL/MOL
REMARK 923 INTER-LIGAND FREE ENERGY PREDICTED BY IDOCK:   -3.16 KCAL/MOL
REMARK 924 INTRA-LIGAND FREE ENERGY PREDICTED BY IDOCK:   -1.26 KCAL/MOL
REMARK 927      BINDING AFFINITY PREDICTED BY RF-SCORE:    0.00 PKD
ROOT
HETATM    1  C   UNL     1     -11.440  12.274  64.708  1.00  0.00    -0.382 C  
HETATM    2  C   UNL     1     -10.535  12.161  65.888  1.00  0.00    -0.288 A  
HETATM    3  C   UNL     1      -9.598  11.164  66.196  1.00  0.00    -0.210 A  
HETATM    4  C   UNL     1     -10.448  13.134  66.925  1.00  0.00    -0.256 A  
HETATM    5  N   UNL     1      -9.012  11.582  67.411  1.00  0.00    -0.153 NA 
HETATM    6  N   UNL     1      -9.466  12.819  67.782  1.00  0.00    -0.198 NA 
ENDROOT
BRANCH   3   7
HETATM    7  C   UNL     1      -9.252   9.970  65.380  1.00  0.00    -0.259 A  
HETATM    8  C   UNL     1      -9.612   8.684  65.833  1.00  0.00    -0.210 A  
HETATM    9  C   UNL     1      -8.266   8.897  63.416  1.00  0.00    -0.181 A  
HETATM   10  C   UNL     1      -8.596  10.053  64.141  1.00  0.00    -0.195 A  
HETATM   11  C   UNL     1      -9.347   7.534  65.079  1.00  0.00     1.041 A  
HETATM   12 CL   UNL     1      -8.297   6.232  62.966  1.00  0.00     0.001 Cl 
HETATM   13  C   UNL     1      -8.658   7.645  63.877  1.00  0.00     0.426 A  
ENDBRANCH   3   7
BRANCH   5  14
HETATM   14  C   UNL     1      -7.999  11.006  68.247  1.00  0.00    -0.124 A  
HETATM   15  C   UNL     1      -8.351   9.834  68.960  1.00  0.00    -0.127 A  
HETATM   16  C   UNL     1      -6.226   9.816  70.085  1.00  0.00    -0.070 A  
HETATM   17  C   UNL     1      -5.834  10.933  69.351  1.00  0.00    -0.045 A  
HETATM   18 CL   UNL     1      -5.950  12.604  67.294  1.00  0.00    -0.131 Cl 
HETATM   19  C   UNL     1      -6.695  11.496  68.392  1.00  0.00    -0.066 A  
HETATM   20  C   UNL     1      -7.468   9.239  69.864  1.00  0.00    -0.085 A  
HETATM   21 CL   UNL     1      -5.149   9.115  71.229  1.00  0.00    -0.030 Cl 
ENDBRANCH   5  14
BRANCH   4  22
HETATM   22  C   UNL     1     -11.267  14.367  67.106  1.00  0.00    -0.328 C  
HETATM   23  O   UNL     1     -12.432  14.322  67.498  1.00  0.00    -0.170 OA 
HETATM   24  N   UNL     1     -10.566  15.525  66.803  1.00  0.00    -0.304 N  
HETATM   25  H   UNL     1      -9.615  15.407  66.453  1.00  0.00     0.000 HD 
BRANCH  24  26
HETATM   26  N   UNL     1     -11.036  16.845  66.928  1.00  0.00    -0.002 NA 
HETATM   27  C   UNL     1     -11.463  17.232  68.269  1.00  0.00     0.515 C  
HETATM   28  C   UNL     1     -10.376  17.935  69.074  1.00  0.00    -0.203 C  
HETATM   29  C   UNL     1      -9.886  19.168  68.326  1.00  0.00    -0.462 C  
HETATM   30  C   UNL     1      -9.373  18.780  66.944  1.00  0.00    -0.314 C  
HETATM   31  C   UNL     1     -10.353  17.892  66.164  1.00  0.00    -0.352 C  
ENDBRANCH  24  26
ENDBRANCH   4  22
TORSDOF 4
ENDMDL
MODEL      131
REMARK 921   NORMALIZED FREE ENERGY PREDICTED BY IDOCK:   -2.72 KCAL/MOL
REMARK 922        TOTAL FREE ENERGY PREDICTED BY IDOCK:   -4.25 KCAL/MOL
REMARK 923 INTER-LIGAND FREE ENERGY PREDICTED BY IDOCK:   -4.13 KCAL/MOL
REMARK 924 INTRA-LIGAND FREE ENERGY PREDICTED BY IDOCK:   -0.11 KCAL/MOL
REMARK 927      BINDING AFFINITY PREDICTED BY RF-SCORE:    0.00 PKD
ROOT
HETATM    1  C   UNL     1     -11.594  10.012  69.771  1.00  0.00    -0.193 C  
HETATM    2  C   UNL     1     -10.543   9.304  68.986  1.00  0.00    -0.225 A  
HETATM    3  C   UNL     1      -9.981   8.036  69.194  1.00  0.00    -0.188 A  
HETATM    4  C   UNL     1      -9.940   9.825  67.804  1.00  0.00    -0.168 A  
HETATM    5  N   UNL     1      -9.059   7.870  68.138  1.00  0.00    -0.134 NA 
HETATM    6  N   UNL     1      -9.121   8.916  67.256  1.00  0.00    -0.133 NA 
ENDROOT
BRANCH   3   7
HETATM    7  C   UNL     1     -10.339   7.056  70.255  1.00  0.00    -0.219 A  
HETATM    8  C   UNL     1     -10.227   7.422  71.611  1.00  0.00    -0.205 A  
HETATM    9  C   UNL     1     -11.118   4.864  71.009  1.00  0.00     0.575 A  
HETATM   10  C   UNL     1     -10.817   5.766  69.975  1.00  0.00    -0.403 A  
HETATM   11  C   UNL     1     -10.593   6.550  72.644  1.00  0.00    -0.248 A  
HETATM   12 CL   UNL     1     -11.437   4.177  73.603  1.00  0.00    -0.274 Cl 
HETATM   13  C   UNL     1     -11.023   5.265  72.338  1.00  0.00    -0.212 A  
ENDBRANCH   3   7
BRANCH   5  14
HETATM   14  C   UNL     1      -8.169   6.802  67.787  1.00  0.00    -0.120 A  
HETATM   15  C   UNL     1      -7.868   5.863  68.803  1.00  0.00    -0.095 A  
HETATM   16  C   UNL     1      -6.301   4.733  67.371  1.00  0.00    -0.040 A  
HETATM   17  C   UNL     1      -6.625   5.608  66.337  1.00  0.00    -0.055 A  
HETATM   18 CL   UNL     1      -8.180   7.348  65.073  1.00  0.00    -0.125 Cl 
HETATM   19  C   UNL     1      -7.598   6.607  66.522  1.00  0.00    -0.090 A  
HETATM   20  C   UNL     1      -6.949   4.832  68.593  1.00  0.00    -0.052 A  
HETATM   21 CL   UNL     1      -5.137   3.493  67.118  1.00  0.00    -0.010 Cl 
ENDBRANCH   5  14
BRANCH   4  22
HETATM   22  C   UNL     1     -10.142  11.163  67.176  1.00  0.00    -0.191 C  
HETATM   23  O   UNL     1     -11.068  11.382  66.397  1.00  0.00    -0.295 OA 
HETATM   24  N   UNL     1      -9.198  12.094  67.584  1.00  0.00    -0.175 N  
HETATM   25  H   UNL     1      -8.464  11.759  68.208  1.00  0.00     0.000 HD 
BRANCH  24  26
HETATM   26  N   UNL     1      -9.151  13.452  67.221  1.00  0.00    -0.212 NA 
HETATM   27  C   UNL     1     -10.179  14.296  67.823  1.00  0.00    -0.235 C  
HETATM   28  C   UNL     1      -9.719  15.000  69.094  1.00  0.00    -0.212 C  
HETATM   29  C   UNL     1      -8.483  15.841  68.808  1.00  0.00    -0.198 C  
HETATM   30  C   UNL     1      -7.370  14.969  68.238  1.00  0.00    -0.111 C  
HETATM   31  C   UNL     1      -7.835  14.080  67.076  1.00  0.00     0.115 C  
ENDBRANCH  24  26
ENDBRANCH   4  22
TORSDOF 4
ENDMDL
MODEL      132
REMARK 921   NORMALIZED FREE ENERGY PREDICTED BY IDOCK:   -2.57 KCAL/MOL
REMARK 922        TOTAL FREE ENERGY PREDICTED BY IDOCK:   -4.06 KCAL/MOL
REMARK 923 INTER-LIGAND FREE ENERGY PREDICTED BY IDOCK:   -3.38 KCAL/MOL
REMARK 924 INTRA-LIGAND FREE ENERGY PREDICTED BY IDOCK:   -0.68 KCAL/MOL
REMARK 927      BINDING AFFINITY PREDICTED BY RF-SCORE:    0.00 PKD
ROOT
HETATM    1  C   UNL     1      -9.130  10.799  67.334  1.00  0.00    -0.148 C  
HETATM    2  C   UNL     1      -8.354  10.005  68.330  1.00  0.00    -0.110 A  
HETATM    3  C   UNL     1      -8.317   8.616  68.523  1.00  0.00    -0.123 A  
HETATM    4  C   UNL     1      -7.441  10.569  69.267  1.00  0.00    -0.122 A  
HETATM    5  N   UNL     1      -7.399   8.423  69.578  1.00  0.00    -0.071 NA 
HETATM    6  N   UNL     1      -6.808   9.602  69.945  1.00  0.00    -0.064 NA 
ENDROOT
BRANCH   3   7
HETATM    7  C   UNL     1      -9.035   7.578  67.736  1.00  0.00    -0.131 A  
HETATM    8  C   UNL     1     -10.418   7.385  67.930  1.00  0.00    -0.265 A  
HETATM    9  C   UNL     1      -9.116   5.791  66.068  1.00  0.00    -0.163 A  
HETATM   10  C   UNL     1      -8.404   6.778  66.770  1.00  0.00    -0.115 A  
HETATM   11  C   UNL     1     -11.145   6.451  67.182  1.00  0.00    -0.422 A  
HETATM   12 CL   UNL     1     -11.366   4.469  65.369  1.00  0.00     0.229 Cl 
HETATM   13  C   UNL     1     -10.485   5.644  66.263  1.00  0.00    -0.124 A  
ENDBRANCH   3   7
BRANCH   5  14
HETATM   14  C   UNL     1      -6.925   7.246  70.247  1.00  0.00    -0.060 A  
HETATM   15  C   UNL     1      -5.883   6.527  69.611  1.00  0.00    -0.015 A  
HETATM   16  C   UNL     1      -5.971   4.808  71.290  1.00  0.00    -0.017 A  
HETATM   17  C   UNL     1      -6.955   5.526  71.965  1.00  0.00    -0.080 A  
HETATM   18 CL   UNL     1      -8.305   7.720  72.599  1.00  0.00    -0.158 Cl 
HETATM   19  C   UNL     1      -7.394   6.770  71.479  1.00  0.00    -0.085 A  
HETATM   20  C   UNL     1      -5.404   5.324  70.134  1.00  0.00    -0.004 A  
HETATM   21 CL   UNL     1      -5.417   3.305  71.917  1.00  0.00    -0.007 Cl 
ENDBRANCH   5  14
BRANCH   4  22
HETATM   22  C   UNL     1      -7.146  12.010  69.517  1.00  0.00     0.165 C  
HETATM   23  O   UNL     1      -6.356  12.371  70.387  1.00  0.00    -0.098 OA 
HETATM   24  N   UNL     1      -7.840  12.854  68.661  1.00  0.00    -0.278 N  
HETATM   25  H   UNL     1      -8.491  12.414  68.011  1.00  0.00     0.000 HD 
BRANCH  24  26
HETATM   26  N   UNL     1      -7.735  14.255  68.602  1.00  0.00    -0.132 NA 
HETATM   27  C   UNL     1      -7.849  14.835  67.268  1.00  0.00    -0.194 C  
HETATM   28  C   UNL     1      -9.261  15.296  66.924  1.00  0.00    -0.255 C  
HETATM   29  C   UNL     1      -9.747  16.306  67.955  1.00  0.00    -0.233 C  
HETATM   30  C   UNL     1      -9.699  15.701  69.353  1.00  0.00    -0.292 C  
HETATM   31  C   UNL     1      -8.353  15.037  69.677  1.00  0.00    -0.009 C  
ENDBRANCH  24  26
ENDBRANCH   4  22
TORSDOF 4
ENDMDL
MODEL      133
REMARK 921   NORMALIZED FREE ENERGY PREDICTED BY IDOCK:   -2.45 KCAL/MOL
REMARK 922        TOTAL FREE ENERGY PREDICTED BY IDOCK:   -3.92 KCAL/MOL
REMARK 923 INTER-LIGAND FREE ENERGY PREDICTED BY IDOCK:   -3.99 KCAL/MOL
REMARK 924 INTRA-LIGAND FREE ENERGY PREDICTED BY IDOCK:    0.08 KCAL/MOL
REMARK 927      BINDING AFFINITY PREDICTED BY RF-SCORE:    0.00 PKD
ROOT
HETATM    1  C   UNL     1      -8.906  15.317  70.372  1.00  0.00     1.055 C  
HETATM    2  C   UNL     1      -9.469  15.218  68.994  1.00  0.00    -0.232 A  
HETATM    3  C   UNL     1     -10.005  14.105  68.332  1.00  0.00    -0.235 A  
HETATM    4  C   UNL     1      -9.592  16.321  68.100  1.00  0.00    -0.219 A  
HETATM    5  N   UNL     1     -10.406  14.594  67.070  1.00  0.00    -0.261 NA 
HETATM    6  N   UNL     1     -10.241  15.950  66.987  1.00  0.00    -0.276 NA 
ENDROOT
BRANCH   3   7
HETATM    7  C   UNL     1     -10.179  12.731  68.875  1.00  0.00    -0.003 A  
HETATM    8  C   UNL     1     -11.325  12.418  69.634  1.00  0.00    -0.193 A  
HETATM    9  C   UNL     1      -9.448  10.421  69.203  1.00  0.00    -0.220 A  
HETATM   10  C   UNL     1      -9.257  11.696  68.649  1.00  0.00    -0.112 A  
HETATM   11  C   UNL     1     -11.554  11.128  70.128  1.00  0.00    -0.410 A  
HETATM   12 CL   UNL     1     -10.860   8.560  70.562  1.00  0.00    -0.242 Cl 
HETATM   13  C   UNL     1     -10.603  10.136  69.924  1.00  0.00    -0.285 A  
ENDBRANCH   3   7
BRANCH   5  14
HETATM   14  C   UNL     1     -11.017  13.963  65.935  1.00  0.00    -0.284 A  
HETATM   15  C   UNL     1     -11.666  12.725  66.167  1.00  0.00    -0.458 A  
HETATM   16  C   UNL     1     -12.121  12.464  63.820  1.00  0.00    -0.529 A  
HETATM   17  C   UNL     1     -11.541  13.707  63.575  1.00  0.00     0.034 A  
HETATM   18 CL   UNL     1     -10.720  16.138  64.249  1.00  0.00     0.416 Cl 
HETATM   19  C   UNL     1     -11.040  14.484  64.635  1.00  0.00    -0.346 A  
HETATM   20  C   UNL     1     -12.221  11.988  65.119  1.00  0.00    -0.075 A  
HETATM   21 CL   UNL     1     -12.764  11.541  62.519  1.00  0.00     1.057 Cl 
ENDBRANCH   5  14
BRANCH   4  22
HETATM   22  C   UNL     1      -9.124  17.724  68.292  1.00  0.00    -0.281 C  
HETATM   23  O   UNL     1      -9.911  18.661  68.416  1.00  0.00    -0.343 OA 
HETATM   24  N   UNL     1      -7.741  17.826  68.329  1.00  0.00    -0.256 N  
HETATM   25  H   UNL     1      -7.213  16.966  68.176  1.00  0.00     0.000 HD 
BRANCH  24  26
HETATM   26  N   UNL     1      -6.994  18.995  68.555  1.00  0.00    -0.263 NA 
HETATM   27  C   UNL     1      -5.574  18.905  68.226  1.00  0.00    -0.191 C  
HETATM   28  C   UNL     1      -5.243  19.407  66.826  1.00  0.00    -0.164 C  
HETATM   29  C   UNL     1      -5.706  20.849  66.664  1.00  0.00    -0.263 C  
HETATM   30  C   UNL     1      -7.201  20.959  66.939  1.00  0.00    -0.308 C  
HETATM   31  C   UNL     1      -7.624  20.283  68.252  1.00  0.00    -0.106 C  
ENDBRANCH  24  26
ENDBRANCH   4  22
TORSDOF 4
ENDMDL
MODEL      134
REMARK 921   NORMALIZED FREE ENERGY PREDICTED BY IDOCK:   -2.21 KCAL/MOL
REMARK 922        TOTAL FREE ENERGY PREDICTED BY IDOCK:   -3.62 KCAL/MOL
REMARK 923 INTER-LIGAND FREE ENERGY PREDICTED BY IDOCK:   -2.98 KCAL/MOL
REMARK 924 INTRA-LIGAND FREE ENERGY PREDICTED BY IDOCK:   -0.64 KCAL/MOL
REMARK 927      BINDING AFFINITY PREDICTED BY RF-SCORE:    0.00 PKD
ROOT
HETATM    1  C   UNL     1      -9.215   9.481  64.727  1.00  0.00    -0.267 C  
HETATM    2  C   UNL     1      -8.432  10.310  65.688  1.00  0.00    -0.165 A  
HETATM    3  C   UNL     1      -8.677  11.615  66.139  1.00  0.00    -0.094 A  
HETATM    4  C   UNL     1      -7.264   9.859  66.368  1.00  0.00    -0.100 A  
HETATM    5  N   UNL     1      -7.635  11.884  67.052  1.00  0.00    -0.151 NA 
HETATM    6  N   UNL     1      -6.851  10.779  67.251  1.00  0.00    -0.078 NA 
ENDROOT
BRANCH   3   7
HETATM    7  C   UNL     1      -9.828  12.489  65.785  1.00  0.00    -0.244 A  
HETATM    8  C   UNL     1      -9.700  13.422  64.736  1.00  0.00     0.151 A  
HETATM    9  C   UNL     1     -12.122  13.282  66.084  1.00  0.00    -0.477 A  
HETATM   10  C   UNL     1     -11.071  12.419  66.434  1.00  0.00    -0.343 A  
HETATM   11  C   UNL     1     -10.768  14.235  64.336  1.00  0.00    -0.117 A  
HETATM   12 CL   UNL     1     -13.276  15.197  64.565  1.00  0.00     0.970 Cl 
HETATM   13  C   UNL     1     -11.973  14.173  65.025  1.00  0.00    -0.408 A  
ENDBRANCH   3   7
BRANCH   5  14
HETATM   14  C   UNL     1      -7.315  13.034  67.847  1.00  0.00    -0.128 A  
HETATM   15  C   UNL     1      -7.761  14.288  67.362  1.00  0.00    -0.194 A  
HETATM   16  C   UNL     1      -6.639  15.439  69.151  1.00  0.00    -0.133 A  
HETATM   17  C   UNL     1      -6.238  14.215  69.680  1.00  0.00    -0.126 A  
HETATM   18 CL   UNL     1      -6.401  11.589  70.024  1.00  0.00    -0.141 Cl 
HETATM   19  C   UNL     1      -6.621  13.010  69.064  1.00  0.00    -0.105 A  
HETATM   20  C   UNL     1      -7.434  15.479  68.014  1.00  0.00    -0.136 A  
HETATM   21 CL   UNL     1      -6.195  16.904  69.935  1.00  0.00    -0.202 Cl 
ENDBRANCH   5  14
BRANCH   4  22
HETATM   22  C   UNL     1      -6.545   8.561  66.208  1.00  0.00    -0.061 C  
HETATM   23  O   UNL     1      -5.525   8.463  65.529  1.00  0.00    -0.035 OA 
HETATM   24  N   UNL     1      -7.146   7.527  66.911  1.00  0.00    -0.081 N  
HETATM   25  H   UNL     1      -8.011   7.749  67.403  1.00  0.00     0.000 HD 
BRANCH  24  26
HETATM   26  N   UNL     1      -6.680   6.204  67.013  1.00  0.00    -0.059 NA 
HETATM   27  C   UNL     1      -5.591   5.994  67.962  1.00  0.00    -0.008 C  
HETATM   28  C   UNL     1      -6.065   5.543  69.339  1.00  0.00    -0.024 C  
HETATM   29  C   UNL     1      -6.879   4.261  69.217  1.00  0.00    -0.046 C  
HETATM   30  C   UNL     1      -8.062   4.473  68.280  1.00  0.00    -0.083 C  
HETATM   31  C   UNL     1      -7.666   5.122  66.945  1.00  0.00    -0.092 C  
ENDBRANCH  24  26
ENDBRANCH   4  22
TORSDOF 4
ENDMDL
MODEL      135
REMARK 921   NORMALIZED FREE ENERGY PREDICTED BY IDOCK:   -2.07 KCAL/MOL
REMARK 922        TOTAL FREE ENERGY PREDICTED BY IDOCK:   -3.45 KCAL/MOL
REMARK 923 INTER-LIGAND FREE ENERGY PREDICTED BY IDOCK:   -2.33 KCAL/MOL
REMARK 924 INTRA-LIGAND FREE ENERGY PREDICTED BY IDOCK:   -1.12 KCAL/MOL
REMARK 927      BINDING AFFINITY PREDICTED BY RF-SCORE:    0.00 PKD
ROOT
HETATM    1  C   UNL     1      -8.489   5.817  67.037  1.00  0.00    -0.107 C  
HETATM    2  C   UNL     1      -7.811   6.937  67.752  1.00  0.00    -0.113 A  
HETATM    3  C   UNL     1      -7.774   8.301  67.430  1.00  0.00    -0.102 A  
HETATM    4  C   UNL     1      -7.088   6.787  68.970  1.00  0.00    -0.089 A  
HETATM    5  N   UNL     1      -7.016   8.895  68.462  1.00  0.00    -0.064 NA 
HETATM    6  N   UNL     1      -6.696   7.983  69.432  1.00  0.00    -0.039 NA 
ENDROOT
BRANCH   3   7
HETATM    7  C   UNL     1      -8.450   8.977  66.291  1.00  0.00    -0.132 A  
HETATM    8  C   UNL     1      -9.636   9.706  66.513  1.00  0.00    -0.252 A  
HETATM    9  C   UNL     1      -8.635   9.582  63.929  1.00  0.00    -0.226 A  
HETATM   10  C   UNL     1      -7.950   8.951  64.979  1.00  0.00    -0.125 A  
HETATM   11  C   UNL     1     -10.284  10.396  65.481  1.00  0.00    -0.316 A  
HETATM   12 CL   UNL     1     -10.601  11.129  62.907  1.00  0.00    -0.071 Cl 
HETATM   13  C   UNL     1      -9.788  10.317  64.186  1.00  0.00    -0.250 A  
ENDBRANCH   3   7
BRANCH   5  14
HETATM   14  C   UNL     1      -6.613  10.249  68.714  1.00  0.00    -0.052 A  
HETATM   15  C   UNL     1      -6.883  10.765  70.005  1.00  0.00    -0.126 A  
HETATM   16  C   UNL     1      -6.075  12.937  69.364  1.00  0.00    -0.109 A  
HETATM   17  C   UNL     1      -5.746  12.437  68.107  1.00  0.00    -0.063 A  
HETATM   18 CL   UNL     1      -5.155  10.515  66.376  1.00  0.00    -0.045 Cl 
HETATM   19  C   UNL     1      -5.960  11.082  67.797  1.00  0.00    -0.046 A  
HETATM   20  C   UNL     1      -6.607  12.095  70.330  1.00  0.00     0.468 A  
HETATM   21 CL   UNL     1      -5.773  14.588  69.743  1.00  0.00    -0.098 Cl 
ENDBRANCH   5  14
BRANCH   4  22
HETATM   22  C   UNL     1      -6.779   5.531  69.713  1.00  0.00    -0.051 C  
HETATM   23  O   UNL     1      -5.901   4.755  69.341  1.00  0.00    -0.016 OA 
HETATM   24  N   UNL     1      -7.570   5.369  70.842  1.00  0.00    -0.087 N  
HETATM   25  H   UNL     1      -8.284   6.077  71.007  1.00  0.00     0.000 HD 
BRANCH  24  26
HETATM   26  N   UNL     1      -7.483   4.325  71.780  1.00  0.00    -0.067 NA 
HETATM   27  C   UNL     1      -8.453   3.248  71.609  1.00  0.00    -0.065 C  
HETATM   28  C   UNL     1      -7.917   2.071  70.802  1.00  0.00    -0.048 C  
HETATM   29  C   UNL     1      -6.660   1.516  71.459  1.00  0.00    -0.019 C  
HETATM   30  C   UNL     1      -5.606   2.608  71.590  1.00  0.00    -0.008 C  
HETATM   31  C   UNL     1      -6.150   3.900  72.215  1.00  0.00    -0.009 C  
ENDBRANCH  24  26
ENDBRANCH   4  22
TORSDOF 4
ENDMDL
MODEL      136
REMARK 921   NORMALIZED FREE ENERGY PREDICTED BY IDOCK:   -1.95 KCAL/MOL
REMARK 922        TOTAL FREE ENERGY PREDICTED BY IDOCK:   -3.30 KCAL/MOL
REMARK 923 INTER-LIGAND FREE ENERGY PREDICTED BY IDOCK:   -2.58 KCAL/MOL
REMARK 924 INTRA-LIGAND FREE ENERGY PREDICTED BY IDOCK:   -0.72 KCAL/MOL
REMARK 927      BINDING AFFINITY PREDICTED BY RF-SCORE:    0.00 PKD
ROOT
HETATM    1  C   UNL     1      -9.200   8.835  65.078  1.00  0.00     0.045 C  
HETATM    2  C   UNL     1      -9.168   8.292  66.467  1.00  0.00    -0.236 A  
HETATM    3  C   UNL     1      -9.336   6.972  66.909  1.00  0.00    -0.153 A  
HETATM    4  C   UNL     1      -8.903   9.077  67.627  1.00  0.00    -0.124 A  
HETATM    5  N   UNL     1      -9.181   7.037  68.310  1.00  0.00    -0.129 NA 
HETATM    6  N   UNL     1      -8.822   8.295  68.713  1.00  0.00    -0.137 NA 
ENDROOT
BRANCH   3   7
HETATM    7  C   UNL     1      -9.555   5.763  66.070  1.00  0.00    -0.079 A  
HETATM    8  C   UNL     1      -8.550   5.339  65.178  1.00  0.00    -0.151 A  
HETATM    9  C   UNL     1     -10.898   3.866  65.308  1.00  0.00     0.343 A  
HETATM   10  C   UNL     1     -10.723   4.986  66.137  1.00  0.00    -0.264 A  
HETATM   11  C   UNL     1      -8.691   4.183  64.400  1.00  0.00    -0.130 A  
HETATM   12 CL   UNL     1     -10.071   2.060  63.477  1.00  0.00    -0.128 Cl 
HETATM   13  C   UNL     1      -9.876   3.458  64.458  1.00  0.00    -0.164 A  
ENDBRANCH   3   7
BRANCH   5  14
HETATM   14  C   UNL     1      -9.241   6.040  69.340  1.00  0.00    -0.132 A  
HETATM   15  C   UNL     1      -8.114   5.192  69.472  1.00  0.00    -0.083 A  
HETATM   16  C   UNL     1      -9.220   3.897  71.170  1.00  0.00    -0.132 A  
HETATM   17  C   UNL     1     -10.316   4.754  71.100  1.00  0.00    -0.188 A  
HETATM   18 CL   UNL     1     -11.533   7.039  70.525  1.00  0.00    -0.348 Cl 
HETATM   19  C   UNL     1     -10.308   5.857  70.229  1.00  0.00    -0.235 A  
HETATM   20  C   UNL     1      -8.100   4.136  70.386  1.00  0.00    -0.060 A  
HETATM   21 CL   UNL     1      -9.228   2.573  72.267  1.00  0.00    -0.130 Cl 
ENDBRANCH   5  14
BRANCH   4  22
HETATM   22  C   UNL     1      -8.706  10.553  67.718  1.00  0.00    -0.122 C  
HETATM   23  O   UNL     1      -8.933  11.299  66.767  1.00  0.00    -0.161 OA 
HETATM   24  N   UNL     1      -8.266  10.957  68.970  1.00  0.00    -0.244 N  
HETATM   25  H   UNL     1      -8.085  10.221  69.652  1.00  0.00     0.000 HD 
BRANCH  24  26
HETATM   26  N   UNL     1      -8.046  12.280  69.392  1.00  0.00     0.650 NA 
HETATM   27  C   UNL     1      -6.664  12.743  69.306  1.00  0.00    -0.058 C  
HETATM   28  C   UNL     1      -6.354  13.493  68.016  1.00  0.00    -0.136 C  
HETATM   29  C   UNL     1      -7.292  14.683  67.865  1.00  0.00    -0.164 C  
HETATM   30  C   UNL     1      -8.744  14.219  67.886  1.00  0.00    -0.178 C  
HETATM   31  C   UNL     1      -9.061  13.285  69.063  1.00  0.00     0.449 C  
ENDBRANCH  24  26
ENDBRANCH   4  22
TORSDOF 4
ENDMDL
MODEL      137
REMARK 921   NORMALIZED FREE ENERGY PREDICTED BY IDOCK:   -1.85 KCAL/MOL
REMARK 922        TOTAL FREE ENERGY PREDICTED BY IDOCK:   -3.17 KCAL/MOL
REMARK 923 INTER-LIGAND FREE ENERGY PREDICTED BY IDOCK:   -3.26 KCAL/MOL
REMARK 924 INTRA-LIGAND FREE ENERGY PREDICTED BY IDOCK:    0.09 KCAL/MOL
REMARK 927      BINDING AFFINITY PREDICTED BY RF-SCORE:    0.00 PKD
ROOT
HETATM    1  C   UNL     1      -8.786  16.702  65.963  1.00  0.00    -0.239 C  
HETATM    2  C   UNL     1      -8.411  15.551  66.833  1.00  0.00    -0.290 A  
HETATM    3  C   UNL     1      -8.982  14.272  66.909  1.00  0.00    -0.236 A  
HETATM    4  C   UNL     1      -7.318  15.562  67.748  1.00  0.00    -0.156 A  
HETATM    5  N   UNL     1      -8.214  13.590  67.878  1.00  0.00    -0.154 NA 
HETATM    6  N   UNL     1      -7.156  14.350  68.298  1.00  0.00    -0.100 NA 
ENDROOT
BRANCH   3   7
HETATM    7  C   UNL     1     -10.104  13.737  66.092  1.00  0.00    -0.314 A  
HETATM    8  C   UNL     1      -9.829  12.916  64.979  1.00  0.00    -0.067 A  
HETATM    9  C   UNL     1     -12.480  13.482  65.573  1.00  0.00    -0.538 A  
HETATM   10  C   UNL     1     -11.454  13.987  66.387  1.00  0.00    -0.361 A  
HETATM   11  C   UNL     1     -10.852  12.353  64.206  1.00  0.00    -0.395 A  
HETATM   12 CL   UNL     1     -13.436  11.995  63.528  1.00  0.00     0.259 Cl 
HETATM   13  C   UNL     1     -12.177  12.653  64.498  1.00  0.00    -0.443 A  
ENDBRANCH   3   7
BRANCH   5  14
HETATM   14  C   UNL     1      -8.288  12.262  68.413  1.00  0.00    -0.144 A  
HETATM   15  C   UNL     1      -9.260  11.400  67.849  1.00  0.00    -0.164 A  
HETATM   16  C   UNL     1      -8.728   9.673  69.436  1.00  0.00    -0.171 A  
HETATM   17  C   UNL     1      -7.725  10.480  69.969  1.00  0.00     0.105 A  
HETATM   18 CL   UNL     1      -5.965  12.464  69.906  1.00  0.00    -0.136 Cl 
HETATM   19  C   UNL     1      -7.464  11.750  69.424  1.00  0.00     0.206 A  
HETATM   20  C   UNL     1      -9.471  10.114  68.351  1.00  0.00    -0.147 A  
HETATM   21 CL   UNL     1      -9.012   8.107  70.088  1.00  0.00    -0.145 Cl 
ENDBRANCH   5  14
BRANCH   4  22
HETATM   22  C   UNL     1      -6.414  16.697  68.093  1.00  0.00    -0.136 C  
HETATM   23  O   UNL     1      -5.227  16.704  67.771  1.00  0.00    -0.110 OA 
HETATM   24  N   UNL     1      -7.065  17.709  68.783  1.00  0.00    -0.254 N  
HETATM   25  H   UNL     1      -8.046  17.549  69.014  1.00  0.00     0.000 HD 
BRANCH  24  26
HETATM   26  N   UNL     1      -6.508  18.932  69.196  1.00  0.00    -0.279 NA 
HETATM   27  C   UNL     1      -7.450  19.885  69.777  1.00  0.00     0.208 C  
HETATM   28  C   UNL     1      -7.515  19.824  71.298  1.00  0.00     1.613 C  
HETATM   29  C   UNL     1      -6.132  20.060  71.891  1.00  0.00    -0.169 C  
HETATM   30  C   UNL     1      -5.142  19.035  71.349  1.00  0.00    -0.304 C  
HETATM   31  C   UNL     1      -5.183  18.909  69.819  1.00  0.00    -0.200 C  
ENDBRANCH  24  26
ENDBRANCH   4  22
TORSDOF 4
ENDMDL
MODEL      138
REMARK 921   NORMALIZED FREE ENERGY PREDICTED BY IDOCK:   -1.64 KCAL/MOL
REMARK 922        TOTAL FREE ENERGY PREDICTED BY IDOCK:   -2.91 KCAL/MOL
REMARK 923 INTER-LIGAND FREE ENERGY PREDICTED BY IDOCK:   -1.93 KCAL/MOL
REMARK 924 INTRA-LIGAND FREE ENERGY PREDICTED BY IDOCK:   -0.98 KCAL/MOL
REMARK 927      BINDING AFFINITY PREDICTED BY RF-SCORE:    0.00 PKD
ROOT
HETATM    1  C   UNL     1      -8.610   6.217  67.535  1.00  0.00    -0.107 C  
HETATM    2  C   UNL     1      -8.153   7.431  68.272  1.00  0.00    -0.125 A  
HETATM    3  C   UNL     1      -8.013   8.748  67.813  1.00  0.00    -0.106 A  
HETATM    4  C   UNL     1      -7.808   7.444  69.654  1.00  0.00    -0.117 A  
HETATM    5  N   UNL     1      -7.575   9.479  68.938  1.00  0.00    -0.074 NA 
HETATM    6  N   UNL     1      -7.553   8.696  70.061  1.00  0.00    -0.065 NA 
ENDROOT
BRANCH   3   7
HETATM    7  C   UNL     1      -8.331   9.267  66.455  1.00  0.00    -0.126 A  
HETATM    8  C   UNL     1      -9.667   9.556  66.111  1.00  0.00    -0.324 A  
HETATM    9  C   UNL     1      -7.698   9.983  64.204  1.00  0.00    -0.144 A  
HETATM   10  C   UNL     1      -7.350   9.517  65.482  1.00  0.00    -0.094 A  
HETATM   11  C   UNL     1     -10.011  10.088  64.863  1.00  0.00    -0.286 A  
HETATM   12 CL   UNL     1      -9.443  10.901  62.356  1.00  0.00    -0.251 Cl 
HETATM   13  C   UNL     1      -9.022  10.285  63.905  1.00  0.00    -0.237 A  
ENDBRANCH   3   7
BRANCH   5  14
HETATM   14  C   UNL     1      -7.248  10.862  69.129  1.00  0.00    -0.118 A  
HETATM   15  C   UNL     1      -5.871  11.187  69.203  1.00  0.00    -0.042 A  
HETATM   16  C   UNL     1      -6.385  13.487  69.683  1.00  0.00    -0.105 A  
HETATM   17  C   UNL     1      -7.743  13.204  69.555  1.00  0.00     0.777 A  
HETATM   18 CL   UNL     1      -9.823  11.788  68.712  1.00  0.00    -0.150 Cl 
HETATM   19  C   UNL     1      -8.176  11.908  69.223  1.00  0.00     0.519 A  
HETATM   20  C   UNL     1      -5.444  12.490  69.469  1.00  0.00    -0.083 A  
HETATM   21 CL   UNL     1      -5.869  15.085  70.053  1.00  0.00    -0.127 Cl 
ENDBRANCH   5  14
BRANCH   4  22
HETATM   22  C   UNL     1      -7.735   6.292  70.600  1.00  0.00    -0.105 C  
HETATM   23  O   UNL     1      -8.708   5.575  70.825  1.00  0.00    -0.126 OA 
HETATM   24  N   UNL     1      -6.474   6.135  71.155  1.00  0.00    -0.048 N  
HETATM   25  H   UNL     1      -5.771   6.830  70.902  1.00  0.00     0.000 HD 
BRANCH  24  26
HETATM   26  N   UNL     1      -6.067   5.113  72.031  1.00  0.00    -0.025 NA 
HETATM   27  C   UNL     1      -5.898   5.513  73.424  1.00  0.00    -0.028 C  
HETATM   28  C   UNL     1      -7.130   5.254  74.284  1.00  0.00    -0.079 C  
HETATM   29  C   UNL     1      -7.507   3.780  74.227  1.00  0.00    -0.059 C  
HETATM   30  C   UNL     1      -7.753   3.352  72.785  1.00  0.00    -0.060 C  
HETATM   31  C   UNL     1      -6.626   3.773  71.831  1.00  0.00    -0.015 C  
ENDBRANCH  24  26
ENDBRANCH   4  22
TORSDOF 4
ENDMDL
MODEL      139
REMARK 921   NORMALIZED FREE ENERGY PREDICTED BY IDOCK:   -0.80 KCAL/MOL
REMARK 922        TOTAL FREE ENERGY PREDICTED BY IDOCK:   -1.88 KCAL/MOL
REMARK 923 INTER-LIGAND FREE ENERGY PREDICTED BY IDOCK:   -0.78 KCAL/MOL
REMARK 924 INTRA-LIGAND FREE ENERGY PREDICTED BY IDOCK:   -1.09 KCAL/MOL
REMARK 927      BINDING AFFINITY PREDICTED BY RF-SCORE:    0.00 PKD
ROOT
HETATM    1  C   UNL     1      -9.468  15.912  65.050  1.00  0.00     0.945 C  
HETATM    2  C   UNL     1      -9.068  16.420  66.394  1.00  0.00    -0.341 A  
HETATM    3  C   UNL     1      -8.186  17.459  66.725  1.00  0.00    -0.249 A  
HETATM    4  C   UNL     1      -9.586  15.921  67.625  1.00  0.00    -0.221 A  
HETATM    5  N   UNL     1      -8.209  17.517  68.135  1.00  0.00    -0.242 NA 
HETATM    6  N   UNL     1      -9.133  16.650  68.654  1.00  0.00    -0.237 NA 
ENDROOT
BRANCH   3   7
HETATM    7  C   UNL     1      -7.451  18.348  65.787  1.00  0.00    -0.127 A  
HETATM    8  C   UNL     1      -6.436  17.814  64.967  1.00  0.00     0.922 A  
HETATM    9  C   UNL     1      -6.995  20.524  64.769  1.00  0.00    -0.050 A  
HETATM   10  C   UNL     1      -7.733  19.717  65.649  1.00  0.00    -0.135 A  
HETATM   11  C   UNL     1      -5.746  18.602  64.037  1.00  0.00     0.106 A  
HETATM   12 CL   UNL     1      -5.147  20.942  62.841  1.00  0.00    -0.207 Cl 
HETATM   13  C   UNL     1      -6.019  19.962  63.953  1.00  0.00    -0.222 A  
ENDBRANCH   3   7
BRANCH   5  14
HETATM   14  C   UNL     1      -7.529  18.353  69.082  1.00  0.00    -0.105 A  
HETATM   15  C   UNL     1      -6.210  17.976  69.435  1.00  0.00    -0.250 A  
HETATM   16  C   UNL     1      -6.080  19.745  71.058  1.00  0.00    -0.134 A  
HETATM   17  C   UNL     1      -7.353  20.172  70.685  1.00  0.00     0.807 A  
HETATM   18 CL   UNL     1      -9.422  20.373  69.037  1.00  0.00     0.274 Cl 
HETATM   19  C   UNL     1      -8.056  19.515  69.660  1.00  0.00     0.358 A  
HETATM   20  C   UNL     1      -5.489  18.671  70.407  1.00  0.00    -0.236 A  
HETATM   21 CL   UNL     1      -5.215  20.581  72.287  1.00  0.00    -0.069 Cl 
ENDBRANCH   5  14
BRANCH   4  22
HETATM   22  C   UNL     1     -10.520  14.777  67.838  1.00  0.00    -0.246 C  
HETATM   23  O   UNL     1     -11.740  14.932  67.876  1.00  0.00    -0.340 OA 
HETATM   24  N   UNL     1      -9.860  13.564  67.965  1.00  0.00    -0.231 N  
HETATM   25  H   UNL     1      -8.841  13.593  67.950  1.00  0.00     0.000 HD 
BRANCH  24  26
HETATM   26  N   UNL     1     -10.456  12.299  68.114  1.00  0.00    -0.210 NA 
HETATM   27  C   UNL     1      -9.527  11.187  68.297  1.00  0.00    -0.182 C  
HETATM   28  C   UNL     1      -9.282  10.835  69.760  1.00  0.00     0.397 C  
HETATM   29  C   UNL     1     -10.601  10.507  70.447  1.00  0.00     0.027 C  
HETATM   30  C   UNL     1     -11.567  11.680  70.326  1.00  0.00    -0.254 C  
HETATM   31  C   UNL     1     -11.695  12.210  68.891  1.00  0.00    -0.327 C  
ENDBRANCH  24  26
ENDBRANCH   4  22
TORSDOF 4
ENDMDL
MODEL      140
REMARK 921   NORMALIZED FREE ENERGY PREDICTED BY IDOCK:   -0.58 KCAL/MOL
REMARK 922        TOTAL FREE ENERGY PREDICTED BY IDOCK:   -1.61 KCAL/MOL
REMARK 923 INTER-LIGAND FREE ENERGY PREDICTED BY IDOCK:   -0.19 KCAL/MOL
REMARK 924 INTRA-LIGAND FREE ENERGY PREDICTED BY IDOCK:   -1.42 KCAL/MOL
REMARK 927      BINDING AFFINITY PREDICTED BY RF-SCORE:    0.00 PKD
ROOT
HETATM    1  C   UNL     1      -7.647  10.142  66.402  1.00  0.00    -0.108 C  
HETATM    2  C   UNL     1      -8.349  10.884  67.488  1.00  0.00    -0.117 A  
HETATM    3  C   UNL     1      -9.410  11.796  67.397  1.00  0.00    -0.174 A  
HETATM    4  C   UNL     1      -8.058  10.738  68.875  1.00  0.00    -0.145 A  
HETATM    5  N   UNL     1      -9.687  12.163  68.732  1.00  0.00    -0.064 NA 
HETATM    6  N   UNL     1      -8.929  11.439  69.613  1.00  0.00     0.800 NA 
ENDROOT
BRANCH   3   7
HETATM    7  C   UNL     1     -10.129  12.223  66.167  1.00  0.00    -0.265 A  
HETATM    8  C   UNL     1      -9.616  13.279  65.387  1.00  0.00     0.092 A  
HETATM    9  C   UNL     1     -11.963  12.053  64.558  1.00  0.00    -0.350 A  
HETATM   10  C   UNL     1     -11.304  11.601  65.712  1.00  0.00    -0.244 A  
HETATM   11  C   UNL     1     -10.232  13.686  64.198  1.00  0.00     0.342 A  
HETATM   12 CL   UNL     1     -12.199  13.603  62.357  1.00  0.00     2.082 Cl 
HETATM   13  C   UNL     1     -11.417  13.080  63.796  1.00  0.00    -0.429 A  
ENDBRANCH   3   7
BRANCH   5  14
HETATM   14  C   UNL     1     -10.647  13.056  69.313  1.00  0.00     0.150 A  
HETATM   15  C   UNL     1     -10.439  14.441  69.103  1.00  0.00    -0.199 A  
HETATM   16  C   UNL     1     -12.304  14.992  70.517  1.00  0.00    -0.356 A  
HETATM   17  C   UNL     1     -12.565  13.635  70.690  1.00  0.00    -0.366 A  
HETATM   18 CL   UNL     1     -12.440  11.070  70.024  1.00  0.00    -0.346 Cl 
HETATM   19  C   UNL     1     -11.776  12.666  70.046  1.00  0.00    -0.215 A  
HETATM   20  C   UNL     1     -11.265  15.400  69.692  1.00  0.00    -0.289 A  
HETATM   21 CL   UNL     1     -13.300  16.167  71.281  1.00  0.00     0.483 Cl 
ENDBRANCH   5  14
BRANCH   4  22
HETATM   22  C   UNL     1      -6.979   9.928  69.512  1.00  0.00    -0.070 C  
HETATM   23  O   UNL     1      -6.005  10.451  70.051  1.00  0.00    -0.054 OA 
HETATM   24  N   UNL     1      -7.217   8.563  69.433  1.00  0.00    -0.061 N  
HETATM   25  H   UNL     1      -8.050   8.272  68.922  1.00  0.00     0.000 HD 
BRANCH  24  26
HETATM   26  N   UNL     1      -6.424   7.542  69.986  1.00  0.00    -0.034 NA 
HETATM   27  C   UNL     1      -6.996   6.865  71.146  1.00  0.00    -0.069 C  
HETATM   28  C   UNL     1      -7.744   5.585  70.793  1.00  0.00    -0.091 C  
HETATM   29  C   UNL     1      -6.820   4.625  70.054  1.00  0.00    -0.044 C  
HETATM   30  C   UNL     1      -6.259   5.288  68.802  1.00  0.00    -0.030 C  
HETATM   31  C   UNL     1      -5.672   6.682  69.069  1.00  0.00    -0.017 C  
ENDBRANCH  24  26
ENDBRANCH   4  22
TORSDOF 4
ENDMDL
MODEL      141
REMARK 921   NORMALIZED FREE ENERGY PREDICTED BY IDOCK:    0.87 KCAL/MOL
REMARK 922        TOTAL FREE ENERGY PREDICTED BY IDOCK:    0.18 KCAL/MOL
REMARK 923 INTER-LIGAND FREE ENERGY PREDICTED BY IDOCK:    1.16 KCAL/MOL
REMARK 924 INTRA-LIGAND FREE ENERGY PREDICTED BY IDOCK:   -0.98 KCAL/MOL
REMARK 927      BINDING AFFINITY PREDICTED BY RF-SCORE:    0.00 PKD
ROOT
HETATM    1  C   UNL     1      -8.077  14.832  65.785  1.00  0.00     2.756 C  
HETATM    2  C   UNL     1      -7.768  15.487  67.089  1.00  0.00    -0.257 A  
HETATM    3  C   UNL     1      -7.254  16.768  67.339  1.00  0.00    -0.160 A  
HETATM    4  C   UNL     1      -8.002  14.888  68.360  1.00  0.00    -0.134 A  
HETATM    5  N   UNL     1      -7.191  16.862  68.746  1.00  0.00    -0.209 NA 
HETATM    6  N   UNL     1      -7.738  15.759  69.344  1.00  0.00    -0.226 NA 
ENDROOT
BRANCH   3   7
HETATM    7  C   UNL     1      -6.923  17.817  66.338  1.00  0.00    -0.288 A  
HETATM    8  C   UNL     1      -5.631  17.863  65.775  1.00  0.00    -0.216 A  
HETATM    9  C   UNL     1      -7.487  19.760  64.965  1.00  0.00     0.465 A  
HETATM   10  C   UNL     1      -7.851  18.771  65.893  1.00  0.00    -0.101 A  
HETATM   11  C   UNL     1      -5.285  18.803  64.797  1.00  0.00    -0.229 A  
HETATM   12 CL   UNL     1      -5.781  20.943  63.235  1.00  0.00    -0.274 Cl 
HETATM   13  C   UNL     1      -6.213  19.761  64.407  1.00  0.00    -0.194 A  
ENDBRANCH   3   7
BRANCH   5  14
HETATM   14  C   UNL     1      -6.755  17.906  69.629  1.00  0.00    -0.005 A  
HETATM   15  C   UNL     1      -5.599  17.644  70.405  1.00  0.00    -0.219 A  
HETATM   16  C   UNL     1      -5.834  19.740  71.559  1.00  0.00    -0.240 A  
HETATM   17  C   UNL     1      -6.938  20.046  70.767  1.00  0.00     0.388 A  
HETATM   18 CL   UNL     1      -8.473  19.825  68.615  1.00  0.00    -0.285 Cl 
HETATM   19  C   UNL     1      -7.367  19.159  69.764  1.00  0.00     0.215 A  
HETATM   20  C   UNL     1      -5.138  18.558  71.354  1.00  0.00    -0.224 A  
HETATM   21 CL   UNL     1      -5.297  20.852  72.757  1.00  0.00     1.476 Cl 
ENDBRANCH   5  14
BRANCH   4  22
HETATM   22  C   UNL     1      -8.490  13.510  68.656  1.00  0.00    -0.017 C  
HETATM   23  O   UNL     1      -9.689  13.248  68.735  1.00  0.00    -0.114 OA 
HETATM   24  N   UNL     1      -7.456  12.597  68.807  1.00  0.00    -0.236 N  
HETATM   25  H   UNL     1      -6.507  12.965  68.750  1.00  0.00     0.000 HD 
BRANCH  24  26
HETATM   26  N   UNL     1      -7.587  11.215  69.031  1.00  0.00    -0.129 NA 
HETATM   27  C   UNL     1      -8.106  10.444  67.905  1.00  0.00    -0.102 C  
HETATM   28  C   UNL     1      -7.015   9.827  67.038  1.00  0.00    -0.085 C  
HETATM   29  C   UNL     1      -6.116   8.935  67.884  1.00  0.00    -0.051 C  
HETATM   30  C   UNL     1      -5.509   9.734  69.032  1.00  0.00    -0.036 C  
HETATM   31  C   UNL     1      -6.549  10.545  69.819  1.00  0.00    -0.112 C  
ENDBRANCH  24  26
ENDBRANCH   4  22
TORSDOF 4
ENDMDL
MODEL      142
REMARK 921   NORMALIZED FREE ENERGY PREDICTED BY IDOCK:    1.28 KCAL/MOL
REMARK 922        TOTAL FREE ENERGY PREDICTED BY IDOCK:    0.68 KCAL/MOL
REMARK 923 INTER-LIGAND FREE ENERGY PREDICTED BY IDOCK:    0.12 KCAL/MOL
REMARK 924 INTRA-LIGAND FREE ENERGY PREDICTED BY IDOCK:    0.57 KCAL/MOL
REMARK 927      BINDING AFFINITY PREDICTED BY RF-SCORE:    0.00 PKD
ROOT
HETATM    1  C   UNL     1      -9.812   8.901  71.873  1.00  0.00    -0.364 C  
HETATM    2  C   UNL     1      -9.886   8.315  70.503  1.00  0.00    -0.197 A  
HETATM    3  C   UNL     1      -9.829   6.971  70.108  1.00  0.00    -0.175 A  
HETATM    4  C   UNL     1     -10.079   9.079  69.316  1.00  0.00    -0.195 A  
HETATM    5  N   UNL     1      -9.973   7.001  68.704  1.00  0.00    -0.152 NA 
HETATM    6  N   UNL     1     -10.222   8.271  68.257  1.00  0.00    -0.203 NA 
ENDROOT
BRANCH   3   7
HETATM    7  C   UNL     1      -9.716   5.777  70.988  1.00  0.00    -0.213 A  
HETATM    8  C   UNL     1      -8.523   5.544  71.700  1.00  0.00    -0.131 A  
HETATM    9  C   UNL     1     -10.605   3.734  71.995  1.00  0.00     0.135 A  
HETATM   10  C   UNL     1     -10.764   4.862  71.174  1.00  0.00     0.002 A  
HETATM   11  C   UNL     1      -8.384   4.459  72.575  1.00  0.00    -0.109 A  
HETATM   12 CL   UNL     1      -9.246   2.191  73.749  1.00  0.00    -0.077 Cl 
HETATM   13  C   UNL     1      -9.424   3.546  72.706  1.00  0.00    -0.114 A  
ENDBRANCH   3   7
BRANCH   5  14
HETATM   14  C   UNL     1      -9.996   5.968  67.709  1.00  0.00    -0.131 A  
HETATM   15  C   UNL     1      -9.581   4.677  68.121  1.00  0.00    -0.204 A  
HETATM   16  C   UNL     1      -9.786   3.836  65.877  1.00  0.00    -0.076 A  
HETATM   17  C   UNL     1     -10.254   5.080  65.460  1.00  0.00    -0.013 A  
HETATM   18 CL   UNL     1     -11.360   7.464  65.822  1.00  0.00     4.122 Cl 
HETATM   19  C   UNL     1     -10.414   6.130  66.382  1.00  0.00    -0.031 A  
HETATM   20  C   UNL     1      -9.486   3.619  67.214  1.00  0.00    -0.235 A  
HETATM   21 CL   UNL     1      -9.631   2.550  64.746  1.00  0.00    -0.102 Cl 
ENDBRANCH   5  14
BRANCH   4  22
HETATM   22  C   UNL     1     -10.150  10.563  69.173  1.00  0.00    -0.224 C  
HETATM   23  O   UNL     1      -9.138  11.256  69.083  1.00  0.00    -0.044 OA 
HETATM   24  N   UNL     1     -11.453  11.035  69.140  1.00  0.00    -0.273 N  
HETATM   25  H   UNL     1     -12.195  10.346  69.263  1.00  0.00     0.000 HD 
BRANCH  24  26
HETATM   26  N   UNL     1     -11.855  12.370  68.955  1.00  0.00    -0.310 NA 
HETATM   27  C   UNL     1     -11.079  13.365  69.690  1.00  0.00     0.043 C  
HETATM   28  C   UNL     1      -9.948  13.979  68.872  1.00  0.00    -0.103 C  
HETATM   29  C   UNL     1     -10.505  14.612  67.603  1.00  0.00    -0.243 C  
HETATM   30  C   UNL     1     -11.266  13.576  66.785  1.00  0.00    -0.327 C  
HETATM   31  C   UNL     1     -12.283  12.780  67.615  1.00  0.00     0.061 C  
ENDBRANCH  24  26
ENDBRANCH   4  22
TORSDOF 4
ENDMDL
MODEL      143
REMARK 921   NORMALIZED FREE ENERGY PREDICTED BY IDOCK:    1.35 KCAL/MOL
REMARK 922        TOTAL FREE ENERGY PREDICTED BY IDOCK:    0.77 KCAL/MOL
REMARK 923 INTER-LIGAND FREE ENERGY PREDICTED BY IDOCK:    0.70 KCAL/MOL
REMARK 924 INTRA-LIGAND FREE ENERGY PREDICTED BY IDOCK:    0.08 KCAL/MOL
REMARK 927      BINDING AFFINITY PREDICTED BY RF-SCORE:    0.00 PKD
ROOT
HETATM    1  C   UNL     1     -10.262  15.670  65.954  1.00  0.00    -0.372 C  
HETATM    2  C   UNL     1      -9.723  14.827  67.061  1.00  0.00    -0.242 A  
HETATM    3  C   UNL     1      -9.416  13.459  67.066  1.00  0.00    -0.247 A  
HETATM    4  C   UNL     1      -9.378  15.325  68.350  1.00  0.00    -0.194 A  
HETATM    5  N   UNL     1      -8.919  13.205  68.363  1.00  0.00    -0.167 NA 
HETATM    6  N   UNL     1      -8.811  14.361  69.088  1.00  0.00     0.016 NA 
ENDROOT
BRANCH   3   7
HETATM    7  C   UNL     1      -9.522  12.508  65.927  1.00  0.00    -0.111 A  
HETATM    8  C   UNL     1     -10.728  12.416  65.203  1.00  0.00    -0.327 A  
HETATM    9  C   UNL     1      -8.611  10.792  64.443  1.00  0.00    -0.042 A  
HETATM   10  C   UNL     1      -8.457  11.694  65.507  1.00  0.00     0.373 A  
HETATM   11  C   UNL     1     -10.862  11.568  64.096  1.00  0.00    -0.435 A  
HETATM   12 CL   UNL     1      -9.977   9.673  62.397  1.00  0.00     0.723 Cl 
HETATM   13  C   UNL     1      -9.804  10.745  63.730  1.00  0.00    -0.339 A  
ENDBRANCH   3   7
BRANCH   5  14
HETATM   14  C   UNL     1      -8.441  12.014  69.001  1.00  0.00     0.313 A  
HETATM   15  C   UNL     1      -9.340  10.921  69.069  1.00  0.00    -0.144 A  
HETATM   16  C   UNL     1      -7.774   9.644  70.372  1.00  0.00    -0.160 A  
HETATM   17  C   UNL     1      -6.851  10.681  70.269  1.00  0.00    -0.046 A  
HETATM   18 CL   UNL     1      -5.808  12.854  69.161  1.00  0.00    -0.076 Cl 
HETATM   19  C   UNL     1      -7.158  11.842  69.538  1.00  0.00     0.129 A  
HETATM   20  C   UNL     1      -9.005   9.743  69.740  1.00  0.00    -0.239 A  
HETATM   21 CL   UNL     1      -7.371   8.213  71.238  1.00  0.00    -0.066 Cl 
ENDBRANCH   5  14
BRANCH   4  22
HETATM   22  C   UNL     1      -9.559  16.706  68.886  1.00  0.00    -0.252 C  
HETATM   23  O   UNL     1     -10.321  16.946  69.821  1.00  0.00    -0.175 OA 
HETATM   24  N   UNL     1      -8.774  17.642  68.229  1.00  0.00    -0.269 N  
HETATM   25  H   UNL     1      -8.216  17.304  67.445  1.00  0.00     0.000 HD 
BRANCH  24  26
HETATM   26  N   UNL     1      -8.673  19.011  68.535  1.00  0.00    -0.347 NA 
HETATM   27  C   UNL     1      -9.811  19.579  69.252  1.00  0.00    -0.278 C  
HETATM   28  C   UNL     1      -9.624  19.604  70.764  1.00  0.00     1.664 C  
HETATM   29  C   UNL     1      -8.365  20.383  71.123  1.00  0.00     2.044 C  
HETATM   30  C   UNL     1      -7.150  19.770  70.437  1.00  0.00     0.327 C  
HETATM   31  C   UNL     1      -7.362  19.530  68.935  1.00  0.00    -0.363 C  
ENDBRANCH  24  26
ENDBRANCH   4  22
TORSDOF 4
ENDMDL
MODEL      144
REMARK 921   NORMALIZED FREE ENERGY PREDICTED BY IDOCK:    1.36 KCAL/MOL
REMARK 922        TOTAL FREE ENERGY PREDICTED BY IDOCK:    0.78 KCAL/MOL
REMARK 923 INTER-LIGAND FREE ENERGY PREDICTED BY IDOCK:    0.77 KCAL/MOL
REMARK 924 INTRA-LIGAND FREE ENERGY PREDICTED BY IDOCK:    0.02 KCAL/MOL
REMARK 927      BINDING AFFINITY PREDICTED BY RF-SCORE:    0.00 PKD
ROOT
HETATM    1  C   UNL     1      -9.402  14.221  68.107  1.00  0.00    -0.206 C  
HETATM    2  C   UNL     1      -8.693  12.988  67.659  1.00  0.00    -0.189 A  
HETATM    3  C   UNL     1      -9.070  12.051  66.685  1.00  0.00    -0.205 A  
HETATM    4  C   UNL     1      -7.425  12.569  68.154  1.00  0.00    -0.117 A  
HETATM    5  N   UNL     1      -8.017  11.112  66.660  1.00  0.00    -0.155 NA 
HETATM    6  N   UNL     1      -6.990  11.495  67.480  1.00  0.00    -0.094 NA 
ENDROOT
BRANCH   3   7
HETATM    7  C   UNL     1     -10.280  12.088  65.820  1.00  0.00    -0.274 A  
HETATM    8  C   UNL     1     -11.351  12.942  66.152  1.00  0.00    -0.356 A  
HETATM    9  C   UNL     1     -11.580  11.369  63.878  1.00  0.00    -0.154 A  
HETATM   10  C   UNL     1     -10.409  11.322  64.651  1.00  0.00    -0.373 A  
HETATM   11  C   UNL     1     -12.491  13.045  65.346  1.00  0.00    -0.531 A  
HETATM   12 CL   UNL     1     -14.023  12.335  63.245  1.00  0.00     2.281 Cl 
HETATM   13  C   UNL     1     -12.608  12.243  64.217  1.00  0.00    -0.372 A  
ENDBRANCH   3   7
BRANCH   5  14
HETATM   14  C   UNL     1      -7.798   9.921  65.892  1.00  0.00    -0.116 A  
HETATM   15  C   UNL     1      -7.145  10.078  64.645  1.00  0.00    -0.140 A  
HETATM   16  C   UNL     1      -7.432   7.744  64.140  1.00  0.00    -0.105 A  
HETATM   17  C   UNL     1      -8.023   7.554  65.387  1.00  0.00    -0.124 A  
HETATM   18 CL   UNL     1      -8.531   8.179  67.914  1.00  0.00    -0.131 Cl 
HETATM   19  C   UNL     1      -8.156   8.625  66.287  1.00  0.00    -0.103 A  
HETATM   20  C   UNL     1      -6.956   8.997  63.781  1.00  0.00    -0.088 A  
HETATM   21 CL   UNL     1      -7.241   6.417  63.063  1.00  0.00    -0.053 Cl 
ENDBRANCH   5  14
BRANCH   4  22
HETATM   22  C   UNL     1      -6.609  13.184  69.242  1.00  0.00    -0.091 C  
HETATM   23  O   UNL     1      -6.425  12.615  70.317  1.00  0.00     0.032 OA 
HETATM   24  N   UNL     1      -6.094  14.423  68.890  1.00  0.00    -0.084 N  
HETATM   25  H   UNL     1      -6.361  14.788  67.976  1.00  0.00     0.000 HD 
BRANCH  24  26
HETATM   26  N   UNL     1      -5.242  15.226  69.669  1.00  0.00    -0.094 NA 
HETATM   27  C   UNL     1      -5.215  16.641  69.311  1.00  0.00    -0.130 C  
HETATM   28  C   UNL     1      -6.168  17.495  70.139  1.00  0.00     0.096 C  
HETATM   29  C   UNL     1      -5.851  17.345  71.621  1.00  0.00     1.315 C  
HETATM   30  C   UNL     1      -5.936  15.881  72.035  1.00  0.00     1.470 C  
HETATM   31  C   UNL     1      -5.153  14.944  71.104  1.00  0.00    -0.140 C  
ENDBRANCH  24  26
ENDBRANCH   4  22
TORSDOF 4
ENDMDL
MODEL      145
REMARK 921   NORMALIZED FREE ENERGY PREDICTED BY IDOCK:    1.37 KCAL/MOL
REMARK 922        TOTAL FREE ENERGY PREDICTED BY IDOCK:    0.80 KCAL/MOL
REMARK 923 INTER-LIGAND FREE ENERGY PREDICTED BY IDOCK:    0.58 KCAL/MOL
REMARK 924 INTRA-LIGAND FREE ENERGY PREDICTED BY IDOCK:    0.21 KCAL/MOL
REMARK 927      BINDING AFFINITY PREDICTED BY RF-SCORE:    0.00 PKD
ROOT
HETATM    1  C   UNL     1     -10.643  10.373  65.097  1.00  0.00    -0.034 C  
HETATM    2  C   UNL     1      -9.498  10.723  65.987  1.00  0.00    -0.230 A  
HETATM    3  C   UNL     1      -9.358  11.804  66.869  1.00  0.00    -0.192 A  
HETATM    4  C   UNL     1      -8.315   9.939  66.114  1.00  0.00    -0.122 A  
HETATM    5  N   UNL     1      -8.091  11.621  67.465  1.00  0.00    -0.137 NA 
HETATM    6  N   UNL     1      -7.522  10.440  67.071  1.00  0.00    -0.095 NA 
ENDROOT
BRANCH   3   7
HETATM    7  C   UNL     1     -10.359  12.864  67.161  1.00  0.00    -0.239 A  
HETATM    8  C   UNL     1     -10.969  12.920  68.431  1.00  0.00    -0.285 A  
HETATM    9  C   UNL     1     -11.690  14.820  66.542  1.00  0.00    -0.278 A  
HETATM   10  C   UNL     1     -10.721  13.853  66.232  1.00  0.00    -0.285 A  
HETATM   11  C   UNL     1     -11.884  13.925  68.768  1.00  0.00    -0.396 A  
HETATM   12 CL   UNL     1     -13.406  16.078  68.209  1.00  0.00     3.594 Cl 
HETATM   13  C   UNL     1     -12.254  14.864  67.813  1.00  0.00     0.116 A  
ENDBRANCH   3   7
BRANCH   5  14
HETATM   14  C   UNL     1      -7.361  12.377  68.441  1.00  0.00    -0.113 A  
HETATM   15  C   UNL     1      -8.015  13.506  68.993  1.00  0.00     0.199 A  
HETATM   16  C   UNL     1      -6.045  14.107  70.235  1.00  0.00    -0.164 A  
HETATM   17  C   UNL     1      -5.401  12.971  69.752  1.00  0.00    -0.087 A  
HETATM   18 CL   UNL     1      -5.311  10.536  68.703  1.00  0.00    -0.041 Cl 
HETATM   19  C   UNL     1      -6.073  12.075  68.901  1.00  0.00    -0.067 A  
HETATM   20  C   UNL     1      -7.366  14.358  69.889  1.00  0.00     0.182 A  
HETATM   21 CL   UNL     1      -5.224  15.175  71.304  1.00  0.00    -0.133 Cl 
ENDBRANCH   5  14
BRANCH   4  22
HETATM   22  C   UNL     1      -7.934   8.712  65.355  1.00  0.00    -0.111 C  
HETATM   23  O   UNL     1      -7.643   8.750  64.161  1.00  0.00    -0.111 OA 
HETATM   24  N   UNL     1      -7.936   7.573  66.147  1.00  0.00    -0.106 N  
HETATM   25  H   UNL     1      -8.235   7.687  67.115  1.00  0.00     0.000 HD 
BRANCH  24  26
HETATM   26  N   UNL     1      -7.567   6.276  65.746  1.00  0.00    -0.082 NA 
HETATM   27  C   UNL     1      -8.618   5.498  65.097  1.00  0.00    -0.141 C  
HETATM   28  C   UNL     1      -8.581   5.579  63.575  1.00  0.00     0.047 C  
HETATM   29  C   UNL     1      -7.223   5.119  63.060  1.00  0.00    -0.043 C  
HETATM   30  C   UNL     1      -6.111   5.961  63.675  1.00  0.00    -0.025 C  
HETATM   31  C   UNL     1      -6.221   6.082  65.202  1.00  0.00    -0.037 C  
ENDBRANCH  24  26
ENDBRANCH   4  22
TORSDOF 4
ENDMDL
MODEL      146
REMARK 921   NORMALIZED FREE ENERGY PREDICTED BY IDOCK:    1.63 KCAL/MOL
REMARK 922        TOTAL FREE ENERGY PREDICTED BY IDOCK:    1.12 KCAL/MOL
REMARK 923 INTER-LIGAND FREE ENERGY PREDICTED BY IDOCK:    0.73 KCAL/MOL
REMARK 924 INTRA-LIGAND FREE ENERGY PREDICTED BY IDOCK:    0.39 KCAL/MOL
REMARK 927      BINDING AFFINITY PREDICTED BY RF-SCORE:    0.00 PKD
ROOT
HETATM    1  C   UNL     1     -12.239  10.890  67.622  1.00  0.00     1.305 C  
HETATM    2  C   UNL     1     -10.928  11.522  67.948  1.00  0.00    -0.287 A  
HETATM    3  C   UNL     1     -10.396  12.742  67.506  1.00  0.00    -0.219 A  
HETATM    4  C   UNL     1      -9.974  10.966  68.849  1.00  0.00    -0.196 A  
HETATM    5  N   UNL     1      -9.144  12.845  68.150  1.00  0.00    -0.205 NA 
HETATM    6  N   UNL     1      -8.952  11.815  69.031  1.00  0.00     0.152 NA 
ENDROOT
BRANCH   3   7
HETATM    7  C   UNL     1     -11.047  13.738  66.613  1.00  0.00    -0.316 A  
HETATM    8  C   UNL     1     -10.256  14.661  65.900  1.00  0.00    -0.344 A  
HETATM    9  C   UNL     1     -13.010  14.769  65.582  1.00  0.00     0.326 A  
HETATM   10  C   UNL     1     -12.436  13.796  66.415  1.00  0.00    -0.404 A  
HETATM   11  C   UNL     1     -10.818  15.587  65.014  1.00  0.00    -0.468 A  
HETATM   12 CL   UNL     1     -12.899  16.810  63.813  1.00  0.00     4.284 Cl 
HETATM   13  C   UNL     1     -12.200  15.648  64.870  1.00  0.00     0.363 A  
ENDBRANCH   3   7
BRANCH   5  14
HETATM   14  C   UNL     1      -8.116  13.845  68.117  1.00  0.00    -0.150 A  
HETATM   15  C   UNL     1      -8.530  15.191  68.272  1.00  0.00    -0.152 A  
HETATM   16  C   UNL     1      -6.290  15.980  67.900  1.00  0.00    -0.138 A  
HETATM   17  C   UNL     1      -5.848  14.662  67.803  1.00  0.00    -0.099 A  
HETATM   18 CL   UNL     1      -6.014  12.047  68.217  1.00  0.00    -0.049 Cl 
HETATM   19  C   UNL     1      -6.746  13.593  67.967  1.00  0.00    -0.141 A  
HETATM   20  C   UNL     1      -7.623  16.247  68.174  1.00  0.00    -0.151 A  
HETATM   21 CL   UNL     1      -5.173  17.278  67.734  1.00  0.00    -0.111 Cl 
ENDBRANCH   5  14
BRANCH   4  22
HETATM   22  C   UNL     1     -10.025   9.653  69.554  1.00  0.00    -0.209 C  
HETATM   23  O   UNL     1      -9.773   8.596  68.978  1.00  0.00    -0.167 OA 
HETATM   24  N   UNL     1     -10.364   9.777  70.893  1.00  0.00    -0.332 N  
HETATM   25  H   UNL     1     -10.582  10.717  71.226  1.00  0.00     0.000 HD 
BRANCH  24  26
HETATM   26  N   UNL     1     -10.437   8.738  71.838  1.00  0.00    -0.335 NA 
HETATM   27  C   UNL     1     -11.596   7.860  71.713  1.00  0.00    -0.278 C  
HETATM   28  C   UNL     1     -11.320   6.602  70.898  1.00  0.00    -0.377 C  
HETATM   29  C   UNL     1     -10.163   5.824  71.513  1.00  0.00    -0.255 C  
HETATM   30  C   UNL     1      -8.920   6.701  71.595  1.00  0.00    -0.141 C  
HETATM   31  C   UNL     1      -9.191   8.074  72.227  1.00  0.00    -0.182 C  
ENDBRANCH  24  26
ENDBRANCH   4  22
TORSDOF 4
ENDMDL
MODEL      147
REMARK 921   NORMALIZED FREE ENERGY PREDICTED BY IDOCK:    2.31 KCAL/MOL
REMARK 922        TOTAL FREE ENERGY PREDICTED BY IDOCK:    1.95 KCAL/MOL
REMARK 923 INTER-LIGAND FREE ENERGY PREDICTED BY IDOCK:    2.71 KCAL/MOL
REMARK 924 INTRA-LIGAND FREE ENERGY PREDICTED BY IDOCK:   -0.75 KCAL/MOL
REMARK 927      BINDING AFFINITY PREDICTED BY RF-SCORE:    0.00 PKD
ROOT
HETATM    1  C   UNL     1     -11.450  12.854  71.818  1.00  0.00     3.306 C  
HETATM    2  C   UNL     1     -11.620  12.590  70.360  1.00  0.00     0.080 A  
HETATM    3  C   UNL     1     -11.452  13.461  69.274  1.00  0.00    -0.290 A  
HETATM    4  C   UNL     1     -11.961  11.320  69.812  1.00  0.00    -0.360 A  
HETATM    5  N   UNL     1     -11.718  12.673  68.134  1.00  0.00    -0.335 NA 
HETATM    6  N   UNL     1     -11.925  11.363  68.473  1.00  0.00    -0.555 NA 
ENDROOT
BRANCH   3   7
HETATM    7  C   UNL     1     -11.017  14.883  69.319  1.00  0.00    -0.279 A  
HETATM    8  C   UNL     1      -9.652  15.202  69.171  1.00  0.00    -0.232 A  
HETATM    9  C   UNL     1     -11.454  17.279  69.541  1.00  0.00     1.271 A  
HETATM   10  C   UNL     1     -11.912  15.953  69.479  1.00  0.00    -0.274 A  
HETATM   11  C   UNL     1      -9.199  16.526  69.162  1.00  0.00    -0.197 A  
HETATM   12 CL   UNL     1      -9.548  19.189  69.393  1.00  0.00    -0.184 Cl 
HETATM   13  C   UNL     1     -10.103  17.562  69.364  1.00  0.00    -0.053 A  
ENDBRANCH   3   7
BRANCH   5  14
HETATM   14  C   UNL     1     -11.721  12.968  66.730  1.00  0.00    -0.382 A  
HETATM   15  C   UNL     1     -12.544  14.039  66.306  1.00  0.00    -0.352 A  
HETATM   16  C   UNL     1     -12.019  13.601  64.001  1.00  0.00    -0.431 A  
HETATM   17  C   UNL     1     -11.156  12.582  64.397  1.00  0.00    -0.383 A  
HETATM   18 CL   UNL     1      -9.594  11.305  66.120  1.00  0.00    -0.229 Cl 
HETATM   19  C   UNL     1     -10.961  12.300  65.761  1.00  0.00    -0.301 A  
HETATM   20  C   UNL     1     -12.684  14.358  64.953  1.00  0.00    -0.191 A  
HETATM   21 CL   UNL     1     -12.219  13.959  62.330  1.00  0.00     2.298 Cl 
ENDBRANCH   5  14
BRANCH   4  22
HETATM   22  C   UNL     1     -12.301  10.061  70.538  1.00  0.00    -0.200 C  
HETATM   23  O   UNL     1     -13.463   9.752  70.794  1.00  0.00    -0.252 OA 
HETATM   24  N   UNL     1     -11.180   9.309  70.858  1.00  0.00    -0.280 N  
HETATM   25  H   UNL     1     -10.274   9.709  70.614  1.00  0.00     0.000 HD 
BRANCH  24  26
HETATM   26  N   UNL     1     -11.168   8.051  71.485  1.00  0.00    -0.248 NA 
HETATM   27  C   UNL     1     -11.882   7.978  72.757  1.00  0.00    -0.243 C  
HETATM   28  C   UNL     1     -13.318   7.486  72.620  1.00  0.00     0.584 C  
HETATM   29  C   UNL     1     -13.340   6.117  71.952  1.00  0.00     0.613 C  
HETATM   30  C   UNL     1     -12.657   6.181  70.591  1.00  0.00     1.109 C  
HETATM   31  C   UNL     1     -11.281   6.860  70.639  1.00  0.00    -0.301 C  
ENDBRANCH  24  26
ENDBRANCH   4  22
TORSDOF 4
ENDMDL
MODEL      148
REMARK 921   NORMALIZED FREE ENERGY PREDICTED BY IDOCK:    4.51 KCAL/MOL
REMARK 922        TOTAL FREE ENERGY PREDICTED BY IDOCK:    4.67 KCAL/MOL
REMARK 923 INTER-LIGAND FREE ENERGY PREDICTED BY IDOCK:    4.57 KCAL/MOL
REMARK 924 INTRA-LIGAND FREE ENERGY PREDICTED BY IDOCK:    0.10 KCAL/MOL
REMARK 927      BINDING AFFINITY PREDICTED BY RF-SCORE:    0.00 PKD
ROOT
HETATM    1  C   UNL     1      -8.052  14.803  65.834  1.00  0.00     2.203 C  
HETATM    2  C   UNL     1      -7.711  15.531  67.090  1.00  0.00    -0.257 A  
HETATM    3  C   UNL     1      -7.355  16.875  67.269  1.00  0.00    -0.169 A  
HETATM    4  C   UNL     1      -7.739  14.943  68.388  1.00  0.00    -0.115 A  
HETATM    5  N   UNL     1      -7.170  17.018  68.662  1.00  0.00    -0.210 NA 
HETATM    6  N   UNL     1      -7.503  15.869  69.327  1.00  0.00    -0.212 NA 
ENDROOT
BRANCH   3   7
HETATM    7  C   UNL     1      -7.266  17.930  66.224  1.00  0.00    -0.324 A  
HETATM    8  C   UNL     1      -6.061  18.116  65.518  1.00  0.00    -0.243 A  
HETATM    9  C   UNL     1      -8.212  19.755  64.899  1.00  0.00     1.719 A  
HETATM   10  C   UNL     1      -8.348  18.754  65.874  1.00  0.00     0.069 A  
HETATM   11  C   UNL     1      -5.942  19.065  64.496  1.00  0.00    -0.272 A  
HETATM   12 CL   UNL     1      -6.864  21.089  62.973  1.00  0.00     0.082 Cl 
HETATM   13  C   UNL     1      -7.017  19.895  64.201  1.00  0.00     0.996 A  
ENDBRANCH   3   7
BRANCH   5  14
HETATM   14  C   UNL     1      -6.799  18.136  69.481  1.00  0.00    -0.039 A  
HETATM   15  C   UNL     1      -5.645  17.979  70.287  1.00  0.00    -0.237 A  
HETATM   16  C   UNL     1      -5.995  20.131  71.300  1.00  0.00    -0.281 A  
HETATM   17  C   UNL     1      -7.098  20.334  70.475  1.00  0.00     0.564 A  
HETATM   18 CL   UNL     1      -8.586  19.903  68.320  1.00  0.00    -0.309 Cl 
HETATM   19  C   UNL     1      -7.469  19.365  69.526  1.00  0.00    -0.064 A  
HETATM   20  C   UNL     1      -5.242  18.972  71.182  1.00  0.00    -0.290 A  
HETATM   21 CL   UNL     1      -5.530  21.341  72.431  1.00  0.00     0.798 Cl 
ENDBRANCH   5  14
BRANCH   4  22
HETATM   22  C   UNL     1      -8.004  13.520  68.752  1.00  0.00    -0.002 C  
HETATM   23  O   UNL     1      -7.398  12.958  69.662  1.00  0.00     0.349 OA 
HETATM   24  N   UNL     1      -8.996  12.945  67.972  1.00  0.00    -0.190 N  
HETATM   25  H   UNL     1      -9.387  13.522  67.227  1.00  0.00     0.000 HD 
BRANCH  24  26
HETATM   26  N   UNL     1      -9.516  11.645  68.105  1.00  0.00    -0.185 NA 
HETATM   27  C   UNL     1     -10.699  11.528  68.953  1.00  0.00    -0.207 C  
HETATM   28  C   UNL     1     -12.010  11.575  68.176  1.00  0.00    -0.206 C  
HETATM   29  C   UNL     1     -12.035  10.474  67.124  1.00  0.00     1.838 C  
HETATM   30  C   UNL     1     -10.843  10.613  66.184  1.00  0.00    -0.069 C  
HETATM   31  C   UNL     1      -9.507  10.777  66.924  1.00  0.00    -0.168 C  
ENDBRANCH  24  26
ENDBRANCH   4  22
TORSDOF 4
ENDMDL
MODEL      149
REMARK 921   NORMALIZED FREE ENERGY PREDICTED BY IDOCK:    5.09 KCAL/MOL
REMARK 922        TOTAL FREE ENERGY PREDICTED BY IDOCK:    5.38 KCAL/MOL
REMARK 923 INTER-LIGAND FREE ENERGY PREDICTED BY IDOCK:    5.84 KCAL/MOL
REMARK 924 INTRA-LIGAND FREE ENERGY PREDICTED BY IDOCK:   -0.45 KCAL/MOL
REMARK 927      BINDING AFFINITY PREDICTED BY RF-SCORE:    0.00 PKD
ROOT
HETATM    1  C   UNL     1     -13.273  12.769  72.505  1.00  0.00    -0.228 C  
HETATM    2  C   UNL     1     -12.455  12.223  71.384  1.00  0.00    -0.212 A  
HETATM    3  C   UNL     1     -11.647  12.904  70.461  1.00  0.00     0.310 A  
HETATM    4  C   UNL     1     -12.330  10.836  71.086  1.00  0.00    -0.393 A  
HETATM    5  N   UNL     1     -11.094  11.891  69.649  1.00  0.00    -0.110 NA 
HETATM    6  N   UNL     1     -11.438  10.646  70.103  1.00  0.00    -0.306 NA 
ENDROOT
BRANCH   3   7
HETATM    7  C   UNL     1     -11.379  14.366  70.405  1.00  0.00    -0.148 A  
HETATM    8  C   UNL     1     -10.336  14.855  69.594  1.00  0.00    -0.144 A  
HETATM    9  C   UNL     1     -11.835  16.681  71.049  1.00  0.00     0.456 A  
HETATM   10  C   UNL     1     -12.140  15.312  71.111  1.00  0.00    -0.405 A  
HETATM   11  C   UNL     1     -10.073  16.225  69.474  1.00  0.00    -0.221 A  
HETATM   12 CL   UNL     1     -10.473  18.815  70.105  1.00  0.00     1.109 Cl 
HETATM   13  C   UNL     1     -10.816  17.134  70.218  1.00  0.00     0.578 A  
ENDBRANCH   3   7
BRANCH   5  14
HETATM   14  C   UNL     1     -10.197  11.927  68.530  1.00  0.00    -0.215 A  
HETATM   15  C   UNL     1      -8.840  11.616  68.791  1.00  0.00    -0.017 A  
HETATM   16  C   UNL     1      -8.233  12.116  66.518  1.00  0.00     0.064 A  
HETATM   17  C   UNL     1      -9.570  12.369  66.223  1.00  0.00    -0.245 A  
HETATM   18 CL   UNL     1     -12.186  12.175  66.621  1.00  0.00     0.039 Cl 
HETATM   19  C   UNL     1     -10.562  12.220  67.209  1.00  0.00    -0.224 A  
HETATM   20  C   UNL     1      -7.869  11.701  67.791  1.00  0.00    -0.129 A  
HETATM   21 CL   UNL     1      -7.036  12.265  65.292  1.00  0.00     3.634 Cl 
ENDBRANCH   5  14
BRANCH   4  22
HETATM   22  C   UNL     1     -13.026   9.686  71.733  1.00  0.00    -0.420 C  
HETATM   23  O   UNL     1     -14.239   9.514  71.621  1.00  0.00    -0.102 OA 
HETATM   24  N   UNL     1     -12.159   8.860  72.433  1.00  0.00    -0.322 N  
HETATM   25  H   UNL     1     -11.181   9.147  72.470  1.00  0.00     0.000 HD 
BRANCH  24  26
HETATM   26  N   UNL     1     -12.494   7.667  73.098  1.00  0.00     0.579 NA 
HETATM   27  C   UNL     1     -13.216   6.685  72.296  1.00  0.00     0.220 C  
HETATM   28  C   UNL     1     -12.310   5.640  71.656  1.00  0.00     0.926 C  
HETATM   29  C   UNL     1     -11.504   4.918  72.728  1.00  0.00    -0.193 C  
HETATM   30  C   UNL     1     -10.690   5.918  73.540  1.00  0.00    -0.284 C  
HETATM   31  C   UNL     1     -11.521   7.109  74.040  1.00  0.00     2.240 C  
ENDBRANCH  24  26
ENDBRANCH   4  22
TORSDOF 4
ENDMDL
MODEL      150
REMARK 921   NORMALIZED FREE ENERGY PREDICTED BY IDOCK:    5.83 KCAL/MOL
REMARK 922        TOTAL FREE ENERGY PREDICTED BY IDOCK:    6.30 KCAL/MOL
REMARK 923 INTER-LIGAND FREE ENERGY PREDICTED BY IDOCK:    7.42 KCAL/MOL
REMARK 924 INTRA-LIGAND FREE ENERGY PREDICTED BY IDOCK:   -1.11 KCAL/MOL
REMARK 927      BINDING AFFINITY PREDICTED BY RF-SCORE:    0.00 PKD
ROOT
HETATM    1  C   UNL     1      -9.549  16.258  65.189  1.00  0.00     0.736 C  
HETATM    2  C   UNL     1      -9.434  15.340  66.359  1.00  0.00    -0.326 A  
HETATM    3  C   UNL     1      -9.988  14.065  66.546  1.00  0.00    -0.284 A  
HETATM    4  C   UNL     1      -8.660  15.620  67.522  1.00  0.00    -0.172 A  
HETATM    5  N   UNL     1      -9.531  13.656  67.817  1.00  0.00    -0.213 NA 
HETATM    6  N   UNL     1      -8.653  14.563  68.346  1.00  0.00    -0.167 NA 
ENDROOT
BRANCH   3   7
HETATM    7  C   UNL     1     -10.813  13.292  65.580  1.00  0.00    -0.297 A  
HETATM    8  C   UNL     1     -11.872  13.925  64.899  1.00  0.00    -0.401 A  
HETATM    9  C   UNL     1     -11.395  11.242  64.380  1.00  0.00    -0.109 A  
HETATM   10  C   UNL     1     -10.575  11.940  65.280  1.00  0.00    -0.320 A  
HETATM   11  C   UNL     1     -12.648  13.251  63.949  1.00  0.00    -0.211 A  
HETATM   12 CL   UNL     1     -13.390  11.060  62.566  1.00  0.00     2.735 Cl 
HETATM   13  C   UNL     1     -12.415  11.903  63.704  1.00  0.00    -0.470 A  
ENDBRANCH   3   7
BRANCH   5  14
HETATM   14  C   UNL     1      -9.743  12.463  68.585  1.00  0.00    -0.055 A  
HETATM   15  C   UNL     1      -8.864  11.381  68.339  1.00  0.00    -0.167 A  
HETATM   16  C   UNL     1     -10.093   9.967  69.846  1.00  0.00    -0.246 A  
HETATM   17  C   UNL     1     -10.935  11.034  70.150  1.00  0.00    -0.070 A  
HETATM   18 CL   UNL     1     -11.577  13.603  70.318  1.00  0.00    -0.232 Cl 
HETATM   19  C   UNL     1     -10.730  12.297  69.567  1.00  0.00     0.250 A  
HETATM   20  C   UNL     1      -9.032  10.147  68.971  1.00  0.00    -0.168 A  
HETATM   21 CL   UNL     1     -10.333   8.438  70.596  1.00  0.00    -0.214 Cl 
ENDBRANCH   5  14
BRANCH   4  22
HETATM   22  C   UNL     1      -7.910  16.866  67.855  1.00  0.00    -0.175 C  
HETATM   23  O   UNL     1      -6.803  17.106  67.378  1.00  0.00    -0.140 OA 
HETATM   24  N   UNL     1      -8.606  17.693  68.726  1.00  0.00    -0.246 N  
HETATM   25  H   UNL     1      -9.502  17.346  69.069  1.00  0.00     0.000 HD 
BRANCH  24  26
HETATM   26  N   UNL     1      -8.200  18.960  69.181  1.00  0.00    -0.131 NA 
HETATM   27  C   UNL     1      -8.876  20.094  68.559  1.00  0.00     0.101 C  
HETATM   28  C   UNL     1     -10.073  20.600  69.357  1.00  0.00     0.465 C  
HETATM   29  C   UNL     1      -9.638  20.984  70.765  1.00  0.00     2.560 C  
HETATM   30  C   UNL     1      -8.986  19.794  71.461  1.00  0.00     3.058 C  
HETATM   31  C   UNL     1      -7.905  19.115  70.608  1.00  0.00     2.325 C  
ENDBRANCH  24  26
ENDBRANCH   4  22
TORSDOF 4
ENDMDL
MODEL      151
REMARK 921   NORMALIZED FREE ENERGY PREDICTED BY IDOCK:    6.14 KCAL/MOL
REMARK 922        TOTAL FREE ENERGY PREDICTED BY IDOCK:    6.69 KCAL/MOL
REMARK 923 INTER-LIGAND FREE ENERGY PREDICTED BY IDOCK:    7.55 KCAL/MOL
REMARK 924 INTRA-LIGAND FREE ENERGY PREDICTED BY IDOCK:   -0.86 KCAL/MOL
REMARK 927      BINDING AFFINITY PREDICTED BY RF-SCORE:    0.00 PKD
ROOT
HETATM    1  C   UNL     1     -10.848  11.413  71.384  1.00  0.00     3.971 C  
HETATM    2  C   UNL     1     -10.433  12.200  70.188  1.00  0.00     1.776 A  
HETATM    3  C   UNL     1     -10.797  13.501  69.810  1.00  0.00     0.317 A  
HETATM    4  C   UNL     1      -9.510  11.736  69.206  1.00  0.00     0.526 A  
HETATM    5  N   UNL     1     -10.088  13.741  68.613  1.00  0.00    -0.222 NA 
HETATM    6  N   UNL     1      -9.243  12.705  68.319  1.00  0.00    -0.201 NA 
ENDROOT
BRANCH   3   7
HETATM    7  C   UNL     1     -11.678  14.441  70.553  1.00  0.00    -0.328 A  
HETATM    8  C   UNL     1     -11.133  15.266  71.557  1.00  0.00    -0.272 A  
HETATM    9  C   UNL     1     -13.850  15.458  71.030  1.00  0.00    -0.361 A  
HETATM   10  C   UNL     1     -13.051  14.576  70.287  1.00  0.00    -0.027 A  
HETATM   11  C   UNL     1     -11.913  16.198  72.253  1.00  0.00    -0.637 A  
HETATM   12 CL   UNL     1     -14.248  17.393  72.875  1.00  0.00     4.667 Cl 
HETATM   13  C   UNL     1     -13.277  16.278  71.996  1.00  0.00     0.522 A  
ENDBRANCH   3   7
BRANCH   5  14
HETATM   14  C   UNL     1     -10.029  14.871  67.731  1.00  0.00    -0.222 A  
HETATM   15  C   UNL     1      -9.691  16.117  68.314  1.00  0.00    -0.220 A  
HETATM   16  C   UNL     1     -10.036  17.250  66.222  1.00  0.00    -0.316 A  
HETATM   17  C   UNL     1     -10.314  16.029  65.613  1.00  0.00    -0.414 A  
HETATM   18 CL   UNL     1     -10.229  13.385  65.405  1.00  0.00    -0.316 Cl 
HETATM   19  C   UNL     1     -10.256  14.833  66.350  1.00  0.00    -0.291 A  
HETATM   20  C   UNL     1      -9.685  17.294  67.563  1.00  0.00    -0.264 A  
HETATM   21 CL   UNL     1     -10.074  18.702  65.299  1.00  0.00     0.768 Cl 
ENDBRANCH   5  14
BRANCH   4  22
HETATM   22  C   UNL     1      -8.864  10.395  69.107  1.00  0.00    -0.172 C  
HETATM   23  O   UNL     1      -9.078   9.508  69.930  1.00  0.00    -0.182 OA 
HETATM   24  N   UNL     1      -8.036  10.281  67.999  1.00  0.00    -0.105 N  
HETATM   25  H   UNL     1      -7.926  11.114  67.421  1.00  0.00     0.000 HD 
BRANCH  24  26
HETATM   26  N   UNL     1      -7.335   9.132  67.594  1.00  0.00    -0.087 NA 
HETATM   27  C   UNL     1      -8.083   8.207  66.748  1.00  0.00    -0.103 C  
HETATM   28  C   UNL     1      -7.851   8.424  65.257  1.00  0.00    -0.111 C  
HETATM   29  C   UNL     1      -6.367   8.308  64.937  1.00  0.00    -0.052 C  
HETATM   30  C   UNL     1      -5.568   9.311  65.762  1.00  0.00    -0.045 C  
HETATM   31  C   UNL     1      -5.916   9.275  67.257  1.00  0.00    -0.049 C  
ENDBRANCH  24  26
ENDBRANCH   4  22
TORSDOF 4
ENDMDL
MODEL      152
REMARK 921   NORMALIZED FREE ENERGY PREDICTED BY IDOCK:    7.07 KCAL/MOL
REMARK 922        TOTAL FREE ENERGY PREDICTED BY IDOCK:    7.84 KCAL/MOL
REMARK 923 INTER-LIGAND FREE ENERGY PREDICTED BY IDOCK:    7.65 KCAL/MOL
REMARK 924 INTRA-LIGAND FREE ENERGY PREDICTED BY IDOCK:    0.19 KCAL/MOL
REMARK 927      BINDING AFFINITY PREDICTED BY RF-SCORE:    0.00 PKD
ROOT
HETATM    1  C   UNL     1     -10.751  12.136  71.811  1.00  0.00     8.222 C  
HETATM    2  C   UNL     1     -10.830  11.591  70.425  1.00  0.00     1.017 A  
HETATM    3  C   UNL     1     -11.037  12.270  69.215  1.00  0.00    -0.158 A  
HETATM    4  C   UNL     1     -10.656  10.216  70.094  1.00  0.00    -0.281 A  
HETATM    5  N   UNL     1     -10.994  11.264  68.225  1.00  0.00    -0.205 NA 
HETATM    6  N   UNL     1     -10.664  10.050  68.765  1.00  0.00    -0.215 NA 
ENDROOT
BRANCH   3   7
HETATM    7  C   UNL     1     -11.193  13.736  69.020  1.00  0.00    -0.313 A  
HETATM    8  C   UNL     1     -11.757  14.522  70.045  1.00  0.00    -0.359 A  
HETATM    9  C   UNL     1     -10.968  15.784  67.703  1.00  0.00    -0.302 A  
HETATM   10  C   UNL     1     -10.777  14.402  67.855  1.00  0.00    -0.246 A  
HETATM   11  C   UNL     1     -11.884  15.911  69.925  1.00  0.00    -0.309 A  
HETATM   12 CL   UNL     1     -11.692  18.237  68.577  1.00  0.00     2.086 Cl 
HETATM   13  C   UNL     1     -11.502  16.537  68.744  1.00  0.00    -0.143 A  
ENDBRANCH   3   7
BRANCH   5  14
HETATM   14  C   UNL     1     -11.137  11.301  66.798  1.00  0.00    -0.250 A  
HETATM   15  C   UNL     1     -12.220  12.057  66.286  1.00  0.00     0.383 A  
HETATM   16  C   UNL     1     -11.716  11.360  64.041  1.00  0.00     0.035 A  
HETATM   17  C   UNL     1     -10.610  10.658  64.514  1.00  0.00    -0.145 A  
HETATM   18 CL   UNL     1      -8.698  10.106  66.269  1.00  0.00    -0.147 Cl 
HETATM   19  C   UNL     1     -10.284  10.672  65.882  1.00  0.00    -0.251 A  
HETATM   20  C   UNL     1     -12.501  12.094  64.919  1.00  0.00    -0.185 A  
HETATM   21 CL   UNL     1     -12.080  11.365  62.360  1.00  0.00     1.457 Cl 
ENDBRANCH   5  14
BRANCH   4  22
HETATM   22  C   UNL     1     -10.461   9.062  71.019  1.00  0.00    -0.269 C  
HETATM   23  O   UNL     1     -11.394   8.334  71.354  1.00  0.00    -0.247 OA 
HETATM   24  N   UNL     1      -9.142   8.914  71.420  1.00  0.00    -0.247 N  
HETATM   25  H   UNL     1      -8.480   9.616  71.090  1.00  0.00     0.000 HD 
BRANCH  24  26
HETATM   26  N   UNL     1      -8.625   7.892  72.237  1.00  0.00    -0.132 NA 
HETATM   27  C   UNL     1      -9.175   7.833  73.588  1.00  0.00    -0.284 C  
HETATM   28  C   UNL     1     -10.334   6.854  73.730  1.00  0.00    -0.409 C  
HETATM   29  C   UNL     1      -9.896   5.459  73.304  1.00  0.00    -0.177 C  
HETATM   30  C   UNL     1      -9.378   5.481  71.871  1.00  0.00    -0.163 C  
HETATM   31  C   UNL     1      -8.348   6.592  71.619  1.00  0.00    -0.115 C  
ENDBRANCH  24  26
ENDBRANCH   4  22
TORSDOF 4
ENDMDL
MODEL      153
REMARK 921   NORMALIZED FREE ENERGY PREDICTED BY IDOCK:   13.17 KCAL/MOL
REMARK 922        TOTAL FREE ENERGY PREDICTED BY IDOCK:   15.36 KCAL/MOL
REMARK 923 INTER-LIGAND FREE ENERGY PREDICTED BY IDOCK:   15.99 KCAL/MOL
REMARK 924 INTRA-LIGAND FREE ENERGY PREDICTED BY IDOCK:   -0.63 KCAL/MOL
REMARK 927      BINDING AFFINITY PREDICTED BY RF-SCORE:    0.00 PKD
ROOT
HETATM    1  C   UNL     1      -8.804  14.992  63.953  1.00  0.00    10.818 C  
HETATM    2  C   UNL     1      -9.572  14.557  65.155  1.00  0.00     0.221 A  
HETATM    3  C   UNL     1      -9.540  13.330  65.832  1.00  0.00    -0.106 A  
HETATM    4  C   UNL     1     -10.481  15.390  65.868  1.00  0.00    -0.340 A  
HETATM    5  N   UNL     1     -10.445  13.485  66.905  1.00  0.00    -0.269 NA 
HETATM    6  N   UNL     1     -10.926  14.765  66.967  1.00  0.00    -0.316 NA 
ENDROOT
BRANCH   3   7
HETATM    7  C   UNL     1      -8.683  12.153  65.525  1.00  0.00     0.576 A  
HETATM    8  C   UNL     1      -7.370  12.093  66.034  1.00  0.00     1.227 A  
HETATM    9  C   UNL     1      -8.274   9.983  64.475  1.00  0.00    -0.164 A  
HETATM   10  C   UNL     1      -9.126  11.062  64.761  1.00  0.00    -0.154 A  
HETATM   11  C   UNL     1      -6.541  10.987  65.810  1.00  0.00     0.073 A  
HETATM   12 CL   UNL     1      -5.965   8.598  64.703  1.00  0.00    -0.064 Cl 
HETATM   13  C   UNL     1      -6.993   9.941  65.014  1.00  0.00    -0.130 A  
ENDBRANCH   3   7
BRANCH   5  14
HETATM   14  C   UNL     1     -10.865  12.603  67.955  1.00  0.00    -0.219 A  
HETATM   15  C   UNL     1      -9.878  11.745  68.499  1.00  0.00    -0.192 A  
HETATM   16  C   UNL     1     -11.511  10.663  69.894  1.00  0.00    -0.317 A  
HETATM   17  C   UNL     1     -12.487  11.536  69.417  1.00  0.00    -0.003 A  
HETATM   18 CL   UNL     1     -13.347  13.780  68.294  1.00  0.00     3.400 Cl 
HETATM   19  C   UNL     1     -12.157  12.542  68.492  1.00  0.00    -0.080 A  
HETATM   20  C   UNL     1     -10.197  10.790  69.467  1.00  0.00    -0.146 A  
HETATM   21 CL   UNL     1     -11.921   9.461  71.054  1.00  0.00    -0.370 Cl 
ENDBRANCH   5  14
BRANCH   4  22
HETATM   22  C   UNL     1     -10.920  16.777  65.534  1.00  0.00    -0.031 C  
HETATM   23  O   UNL     1     -11.903  16.995  64.828  1.00  0.00     0.226 OA 
HETATM   24  N   UNL     1     -10.117  17.747  66.115  1.00  0.00    -0.328 N  
HETATM   25  H   UNL     1      -9.312  17.417  66.648  1.00  0.00     0.000 HD 
BRANCH  24  26
HETATM   26  N   UNL     1     -10.301  19.139  66.043  1.00  0.00    -0.468 NA 
HETATM   27  C   UNL     1     -11.610  19.621  66.472  1.00  0.00     1.092 C  
HETATM   28  C   UNL     1     -11.646  20.064  67.930  1.00  0.00     1.455 C  
HETATM   29  C   UNL     1     -10.607  21.150  68.172  1.00  0.00     1.208 C  
HETATM   30  C   UNL     1      -9.218  20.649  67.792  1.00  0.00    -0.247 C  
HETATM   31  C   UNL     1      -9.171  20.001  66.401  1.00  0.00    -0.356 C  
ENDBRANCH  24  26
ENDBRANCH   4  22
TORSDOF 4
ENDMDL
MODEL      154
REMARK 921   NORMALIZED FREE ENERGY PREDICTED BY IDOCK:   13.21 KCAL/MOL
REMARK 922        TOTAL FREE ENERGY PREDICTED BY IDOCK:   15.41 KCAL/MOL
REMARK 923 INTER-LIGAND FREE ENERGY PREDICTED BY IDOCK:   12.30 KCAL/MOL
REMARK 924 INTRA-LIGAND FREE ENERGY PREDICTED BY IDOCK:    3.11 KCAL/MOL
REMARK 927      BINDING AFFINITY PREDICTED BY RF-SCORE:    0.00 PKD
ROOT
HETATM    1  C   UNL     1     -11.846  10.068  71.027  1.00  0.00    -0.476 C  
HETATM    2  C   UNL     1     -11.337   9.005  70.113  1.00  0.00    -0.139 A  
HETATM    3  C   UNL     1     -11.330   8.968  68.711  1.00  0.00     0.496 A  
HETATM    4  C   UNL     1     -10.701   7.808  70.553  1.00  0.00    -0.236 A  
HETATM    5  N   UNL     1     -10.708   7.744  68.384  1.00  0.00    -0.101 NA 
HETATM    6  N   UNL     1     -10.247   7.107  69.505  1.00  0.00    -0.190 NA 
ENDROOT
BRANCH   3   7
HETATM    7  C   UNL     1     -11.809  10.025  67.780  1.00  0.00     1.464 A  
HETATM    8  C   UNL     1     -11.401  10.006  66.431  1.00  0.00     0.978 A  
HETATM    9  C   UNL     1     -13.092  12.042  67.264  1.00  0.00     4.853 A  
HETATM   10  C   UNL     1     -12.686  11.050  68.171  1.00  0.00     2.567 A  
HETATM   11  C   UNL     1     -11.860  10.953  65.507  1.00  0.00     1.535 A  
HETATM   12 CL   UNL     1     -13.229  13.168  64.811  1.00  0.00     0.010 Cl 
HETATM   13  C   UNL     1     -12.694  11.980  65.933  1.00  0.00     1.853 A  
ENDBRANCH   3   7
BRANCH   5  14
HETATM   14  C   UNL     1     -10.402   7.116  67.132  1.00  0.00    -0.289 A  
HETATM   15  C   UNL     1     -10.924   5.815  66.927  1.00  0.00    -0.242 A  
HETATM   16  C   UNL     1      -9.773   5.626  64.824  1.00  0.00     0.941 A  
HETATM   17  C   UNL     1      -9.297   6.926  64.975  1.00  0.00     1.028 A  
HETATM   18 CL   UNL     1      -9.332   9.387  65.966  1.00  0.00    -0.255 Cl 
HETATM   19  C   UNL     1      -9.655   7.694  66.097  1.00  0.00    -0.006 A  
HETATM   20  C   UNL     1     -10.619   5.080  65.779  1.00  0.00    -0.158 A  
HETATM   21 CL   UNL     1      -9.359   4.712  63.428  1.00  0.00    -0.053 Cl 
ENDBRANCH   5  14
BRANCH   4  22
HETATM   22  C   UNL     1     -10.500   7.329  71.951  1.00  0.00    -0.200 C  
HETATM   23  O   UNL     1     -11.412   6.820  72.601  1.00  0.00    -0.247 OA 
HETATM   24  N   UNL     1      -9.200   7.512  72.398  1.00  0.00    -0.141 N  
HETATM   25  H   UNL     1      -8.558   7.983  71.760  1.00  0.00     0.000 HD 
BRANCH  24  26
HETATM   26  N   UNL     1      -8.678   7.113  73.641  1.00  0.00    -0.148 NA 
HETATM   27  C   UNL     1      -9.459   6.105  74.353  1.00  0.00    -0.197 C  
HETATM   28  C   UNL     1      -8.976   4.680  74.109  1.00  0.00    -0.108 C  
HETATM   29  C   UNL     1      -7.510   4.550  74.502  1.00  0.00    -0.080 C  
HETATM   30  C   UNL     1      -6.663   5.550  73.723  1.00  0.00    -0.079 C  
HETATM   31  C   UNL     1      -7.225   6.979  73.766  1.00  0.00    -0.079 C  
ENDBRANCH  24  26
ENDBRANCH   4  22
TORSDOF 4
ENDMDL
MODEL      155
REMARK 921   NORMALIZED FREE ENERGY PREDICTED BY IDOCK:   13.94 KCAL/MOL
REMARK 922        TOTAL FREE ENERGY PREDICTED BY IDOCK:   16.30 KCAL/MOL
REMARK 923 INTER-LIGAND FREE ENERGY PREDICTED BY IDOCK:   15.50 KCAL/MOL
REMARK 924 INTRA-LIGAND FREE ENERGY PREDICTED BY IDOCK:    0.80 KCAL/MOL
REMARK 927      BINDING AFFINITY PREDICTED BY RF-SCORE:    0.00 PKD
ROOT
HETATM    1  C   UNL     1      -9.499  14.771  68.267  1.00  0.00    -0.207 C  
HETATM    2  C   UNL     1      -8.591  13.619  67.999  1.00  0.00    -0.175 A  
HETATM    3  C   UNL     1      -8.719  12.588  67.057  1.00  0.00    -0.205 A  
HETATM    4  C   UNL     1      -7.356  13.399  68.675  1.00  0.00    -0.106 A  
HETATM    5  N   UNL     1      -7.564  11.795  67.229  1.00  0.00    -0.142 NA 
HETATM    6  N   UNL     1      -6.708  12.356  68.138  1.00  0.00    -0.068 NA 
ENDROOT
BRANCH   3   7
HETATM    7  C   UNL     1      -9.802  12.416  66.051  1.00  0.00    -0.268 A  
HETATM    8  C   UNL     1     -10.724  11.359  66.189  1.00  0.00    -0.320 A  
HETATM    9  C   UNL     1     -10.997  13.068  64.020  1.00  0.00    -0.422 A  
HETATM   10  C   UNL     1      -9.977  13.283  64.960  1.00  0.00    -0.168 A  
HETATM   11  C   UNL     1     -11.785  11.184  65.293  1.00  0.00     0.625 A  
HETATM   12 CL   UNL     1     -13.187  11.797  63.074  1.00  0.00     0.177 Cl 
HETATM   13  C   UNL     1     -11.908  12.032  64.199  1.00  0.00    -0.373 A  
ENDBRANCH   3   7
BRANCH   5  14
HETATM   14  C   UNL     1      -7.101  10.602  66.581  1.00  0.00    -0.124 A  
HETATM   15  C   UNL     1      -6.589   9.580  67.417  1.00  0.00    -0.070 A  
HETATM   16  C   UNL     1      -5.971   8.254  65.509  1.00  0.00    -0.045 A  
HETATM   17  C   UNL     1      -6.523   9.218  64.668  1.00  0.00    -0.077 A  
HETATM   18 CL   UNL     1      -8.114  11.261  64.090  1.00  0.00     0.620 Cl 
HETATM   19  C   UNL     1      -7.138  10.364  65.201  1.00  0.00    -0.080 A  
HETATM   20  C   UNL     1      -6.037   8.413  66.886  1.00  0.00    -0.054 A  
HETATM   21 CL   UNL     1      -5.254   6.839  64.845  1.00  0.00    -0.026 Cl 
ENDBRANCH   5  14
BRANCH   4  22
HETATM   22  C   UNL     1      -6.772  14.176  69.807  1.00  0.00    -0.065 C  
HETATM   23  O   UNL     1      -5.561  14.205  70.018  1.00  0.00    -0.101 OA 
HETATM   24  N   UNL     1      -7.734  14.845  70.549  1.00  0.00     0.155 N  
HETATM   25  H   UNL     1      -8.706  14.699  70.279  1.00  0.00     0.000 HD 
BRANCH  24  26
HETATM   26  N   UNL     1      -7.502  15.706  71.637  1.00  0.00     3.868 NA 
HETATM   27  C   UNL     1      -7.455  15.061  72.946  1.00  0.00     6.080 C  
HETATM   28  C   UNL     1      -6.043  14.708  73.399  1.00  0.00     0.610 C  
HETATM   29  C   UNL     1      -5.174  15.959  73.423  1.00  0.00     2.423 C  
HETATM   30  C   UNL     1      -5.154  16.616  72.048  1.00  0.00     0.747 C  
HETATM   31  C   UNL     1      -6.556  16.809  71.451  1.00  0.00     3.296 C  
ENDBRANCH  24  26
ENDBRANCH   4  22
TORSDOF 4
ENDMDL
MODEL      156
REMARK 921   NORMALIZED FREE ENERGY PREDICTED BY IDOCK:   14.67 KCAL/MOL
REMARK 922        TOTAL FREE ENERGY PREDICTED BY IDOCK:   17.20 KCAL/MOL
REMARK 923 INTER-LIGAND FREE ENERGY PREDICTED BY IDOCK:   18.24 KCAL/MOL
REMARK 924 INTRA-LIGAND FREE ENERGY PREDICTED BY IDOCK:   -1.03 KCAL/MOL
REMARK 927      BINDING AFFINITY PREDICTED BY RF-SCORE:    0.00 PKD
ROOT
HETATM    1  C   UNL     1      -9.870  14.873  68.446  1.00  0.00    -0.216 C  
HETATM    2  C   UNL     1      -9.310  13.511  68.683  1.00  0.00    -0.036 A  
HETATM    3  C   UNL     1      -9.632  12.298  68.059  1.00  0.00    -0.206 A  
HETATM    4  C   UNL     1      -8.267  13.226  69.611  1.00  0.00     1.488 A  
HETATM    5  N   UNL     1      -8.778  11.346  68.657  1.00  0.00    -0.149 NA 
HETATM    6  N   UNL     1      -7.895  11.941  69.517  1.00  0.00     0.512 NA 
ENDROOT
BRANCH   3   7
HETATM    7  C   UNL     1     -10.608  12.083  66.957  1.00  0.00    -0.258 A  
HETATM    8  C   UNL     1     -11.839  11.450  67.225  1.00  0.00     0.032 A  
HETATM    9  C   UNL     1     -11.318  12.261  64.624  1.00  0.00    -0.375 A  
HETATM   10  C   UNL     1     -10.380  12.508  65.638  1.00  0.00    -0.294 A  
HETATM   11  C   UNL     1     -12.807  11.265  66.231  1.00  0.00     5.305 A  
HETATM   12 CL   UNL     1     -13.705  11.399  63.693  1.00  0.00     1.192 Cl 
HETATM   13  C   UNL     1     -12.535  11.659  64.926  1.00  0.00     0.772 A  
ENDBRANCH   3   7
BRANCH   5  14
HETATM   14  C   UNL     1      -8.615   9.934  68.464  1.00  0.00    -0.117 A  
HETATM   15  C   UNL     1      -9.738   9.118  68.746  1.00  0.00    -0.167 A  
HETATM   16  C   UNL     1      -8.461   7.123  68.332  1.00  0.00    -0.124 A  
HETATM   17  C   UNL     1      -7.360   7.906  67.993  1.00  0.00    -0.096 A  
HETATM   18 CL   UNL     1      -6.165  10.135  67.192  1.00  0.00    -0.061 Cl 
HETATM   19  C   UNL     1      -7.449   9.309  68.002  1.00  0.00    -0.083 A  
HETATM   20  C   UNL     1      -9.664   7.725  68.671  1.00  0.00    -0.159 A  
HETATM   21 CL   UNL     1      -8.348   5.408  68.280  1.00  0.00    -0.098 Cl 
ENDBRANCH   5  14
BRANCH   4  22
HETATM   22  C   UNL     1      -7.604  14.156  70.570  1.00  0.00     1.596 C  
HETATM   23  O   UNL     1      -8.227  14.711  71.473  1.00  0.00     3.079 OA 
HETATM   24  N   UNL     1      -6.244  14.292  70.330  1.00  0.00    -0.198 N  
HETATM   25  H   UNL     1      -5.870  13.797  69.521  1.00  0.00     0.000 HD 
BRANCH  24  26
HETATM   26  N   UNL     1      -5.332  15.045  71.090  1.00  0.00    -0.127 NA 
HETATM   27  C   UNL     1      -5.146  16.426  70.657  1.00  0.00    -0.207 C  
HETATM   28  C   UNL     1      -6.024  17.422  71.406  1.00  0.00     1.397 C  
HETATM   29  C   UNL     1      -5.764  17.325  72.904  1.00  0.00     3.299 C  
HETATM   30  C   UNL     1      -6.015  15.904  73.394  1.00  0.00     2.539 C  
HETATM   31  C   UNL     1      -5.311  14.839  72.541  1.00  0.00    -0.001 C  
ENDBRANCH  24  26
ENDBRANCH   4  22
TORSDOF 4
ENDMDL
MODEL      157
REMARK 921   NORMALIZED FREE ENERGY PREDICTED BY IDOCK:   20.56 KCAL/MOL
REMARK 922        TOTAL FREE ENERGY PREDICTED BY IDOCK:   24.47 KCAL/MOL
REMARK 923 INTER-LIGAND FREE ENERGY PREDICTED BY IDOCK:   22.18 KCAL/MOL
REMARK 924 INTRA-LIGAND FREE ENERGY PREDICTED BY IDOCK:    2.29 KCAL/MOL
REMARK 927      BINDING AFFINITY PREDICTED BY RF-SCORE:    0.00 PKD
ROOT
HETATM    1  C   UNL     1      -8.200  13.007  67.109  1.00  0.00    -0.132 C  
HETATM    2  C   UNL     1      -7.805  13.858  68.268  1.00  0.00    -0.146 A  
HETATM    3  C   UNL     1      -7.523  15.232  68.305  1.00  0.00    -0.112 A  
HETATM    4  C   UNL     1      -7.687  13.384  69.606  1.00  0.00     0.904 A  
HETATM    5  N   UNL     1      -7.233  15.504  69.660  1.00  0.00    -0.194 NA 
HETATM    6  N   UNL     1      -7.435  14.400  70.443  1.00  0.00     0.614 NA 
ENDROOT
BRANCH   3   7
HETATM    7  C   UNL     1      -7.590  16.196  67.174  1.00  0.00    -0.237 A  
HETATM    8  C   UNL     1      -6.494  17.043  66.912  1.00  0.00    -0.248 A  
HETATM    9  C   UNL     1      -8.728  17.238  65.278  1.00  0.00     1.903 A  
HETATM   10  C   UNL     1      -8.698  16.296  66.317  1.00  0.00    -0.370 A  
HETATM   11  C   UNL     1      -6.492  17.935  65.833  1.00  0.00    -0.294 A  
HETATM   12 CL   UNL     1      -7.638  19.163  63.725  1.00  0.00     5.324 Cl 
HETATM   13  C   UNL     1      -7.619  18.041  65.027  1.00  0.00     2.275 A  
ENDBRANCH   3   7
BRANCH   5  14
HETATM   14  C   UNL     1      -6.869  16.708  70.350  1.00  0.00     1.204 A  
HETATM   15  C   UNL     1      -5.949  16.576  71.419  1.00  0.00     1.246 A  
HETATM   16  C   UNL     1      -6.157  18.910  71.957  1.00  0.00     1.012 A  
HETATM   17  C   UNL     1      -7.017  19.077  70.874  1.00  0.00     1.633 A  
HETATM   18 CL   UNL     1      -8.070  18.414  68.531  1.00  0.00    -0.333 Cl 
HETATM   19  C   UNL     1      -7.330  17.993  70.036  1.00  0.00     1.191 A  
HETATM   20  C   UNL     1      -5.589  17.669  72.209  1.00  0.00     1.527 A  
HETATM   21 CL   UNL     1      -5.752  20.253  72.952  1.00  0.00     1.880 Cl 
ENDBRANCH   5  14
BRANCH   4  22
HETATM   22  C   UNL     1      -7.828  11.985  70.106  1.00  0.00     2.632 C  
HETATM   23  O   UNL     1      -7.151  11.556  71.038  1.00  0.00     1.697 OA 
HETATM   24  N   UNL     1      -8.797  11.268  69.420  1.00  0.00    -0.307 N  
HETATM   25  H   UNL     1      -9.256  11.743  68.643  1.00  0.00     0.000 HD 
BRANCH  24  26
HETATM   26  N   UNL     1      -9.210   9.950  69.689  1.00  0.00    -0.217 NA 
HETATM   27  C   UNL     1      -8.451   8.905  69.008  1.00  0.00    -0.133 C  
HETATM   28  C   UNL     1      -7.318   8.330  69.850  1.00  0.00    -0.064 C  
HETATM   29  C   UNL     1      -7.868   7.780  71.159  1.00  0.00    -0.089 C  
HETATM   30  C   UNL     1      -8.610   8.871  71.922  1.00  0.00    -0.060 C  
HETATM   31  C   UNL     1      -9.628   9.626  71.055  1.00  0.00     0.075 C  
ENDBRANCH  24  26
ENDBRANCH   4  22
TORSDOF 4
ENDMDL
MODEL      158
REMARK 921   NORMALIZED FREE ENERGY PREDICTED BY IDOCK:   48.21 KCAL/MOL
REMARK 922        TOTAL FREE ENERGY PREDICTED BY IDOCK:   58.59 KCAL/MOL
REMARK 923 INTER-LIGAND FREE ENERGY PREDICTED BY IDOCK:   47.76 KCAL/MOL
REMARK 924 INTRA-LIGAND FREE ENERGY PREDICTED BY IDOCK:   10.83 KCAL/MOL
REMARK 927      BINDING AFFINITY PREDICTED BY RF-SCORE:    0.00 PKD
ROOT
HETATM    1  C   UNL     1      -8.717  13.616  65.814  1.00  0.00     1.206 C  
HETATM    2  C   UNL     1      -8.581  14.266  67.149  1.00  0.00    -0.234 A  
HETATM    3  C   UNL     1      -8.986  15.544  67.559  1.00  0.00    -0.189 A  
HETATM    4  C   UNL     1      -8.020  13.631  68.295  1.00  0.00    -0.150 A  
HETATM    5  N   UNL     1      -8.631  15.615  68.924  1.00  0.00    -0.193 NA 
HETATM    6  N   UNL     1      -8.142  14.418  69.373  1.00  0.00     0.092 NA 
ENDROOT
BRANCH   3   7
HETATM    7  C   UNL     1      -9.699  16.567  66.748  1.00  0.00    -0.268 A  
HETATM    8  C   UNL     1      -9.756  16.433  65.346  1.00  0.00     0.156 A  
HETATM    9  C   UNL     1     -10.996  18.626  66.508  1.00  0.00     0.056 A  
HETATM   10  C   UNL     1     -10.357  17.671  67.314  1.00  0.00    -0.354 A  
HETATM   11  C   UNL     1     -10.453  17.345  64.544  1.00  0.00     2.327 A  
HETATM   12 CL   UNL     1     -11.882  19.595  64.146  1.00  0.00     5.551 Cl 
HETATM   13  C   UNL     1     -11.058  18.450  65.129  1.00  0.00     1.155 A  
ENDBRANCH   3   7
BRANCH   5  14
HETATM   14  C   UNL     1      -8.770  16.648  69.909  1.00  0.00     1.150 A  
HETATM   15  C   UNL     1      -7.937  16.556  71.051  1.00  0.00     5.138 A  
HETATM   16  C   UNL     1      -9.006  18.464  72.051  1.00  0.00    11.850 A  
HETATM   17  C   UNL     1      -9.794  18.611  70.913  1.00  0.00     3.113 A  
HETATM   18 CL   UNL     1     -10.381  18.269  68.348  1.00  0.00    -0.383 Cl 
HETATM   19  C   UNL     1      -9.641  17.742  69.818  1.00  0.00     0.826 A  
HETATM   20  C   UNL     1      -8.048  17.462  72.108  1.00  0.00    13.862 A  
HETATM   21 CL   UNL     1      -9.178  19.557  73.368  1.00  0.00     3.810 Cl 
ENDBRANCH   5  14
BRANCH   4  22
HETATM   22  C   UNL     1      -7.389  12.282  68.387  1.00  0.00    -0.109 C  
HETATM   23  O   UNL     1      -7.056  11.793  69.465  1.00  0.00    -0.042 OA 
HETATM   24  N   UNL     1      -7.250  11.671  67.150  1.00  0.00    -0.136 N  
HETATM   25  H   UNL     1      -7.538  12.213  66.336  1.00  0.00     0.000 HD 
BRANCH  24  26
HETATM   26  N   UNL     1      -6.749  10.379  66.907  1.00  0.00    -0.079 NA 
HETATM   27  C   UNL     1      -7.710   9.430  66.353  1.00  0.00    -0.097 C  
HETATM   28  C   UNL     1      -7.661   9.335  64.832  1.00  0.00    -0.110 C  
HETATM   29  C   UNL     1      -6.259   8.954  64.376  1.00  0.00    -0.071 C  
HETATM   30  C   UNL     1      -5.243   9.968  64.889  1.00  0.00    -0.069 C  
HETATM   31  C   UNL     1      -5.384  10.257  66.391  1.00  0.00    -0.048 C  
ENDBRANCH  24  26
ENDBRANCH   4  22
TORSDOF 4
ENDMDL
MODEL      159
REMARK 921   NORMALIZED FREE ENERGY PREDICTED BY IDOCK:   50.96 KCAL/MOL
REMARK 922        TOTAL FREE ENERGY PREDICTED BY IDOCK:   61.98 KCAL/MOL
REMARK 923 INTER-LIGAND FREE ENERGY PREDICTED BY IDOCK:   60.98 KCAL/MOL
REMARK 924 INTRA-LIGAND FREE ENERGY PREDICTED BY IDOCK:    1.00 KCAL/MOL
REMARK 927      BINDING AFFINITY PREDICTED BY RF-SCORE:    0.00 PKD
ROOT
HETATM    1  C   UNL     1     -11.383  13.893  63.350  1.00  0.00     0.845 C  
HETATM    2  C   UNL     1     -11.097  13.880  64.814  1.00  0.00    -0.386 A  
HETATM    3  C   UNL     1     -11.272  14.898  65.762  1.00  0.00    -0.334 A  
HETATM    4  C   UNL     1     -10.611  12.744  65.524  1.00  0.00    -0.281 A  
HETATM    5  N   UNL     1     -10.864  14.325  66.986  1.00  0.00    -0.293 NA 
HETATM    6  N   UNL     1     -10.565  12.998  66.839  1.00  0.00    -0.253 NA 
ENDROOT
BRANCH   3   7
HETATM    7  C   UNL     1     -11.833  16.256  65.532  1.00  0.00     1.078 A  
HETATM    8  C   UNL     1     -11.157  17.387  66.034  1.00  0.00     0.451 A  
HETATM    9  C   UNL     1     -13.520  17.782  64.634  1.00  0.00    14.075 A  
HETATM   10  C   UNL     1     -13.012  16.484  64.805  1.00  0.00     4.041 A  
HETATM   11  C   UNL     1     -11.622  18.688  65.805  1.00  0.00     2.254 A  
HETATM   12 CL   UNL     1     -13.411  20.472  64.868  1.00  0.00    11.445 Cl 
HETATM   13  C   UNL     1     -12.815  18.879  65.118  1.00  0.00    12.838 A  
ENDBRANCH   3   7
BRANCH   5  14
HETATM   14  C   UNL     1     -10.798  14.841  68.323  1.00  0.00    -0.249 A  
HETATM   15  C   UNL     1     -10.355  16.179  68.469  1.00  0.00    -0.254 A  
HETATM   16  C   UNL     1     -10.416  15.994  70.866  1.00  0.00     0.561 A  
HETATM   17  C   UNL     1     -10.909  14.697  70.747  1.00  0.00     0.241 A  
HETATM   18 CL   UNL     1     -12.122  12.704  69.483  1.00  0.00    -0.297 Cl 
HETATM   19  C   UNL     1     -11.155  14.138  69.481  1.00  0.00    -0.178 A  
HETATM   20  C   UNL     1     -10.175  16.752  69.730  1.00  0.00     0.005 A  
HETATM   21 CL   UNL     1     -10.156  16.679  72.422  1.00  0.00     5.560 Cl 
ENDBRANCH   5  14
BRANCH   4  22
HETATM   22  C   UNL     1     -10.209  11.415  64.977  1.00  0.00    -0.281 C  
HETATM   23  O   UNL     1      -9.989  10.451  65.707  1.00  0.00    -0.240 OA 
HETATM   24  N   UNL     1     -10.134  11.408  63.591  1.00  0.00    -0.336 N  
HETATM   25  H   UNL     1     -10.309  12.294  63.118  1.00  0.00     0.000 HD 
BRANCH  24  26
HETATM   26  N   UNL     1      -9.842  10.300  62.776  1.00  0.00    -0.138 NA 
HETATM   27  C   UNL     1      -8.429  10.106  62.465  1.00  0.00    -0.166 C  
HETATM   28  C   UNL     1      -7.729   9.132  63.405  1.00  0.00    -0.120 C  
HETATM   29  C   UNL     1      -8.437   7.784  63.383  1.00  0.00     0.226 C  
HETATM   30  C   UNL     1      -9.903   7.950  63.768  1.00  0.00     4.722 C  
HETATM   31  C   UNL     1     -10.608   9.069  62.988  1.00  0.00     6.446 C  
ENDBRANCH  24  26
ENDBRANCH   4  22
TORSDOF 4
ENDMDL
