MODEL        1
REMARK 921   NORMALIZED FREE ENERGY PREDICTED BY IDOCK:   -8.34 KCAL/MOL
REMARK 922        TOTAL FREE ENERGY PREDICTED BY IDOCK:  -11.58 KCAL/MOL
REMARK 923 INTER-LIGAND FREE ENERGY PREDICTED BY IDOCK:  -10.78 KCAL/MOL
REMARK 924 INTRA-LIGAND FREE ENERGY PREDICTED BY IDOCK:   -0.80 KCAL/MOL
REMARK 927      BINDING AFFINITY PREDICTED BY RF-SCORE:    0.00 PKD
ROOT
HETATM    1  C   UNL     1      -6.318  17.676  66.171  1.00  0.00    -0.239 C  
HETATM    2  O   UNL     1      -7.482  18.079  66.890  1.00  0.00    -0.197 OA 
ENDROOT
BRANCH   2   3
HETATM    3  C   UNL     1      -8.171  19.106  66.320  1.00  0.00    -0.300 C  
HETATM    4  N   UNL     1      -9.545  18.921  66.355  1.00  0.00    -0.346 N  
HETATM    5  O   UNL     1      -7.632  20.087  65.819  1.00  0.00    -0.331 OA 
HETATM    6  C   UNL     1     -10.448  19.931  65.839  1.00  0.00    -0.461 C  
BRANCH   4   7
HETATM    7  C   UNL     1     -10.128  17.813  67.027  1.00  0.00    -0.337 A  
HETATM    8  C   UNL     1     -10.533  16.669  66.344  1.00  0.00    -0.266 A  
HETATM    9  N   UNL     1     -10.539  16.602  64.949  1.00  0.00    -0.689 NA 
HETATM   10  N   UNL     1     -11.015  15.590  66.969  1.00  0.00    -0.311 NA 
HETATM   11  H1  UNL     1     -10.835  15.764  64.449  1.00  0.00     0.000 HD 
HETATM   12  C   UNL     1     -11.114  15.660  68.310  1.00  0.00    -0.336 A  
HETATM   13  H2  UNL     1      -9.604  16.844  64.623  1.00  0.00     0.000 HD 
HETATM   14  N   UNL     1     -10.781  16.733  69.063  1.00  0.00    -0.336 NA 
HETATM   15  H2  UNL     1     -10.566  19.697  68.821  1.00  0.00     0.000 HD 
HETATM   16  H1  UNL     1     -10.138  18.905  70.204  1.00  0.00     0.000 HD 
HETATM   17  C   UNL     1     -10.290  17.794  68.407  1.00  0.00    -0.376 A  
HETATM   18  N   UNL     1     -10.019  18.919  69.191  1.00  0.00    -0.314 NA 
BRANCH  12  19
HETATM   19  C   UNL     1     -11.617  14.465  69.015  1.00  0.00    -0.296 A  
HETATM   20  C   UNL     1     -12.549  13.102  70.529  1.00  0.00    -0.165 A  
HETATM   21  N   UNL     1     -11.391  13.206  68.571  1.00  0.00    -0.265 NA 
HETATM   22  N   UNL     1     -12.022  12.414  69.473  1.00  0.00    -0.288 NA 
HETATM   23  C   UNL     1     -13.610  14.891  72.232  1.00  0.00    -0.538 A  
HETATM   24  N   UNL     1     -13.150  12.579  71.617  1.00  0.00    -0.376 NA 
HETATM   25  C   UNL     1     -12.374  14.445  70.228  1.00  0.00    -0.410 A  
HETATM   26  C   UNL     1     -13.658  13.520  72.444  1.00  0.00    -0.608 A  
HETATM   27  C   UNL     1     -12.946  15.382  71.107  1.00  0.00    -0.545 A  
BRANCH  22  28
HETATM   28  C   UNL     1     -12.040  10.969  69.305  1.00  0.00    -0.292 C  
BRANCH  28  29
HETATM   29  C   UNL     1     -10.986  10.248  70.112  1.00  0.00    -0.377 A  
HETATM   30  C   UNL     1      -8.748   9.287  70.214  1.00  0.00    -0.246 A  
HETATM   31  C   UNL     1      -9.079   8.609  71.384  1.00  0.00    -0.295 A  
HETATM   32  C   UNL     1      -9.695  10.101  69.595  1.00  0.00    -0.221 A  
HETATM   33  C   UNL     1     -10.343   8.781  71.947  1.00  0.00    -0.414 A  
HETATM   34  F   UNL     1      -9.354  10.721  68.456  1.00  0.00    -0.145 F  
HETATM   35  C   UNL     1     -11.292   9.594  71.316  1.00  0.00    -0.458 A  
ENDBRANCH  28  29
ENDBRANCH  22  28
ENDBRANCH  12  19
ENDBRANCH   4   7
ENDBRANCH   2   3
TORSDOF 5
ENDMDL
MODEL        2
REMARK 921   NORMALIZED FREE ENERGY PREDICTED BY IDOCK:   -8.13 KCAL/MOL
REMARK 922        TOTAL FREE ENERGY PREDICTED BY IDOCK:  -11.31 KCAL/MOL
REMARK 923 INTER-LIGAND FREE ENERGY PREDICTED BY IDOCK:  -10.71 KCAL/MOL
REMARK 924 INTRA-LIGAND FREE ENERGY PREDICTED BY IDOCK:   -0.60 KCAL/MOL
REMARK 927      BINDING AFFINITY PREDICTED BY RF-SCORE:    0.00 PKD
ROOT
HETATM    1  C   UNL     1      -5.622  19.519  63.259  1.00  0.00    -0.318 C  
HETATM    2  O   UNL     1      -6.455  19.311  64.398  1.00  0.00    -0.415 OA 
ENDROOT
BRANCH   2   3
HETATM    3  C   UNL     1      -6.307  20.240  65.383  1.00  0.00    -0.250 C  
HETATM    4  N   UNL     1      -7.087  19.975  66.499  1.00  0.00    -0.242 N  
HETATM    5  O   UNL     1      -5.568  21.215  65.289  1.00  0.00    -0.223 OA 
HETATM    6  C   UNL     1      -7.029  20.827  67.671  1.00  0.00    -0.326 C  
BRANCH   4   7
HETATM    7  C   UNL     1      -7.859  18.786  66.600  1.00  0.00    -0.262 A  
HETATM    8  C   UNL     1      -7.280  17.557  66.904  1.00  0.00    -0.197 A  
HETATM    9  N   UNL     1      -5.895  17.386  66.971  1.00  0.00    -0.138 NA 
HETATM   10  N   UNL     1      -8.001  16.444  67.074  1.00  0.00    -0.183 NA 
HETATM   11  H1  UNL     1      -5.471  16.486  67.194  1.00  0.00     0.000 HD 
HETATM   12  C   UNL     1      -9.334  16.555  66.919  1.00  0.00    -0.232 A  
HETATM   13  H2  UNL     1      -5.530  18.074  67.630  1.00  0.00     0.000 HD 
HETATM   14  N   UNL     1      -9.989  17.691  66.592  1.00  0.00    -0.313 NA 
HETATM   15  H2  UNL     1      -9.505  20.260  65.158  1.00  0.00     0.000 HD 
HETATM   16  H1  UNL     1     -10.937  19.944  65.913  1.00  0.00     0.000 HD 
HETATM   17  C   UNL     1      -9.239  18.792  66.439  1.00  0.00    -0.307 A  
HETATM   18  N   UNL     1      -9.923  19.940  66.031  1.00  0.00    -0.466 NA 
BRANCH  12  19
HETATM   19  C   UNL     1     -10.143  15.340  67.133  1.00  0.00    -0.240 A  
HETATM   20  C   UNL     1     -11.513  13.594  66.827  1.00  0.00    -0.346 A  
HETATM   21  N   UNL     1     -10.315  14.783  68.356  1.00  0.00    -0.228 NA 
HETATM   22  N   UNL     1     -11.093  13.697  68.122  1.00  0.00    -0.247 NA 
HETATM   23  C   UNL     1     -11.862  13.689  64.163  1.00  0.00    -0.463 A  
HETATM   24  N   UNL     1     -12.363  12.677  66.322  1.00  0.00    -0.501 NA 
HETATM   25  C   UNL     1     -10.854  14.600  66.136  1.00  0.00    -0.321 A  
HETATM   26  C   UNL     1     -12.510  12.774  64.982  1.00  0.00    -0.506 A  
HETATM   27  C   UNL     1     -11.019  14.639  64.741  1.00  0.00    -0.399 A  
BRANCH  22  28
HETATM   28  C   UNL     1     -11.461  12.803  69.210  1.00  0.00    -0.289 C  
BRANCH  28  29
HETATM   29  C   UNL     1     -12.286  13.463  70.289  1.00  0.00    -0.405 A  
HETATM   30  C   UNL     1     -13.757  13.219  72.218  1.00  0.00    -0.686 A  
HETATM   31  C   UNL     1     -14.128  14.558  72.120  1.00  0.00    -0.616 A  
HETATM   32  C   UNL     1     -12.839  12.688  71.313  1.00  0.00    -0.250 A  
HETATM   33  C   UNL     1     -13.550  15.364  71.140  1.00  0.00    -0.536 A  
HETATM   34  F   UNL     1     -12.521  11.390  71.418  1.00  0.00    -0.442 F  
HETATM   35  C   UNL     1     -12.635  14.822  70.229  1.00  0.00    -0.365 A  
ENDBRANCH  28  29
ENDBRANCH  22  28
ENDBRANCH  12  19
ENDBRANCH   4   7
ENDBRANCH   2   3
TORSDOF 5
ENDMDL
MODEL        3
REMARK 921   NORMALIZED FREE ENERGY PREDICTED BY IDOCK:   -8.09 KCAL/MOL
REMARK 922        TOTAL FREE ENERGY PREDICTED BY IDOCK:  -11.25 KCAL/MOL
REMARK 923 INTER-LIGAND FREE ENERGY PREDICTED BY IDOCK:  -10.10 KCAL/MOL
REMARK 924 INTRA-LIGAND FREE ENERGY PREDICTED BY IDOCK:   -1.15 KCAL/MOL
REMARK 927      BINDING AFFINITY PREDICTED BY RF-SCORE:    0.00 PKD
ROOT
HETATM    1  C   UNL     1      -9.744  20.693  67.283  1.00  0.00    -0.422 C  
HETATM    2  O   UNL     1      -8.754  19.817  67.818  1.00  0.00    -0.314 OA 
ENDROOT
BRANCH   2   3
HETATM    3  C   UNL     1      -7.779  19.461  66.936  1.00  0.00    -0.251 C  
HETATM    4  N   UNL     1      -7.625  18.088  66.824  1.00  0.00    -0.209 N  
HETATM    5  O   UNL     1      -7.100  20.271  66.314  1.00  0.00    -0.263 OA 
HETATM    6  C   UNL     1      -6.668  17.516  65.898  1.00  0.00    -0.154 C  
BRANCH   4   7
HETATM    7  C   UNL     1      -8.495  17.186  67.497  1.00  0.00    -0.198 A  
HETATM    8  C   UNL     1      -9.728  16.819  66.966  1.00  0.00    -0.251 A  
HETATM    9  N   UNL     1     -10.255  17.431  65.826  1.00  0.00    -0.599 NA 
HETATM   10  N   UNL     1     -10.524  15.917  67.549  1.00  0.00    -0.292 NA 
HETATM   11  H1  UNL     1     -11.159  17.163  65.437  1.00  0.00     0.000 HD 
HETATM   12  C   UNL     1     -10.087  15.381  68.704  1.00  0.00    -0.212 A  
HETATM   13  H2  UNL     1      -9.562  17.354  65.083  1.00  0.00     0.000 HD 
HETATM   14  N   UNL     1      -8.924  15.692  69.319  1.00  0.00    -0.256 NA 
HETATM   15  H2  UNL     1      -7.005  17.964  69.531  1.00  0.00     0.000 HD 
HETATM   16  H1  UNL     1      -6.723  16.518  70.272  1.00  0.00     0.000 HD 
HETATM   17  C   UNL     1      -8.143  16.591  68.703  1.00  0.00    -0.233 A  
HETATM   18  N   UNL     1      -6.981  16.955  69.387  1.00  0.00    -0.213 NA 
BRANCH  12  19
HETATM   19  C   UNL     1     -10.942  14.362  69.343  1.00  0.00    -0.231 A  
HETATM   20  C   UNL     1     -12.335  13.302  70.742  1.00  0.00    -0.344 A  
HETATM   21  N   UNL     1     -10.997  13.079  68.912  1.00  0.00    -0.245 NA 
HETATM   22  N   UNL     1     -11.895  12.487  69.739  1.00  0.00    -0.328 NA 
HETATM   23  C   UNL     1     -13.076  15.328  72.346  1.00  0.00    -0.485 A  
HETATM   24  N   UNL     1     -13.154  12.965  71.758  1.00  0.00    -0.394 NA 
HETATM   25  C   UNL     1     -11.798  14.553  70.473  1.00  0.00    -0.372 A  
HETATM   26  C   UNL     1     -13.489  14.017  72.539  1.00  0.00    -0.558 A  
HETATM   27  C   UNL     1     -12.200  15.617  71.299  1.00  0.00    -0.470 A  
BRANCH  22  28
HETATM   28  C   UNL     1     -12.259  11.090  69.555  1.00  0.00    -0.282 C  
BRANCH  28  29
HETATM   29  C   UNL     1     -11.383  10.126  70.320  1.00  0.00    -0.387 A  
HETATM   30  C   UNL     1     -11.054   8.750  72.306  1.00  0.00    -0.340 A  
HETATM   31  C   UNL     1      -9.703   8.608  71.999  1.00  0.00    -0.391 A  
HETATM   32  C   UNL     1     -11.880   9.496  71.467  1.00  0.00    -0.405 A  
HETATM   33  C   UNL     1      -9.197   9.183  70.834  1.00  0.00    -0.326 A  
HETATM   34  F   UNL     1     -13.170   9.636  71.802  1.00  0.00    -0.377 F  
HETATM   35  C   UNL     1     -10.029   9.938  69.999  1.00  0.00    -0.302 A  
ENDBRANCH  28  29
ENDBRANCH  22  28
ENDBRANCH  12  19
ENDBRANCH   4   7
ENDBRANCH   2   3
TORSDOF 5
ENDMDL
MODEL        4
REMARK 921   NORMALIZED FREE ENERGY PREDICTED BY IDOCK:   -8.07 KCAL/MOL
REMARK 922        TOTAL FREE ENERGY PREDICTED BY IDOCK:  -11.24 KCAL/MOL
REMARK 923 INTER-LIGAND FREE ENERGY PREDICTED BY IDOCK:  -10.53 KCAL/MOL
REMARK 924 INTRA-LIGAND FREE ENERGY PREDICTED BY IDOCK:   -0.71 KCAL/MOL
REMARK 927      BINDING AFFINITY PREDICTED BY RF-SCORE:    0.00 PKD
ROOT
HETATM    1  C   UNL     1      -8.743   7.449  73.716  1.00  0.00    -0.197 C  
HETATM    2  O   UNL     1     -10.143   7.715  73.662  1.00  0.00    -0.321 OA 
ENDROOT
BRANCH   2   3
HETATM    3  C   UNL     1     -10.907   6.651  73.288  1.00  0.00    -0.261 C  
HETATM    4  N   UNL     1     -11.901   6.989  72.383  1.00  0.00    -0.222 N  
HETATM    5  O   UNL     1     -10.739   5.514  73.716  1.00  0.00    -0.270 OA 
HETATM    6  C   UNL     1     -12.785   5.981  71.832  1.00  0.00     0.467 C  
BRANCH   4   7
HETATM    7  C   UNL     1     -12.000   8.302  71.846  1.00  0.00    -0.330 A  
HETATM    8  C   UNL     1     -12.933   9.221  72.318  1.00  0.00    -0.412 A  
HETATM    9  N   UNL     1     -13.929   8.864  73.230  1.00  0.00    -1.217 NA 
HETATM   10  N   UNL     1     -12.991  10.481  71.874  1.00  0.00    -0.466 NA 
HETATM   11  H1  UNL     1     -14.612   9.537  73.576  1.00  0.00     0.000 HD 
HETATM   12  C   UNL     1     -12.106  10.829  70.921  1.00  0.00    -0.370 A  
HETATM   13  H2  UNL     1     -13.472   8.442  74.038  1.00  0.00     0.000 HD 
HETATM   14  N   UNL     1     -11.184  10.005  70.373  1.00  0.00    -0.300 NA 
HETATM   15  H2  UNL     1     -10.759   7.101  69.851  1.00  0.00     0.000 HD 
HETATM   16  H1  UNL     1      -9.608   8.225  69.487  1.00  0.00     0.000 HD 
HETATM   17  C   UNL     1     -11.145   8.752  70.848  1.00  0.00    -0.268 A  
HETATM   18  N   UNL     1     -10.236   7.895  70.221  1.00  0.00    -0.197 NA 
BRANCH  12  19
HETATM   19  C   UNL     1     -12.139  12.225  70.444  1.00  0.00    -0.300 A  
HETATM   20  C   UNL     1     -12.522  14.426  70.280  1.00  0.00    -0.354 A  
HETATM   21  N   UNL     1     -11.688  12.591  69.221  1.00  0.00    -0.309 NA 
HETATM   22  N   UNL     1     -11.876  13.933  69.183  1.00  0.00    -0.337 NA 
HETATM   23  C   UNL     1     -13.567  14.938  72.703  1.00  0.00    -0.563 A  
HETATM   24  N   UNL     1     -12.923  15.698  70.480  1.00  0.00    -0.422 NA 
HETATM   25  C   UNL     1     -12.640  13.359  71.158  1.00  0.00    -0.430 A  
HETATM   26  C   UNL     1     -13.449  15.899  71.709  1.00  0.00    -0.125 A  
HETATM   27  C   UNL     1     -13.168  13.628  72.433  1.00  0.00    -0.584 A  
BRANCH  22  28
HETATM   28  C   UNL     1     -11.462  14.705  68.020  1.00  0.00    -0.324 C  
BRANCH  28  29
HETATM   29  C   UNL     1     -11.528  13.935  66.722  1.00  0.00    -0.369 A  
HETATM   30  C   UNL     1     -10.343  12.929  64.843  1.00  0.00    -0.329 A  
HETATM   31  C   UNL     1     -11.537  12.818  64.134  1.00  0.00    -0.456 A  
HETATM   32  C   UNL     1     -10.349  13.476  66.126  1.00  0.00    -0.296 A  
HETATM   33  C   UNL     1     -12.732  13.221  64.728  1.00  0.00    -0.338 A  
HETATM   34  F   UNL     1      -9.181  13.593  66.773  1.00  0.00    -0.226 F  
HETATM   35  C   UNL     1     -12.730  13.776  66.014  1.00  0.00    -0.407 A  
ENDBRANCH  28  29
ENDBRANCH  22  28
ENDBRANCH  12  19
ENDBRANCH   4   7
ENDBRANCH   2   3
TORSDOF 5
ENDMDL
MODEL        5
REMARK 921   NORMALIZED FREE ENERGY PREDICTED BY IDOCK:   -8.07 KCAL/MOL
REMARK 922        TOTAL FREE ENERGY PREDICTED BY IDOCK:  -11.24 KCAL/MOL
REMARK 923 INTER-LIGAND FREE ENERGY PREDICTED BY IDOCK:  -10.55 KCAL/MOL
REMARK 924 INTRA-LIGAND FREE ENERGY PREDICTED BY IDOCK:   -0.69 KCAL/MOL
REMARK 927      BINDING AFFINITY PREDICTED BY RF-SCORE:    0.00 PKD
ROOT
HETATM    1  C   UNL     1      -8.228   8.039  73.963  1.00  0.00    -0.259 C  
HETATM    2  O   UNL     1      -9.623   8.169  73.696  1.00  0.00    -0.168 OA 
ENDROOT
BRANCH   2   3
HETATM    3  C   UNL     1     -10.279   6.986  73.532  1.00  0.00    -0.333 C  
HETATM    4  N   UNL     1     -11.234   7.032  72.528  1.00  0.00    -0.267 N  
HETATM    5  O   UNL     1     -10.054   5.988  74.208  1.00  0.00    -0.237 OA 
HETATM    6  C   UNL     1     -12.003   5.855  72.174  1.00  0.00    -0.130 C  
BRANCH   4   7
HETATM    7  C   UNL     1     -11.397   8.183  71.710  1.00  0.00    -0.278 A  
HETATM    8  C   UNL     1     -12.318   9.181  72.018  1.00  0.00    -0.377 A  
HETATM    9  N   UNL     1     -13.244   9.040  73.054  1.00  0.00    -0.828 NA 
HETATM   10  N   UNL     1     -12.431  10.303  71.301  1.00  0.00    -0.372 NA 
HETATM   11  H1  UNL     1     -13.918   9.770  73.281  1.00  0.00     0.000 HD 
HETATM   12  C   UNL     1     -11.618  10.425  70.234  1.00  0.00    -0.327 A  
HETATM   13  H2  UNL     1     -12.727   8.820  73.905  1.00  0.00     0.000 HD 
HETATM   14  N   UNL     1     -10.716   9.503  69.831  1.00  0.00    -0.228 NA 
HETATM   15  H2  UNL     1     -10.262   6.559  69.968  1.00  0.00     0.000 HD 
HETATM   16  H1  UNL     1      -9.162   7.575  69.276  1.00  0.00     0.000 HD 
HETATM   17  C   UNL     1     -10.618   8.394  70.579  1.00  0.00    -0.216 A  
HETATM   18  N   UNL     1      -9.734   7.420  70.107  1.00  0.00    -0.175 NA 
BRANCH  12  19
HETATM   19  C   UNL     1     -11.712  11.672  69.451  1.00  0.00    -0.340 A  
HETATM   20  C   UNL     1     -11.613  13.176  67.793  1.00  0.00    -0.337 A  
HETATM   21  N   UNL     1     -12.043  12.862  70.008  1.00  0.00    -0.317 NA 
HETATM   22  N   UNL     1     -12.036  13.731  68.967  1.00  0.00    -0.352 NA 
HETATM   23  C   UNL     1     -10.977  11.593  65.715  1.00  0.00    -0.329 A  
HETATM   24  N   UNL     1     -11.419  13.812  66.620  1.00  0.00    -0.331 NA 
HETATM   25  C   UNL     1     -11.468  11.820  68.049  1.00  0.00    -0.388 A  
HETATM   26  C   UNL     1     -11.092  12.973  65.612  1.00  0.00    -0.276 A  
HETATM   27  C   UNL     1     -11.155  10.988  66.960  1.00  0.00    -0.311 A  
BRANCH  22  28
HETATM   28  C   UNL     1     -12.393  15.128  69.168  1.00  0.00    -0.052 C  
BRANCH  28  29
HETATM   29  C   UNL     1     -12.719  15.473  70.601  1.00  0.00    -0.487 A  
HETATM   30  C   UNL     1     -11.928  15.855  72.876  1.00  0.00    -0.609 A  
HETATM   31  C   UNL     1     -13.230  15.760  73.358  1.00  0.00    -0.653 A  
HETATM   32  C   UNL     1     -11.684  15.719  71.510  1.00  0.00    -0.453 A  
HETATM   33  C   UNL     1     -14.284  15.568  72.466  1.00  0.00    -0.502 A  
HETATM   34  F   UNL     1     -10.417  15.790  71.079  1.00  0.00    -0.207 F  
HETATM   35  C   UNL     1     -14.033  15.424  71.096  1.00  0.00    -0.410 A  
ENDBRANCH  28  29
ENDBRANCH  22  28
ENDBRANCH  12  19
ENDBRANCH   4   7
ENDBRANCH   2   3
TORSDOF 5
ENDMDL
MODEL        6
REMARK 921   NORMALIZED FREE ENERGY PREDICTED BY IDOCK:   -8.00 KCAL/MOL
REMARK 922        TOTAL FREE ENERGY PREDICTED BY IDOCK:  -11.14 KCAL/MOL
REMARK 923 INTER-LIGAND FREE ENERGY PREDICTED BY IDOCK:  -10.20 KCAL/MOL
REMARK 924 INTRA-LIGAND FREE ENERGY PREDICTED BY IDOCK:   -0.93 KCAL/MOL
REMARK 927      BINDING AFFINITY PREDICTED BY RF-SCORE:    0.00 PKD
ROOT
HETATM    1  C   UNL     1     -10.581   5.603  69.336  1.00  0.00    -0.304 C  
HETATM    2  O   UNL     1     -11.472   6.084  70.340  1.00  0.00    -0.317 OA 
ENDROOT
BRANCH   2   3
HETATM    3  C   UNL     1     -11.053   5.867  71.618  1.00  0.00    -0.258 C  
HETATM    4  N   UNL     1     -10.833   7.041  72.322  1.00  0.00    -0.223 N  
HETATM    5  O   UNL     1     -10.879   4.750  72.093  1.00  0.00    -0.138 OA 
HETATM    6  C   UNL     1     -10.428   7.014  73.714  1.00  0.00    -0.354 C  
BRANCH   4   7
HETATM    7  C   UNL     1     -11.135   8.311  71.760  1.00  0.00    -0.278 A  
HETATM    8  C   UNL     1     -12.382   8.909  71.921  1.00  0.00    -0.376 A  
HETATM    9  N   UNL     1     -13.457   8.235  72.504  1.00  0.00    -0.580 NA 
HETATM   10  N   UNL     1     -12.658  10.134  71.462  1.00  0.00    -0.400 NA 
HETATM   11  H1  UNL     1     -14.371   8.673  72.622  1.00  0.00     0.000 HD 
HETATM   12  C   UNL     1     -11.670  10.773  70.807  1.00  0.00    -0.298 A  
HETATM   13  H2  UNL     1     -13.154   7.898  73.417  1.00  0.00     0.000 HD 
HETATM   14  N   UNL     1     -10.439  10.269  70.568  1.00  0.00    -0.116 NA 
HETATM   15  H2  UNL     1      -9.090   7.631  70.239  1.00  0.00     0.000 HD 
HETATM   16  H1  UNL     1      -8.244   9.047  70.214  1.00  0.00     0.000 HD 
HETATM   17  C   UNL     1     -10.190   9.044  71.052  1.00  0.00    -0.277 A  
HETATM   18  N   UNL     1      -8.938   8.509  70.734  1.00  0.00    -0.153 NA 
BRANCH  12  19
HETATM   19  C   UNL     1     -11.952  12.138  70.321  1.00  0.00    -0.305 A  
HETATM   20  C   UNL     1     -12.724  14.233  70.142  1.00  0.00    -0.192 A  
HETATM   21  N   UNL     1     -11.573  12.570  69.095  1.00  0.00    -0.301 NA 
HETATM   22  N   UNL     1     -11.998  13.857  69.048  1.00  0.00    -0.353 NA 
HETATM   23  C   UNL     1     -13.846  14.565  72.562  1.00  0.00    -0.555 A  
HETATM   24  N   UNL     1     -13.346  15.414  70.334  1.00  0.00    -0.209 NA 
HETATM   25  C   UNL     1     -12.649  13.168  71.027  1.00  0.00    -0.397 A  
HETATM   26  C   UNL     1     -13.901  15.526  71.561  1.00  0.00    -0.441 A  
HETATM   27  C   UNL     1     -13.218  13.347  72.300  1.00  0.00    -0.570 A  
BRANCH  22  28
HETATM   28  C   UNL     1     -11.729  14.682  67.880  1.00  0.00    -0.351 C  
BRANCH  28  29
HETATM   29  C   UNL     1     -11.704  13.912  66.581  1.00  0.00    -0.417 A  
HETATM   30  C   UNL     1     -10.411  13.062  64.697  1.00  0.00    -0.400 A  
HETATM   31  C   UNL     1     -11.585  12.806  63.991  1.00  0.00    -0.488 A  
HETATM   32  C   UNL     1     -10.480  13.602  65.980  1.00  0.00    -0.300 A  
HETATM   33  C   UNL     1     -12.818  13.057  64.590  1.00  0.00    -0.279 A  
HETATM   34  F   UNL     1      -9.333  13.861  66.624  1.00  0.00    -0.247 F  
HETATM   35  C   UNL     1     -12.880  13.607  65.876  1.00  0.00    -0.328 A  
ENDBRANCH  28  29
ENDBRANCH  22  28
ENDBRANCH  12  19
ENDBRANCH   4   7
ENDBRANCH   2   3
TORSDOF 5
ENDMDL
MODEL        7
REMARK 921   NORMALIZED FREE ENERGY PREDICTED BY IDOCK:   -7.81 KCAL/MOL
REMARK 922        TOTAL FREE ENERGY PREDICTED BY IDOCK:  -10.90 KCAL/MOL
REMARK 923 INTER-LIGAND FREE ENERGY PREDICTED BY IDOCK:   -9.95 KCAL/MOL
REMARK 924 INTRA-LIGAND FREE ENERGY PREDICTED BY IDOCK:   -0.95 KCAL/MOL
REMARK 927      BINDING AFFINITY PREDICTED BY RF-SCORE:    0.00 PKD
ROOT
HETATM    1  C   UNL     1      -9.442   7.287  74.122  1.00  0.00    -0.201 C  
HETATM    2  O   UNL     1     -10.717   7.162  73.495  1.00  0.00    -0.368 OA 
ENDROOT
BRANCH   2   3
HETATM    3  C   UNL     1     -10.787   6.186  72.548  1.00  0.00    -0.240 C  
HETATM    4  N   UNL     1     -11.183   6.663  71.307  1.00  0.00    -0.269 N  
HETATM    5  O   UNL     1     -10.536   5.006  72.771  1.00  0.00    -0.200 OA 
HETATM    6  C   UNL     1     -11.270   5.781  70.160  1.00  0.00    -0.149 C  
BRANCH   4   7
HETATM    7  C   UNL     1     -11.375   8.052  71.073  1.00  0.00    -0.273 A  
HETATM    8  C   UNL     1     -10.345   8.871  70.619  1.00  0.00    -0.215 A  
HETATM    9  N   UNL     1      -9.028   8.417  70.519  1.00  0.00    -0.144 NA 
HETATM   10  N   UNL     1     -10.528  10.162  70.324  1.00  0.00    -0.270 NA 
HETATM   11  H1  UNL     1      -8.273   9.017  70.187  1.00  0.00     0.000 HD 
HETATM   12  C   UNL     1     -11.768  10.655  70.505  1.00  0.00    -0.356 A  
HETATM   13  H2  UNL     1      -9.032   7.576  69.943  1.00  0.00     0.000 HD 
HETATM   14  N   UNL     1     -12.826   9.954  70.971  1.00  0.00    -0.341 NA 
HETATM   15  H2  UNL     1     -13.404   7.592  72.696  1.00  0.00     0.000 HD 
HETATM   16  H1  UNL     1     -14.606   8.416  71.922  1.00  0.00     0.000 HD 
HETATM   17  C   UNL     1     -12.613   8.660  71.246  1.00  0.00    -0.235 A  
HETATM   18  N   UNL     1     -13.697   7.970  71.795  1.00  0.00    -0.358 NA 
BRANCH  12  19
HETATM   19  C   UNL     1     -11.991  12.071  70.154  1.00  0.00    -0.321 A  
HETATM   20  C   UNL     1     -12.645  14.213  70.197  1.00  0.00    -0.268 A  
HETATM   21  N   UNL     1     -11.642  12.590  68.953  1.00  0.00    -0.296 NA 
HETATM   22  N   UNL     1     -11.992  13.898  69.040  1.00  0.00    -0.353 NA 
HETATM   23  C   UNL     1     -13.637  14.387  72.690  1.00  0.00    -0.589 A  
HETATM   24  N   UNL     1     -13.188  15.404  70.521  1.00  0.00    -0.311 NA 
HETATM   25  C   UNL     1     -12.594  13.070  70.981  1.00  0.00    -0.386 A  
HETATM   26  C   UNL     1     -13.680  15.435  71.780  1.00  0.00    -0.511 A  
HETATM   27  C   UNL     1     -13.095  13.165  72.292  1.00  0.00    -0.458 A  
BRANCH  22  28
HETATM   28  C   UNL     1     -11.727  14.809  67.936  1.00  0.00    -0.341 C  
BRANCH  28  29
HETATM   29  C   UNL     1     -11.534  14.117  66.608  1.00  0.00    -0.378 A  
HETATM   30  C   UNL     1     -10.081  13.638  64.709  1.00  0.00    -0.268 A  
HETATM   31  C   UNL     1     -11.170  13.174  63.977  1.00  0.00    -0.418 A  
HETATM   32  C   UNL     1     -10.268  14.096  66.012  1.00  0.00    -0.308 A  
HETATM   33  C   UNL     1     -12.432  13.137  64.567  1.00  0.00    -0.406 A  
HETATM   34  F   UNL     1      -9.205  14.561  66.683  1.00  0.00    -0.235 F  
HETATM   35  C   UNL     1     -12.616  13.605  65.874  1.00  0.00    -0.478 A  
ENDBRANCH  28  29
ENDBRANCH  22  28
ENDBRANCH  12  19
ENDBRANCH   4   7
ENDBRANCH   2   3
TORSDOF 5
ENDMDL
MODEL        8
REMARK 921   NORMALIZED FREE ENERGY PREDICTED BY IDOCK:   -7.70 KCAL/MOL
REMARK 922        TOTAL FREE ENERGY PREDICTED BY IDOCK:  -10.76 KCAL/MOL
REMARK 923 INTER-LIGAND FREE ENERGY PREDICTED BY IDOCK:   -9.97 KCAL/MOL
REMARK 924 INTRA-LIGAND FREE ENERGY PREDICTED BY IDOCK:   -0.79 KCAL/MOL
REMARK 927      BINDING AFFINITY PREDICTED BY RF-SCORE:    0.00 PKD
ROOT
HETATM    1  C   UNL     1     -10.212   5.257  69.320  1.00  0.00    -0.231 C  
HETATM    2  O   UNL     1     -11.095   6.007  70.152  1.00  0.00    -0.338 OA 
ENDROOT
BRANCH   2   3
HETATM    3  C   UNL     1     -10.880   5.853  71.488  1.00  0.00    -0.266 C  
HETATM    4  N   UNL     1     -10.749   7.059  72.158  1.00  0.00    -0.214 N  
HETATM    5  O   UNL     1     -10.801   4.759  72.039  1.00  0.00    -0.111 OA 
HETATM    6  C   UNL     1     -10.563   7.099  73.595  1.00  0.00    -0.333 C  
BRANCH   4   7
HETATM    7  C   UNL     1     -10.939   8.302  71.494  1.00  0.00    -0.254 A  
HETATM    8  C   UNL     1      -9.913   8.922  70.787  1.00  0.00    -0.226 A  
HETATM    9  N   UNL     1      -8.600   8.447  70.817  1.00  0.00    -0.135 NA 
HETATM   10  N   UNL     1     -10.095  10.052  70.096  1.00  0.00    -0.249 NA 
HETATM   11  H1  UNL     1      -7.848   8.901  70.299  1.00  0.00     0.000 HD 
HETATM   12  C   UNL     1     -11.330  10.590  70.128  1.00  0.00    -0.323 A  
HETATM   13  H2  UNL     1      -8.618   7.465  70.541  1.00  0.00     0.000 HD 
HETATM   14  N   UNL     1     -12.383  10.086  70.810  1.00  0.00    -0.306 NA 
HETATM   15  H2  UNL     1     -12.942   8.407  73.209  1.00  0.00     0.000 HD 
HETATM   16  H1  UNL     1     -14.152   8.951  72.230  1.00  0.00     0.000 HD 
HETATM   17  C   UNL     1     -12.170   8.946  71.482  1.00  0.00    -0.327 A  
HETATM   18  N   UNL     1     -13.248   8.479  72.239  1.00  0.00    -0.343 NA 
BRANCH  12  19
HETATM   19  C   UNL     1     -11.552  11.821  69.346  1.00  0.00    -0.322 A  
HETATM   20  C   UNL     1     -11.673  13.306  67.673  1.00  0.00    -0.366 A  
HETATM   21  N   UNL     1     -11.884  13.002  69.921  1.00  0.00    -0.325 NA 
HETATM   22  N   UNL     1     -12.011  13.858  68.876  1.00  0.00    -0.352 NA 
HETATM   23  C   UNL     1     -11.158  11.727  65.559  1.00  0.00    -0.336 A  
HETATM   24  N   UNL     1     -11.615  13.936  66.482  1.00  0.00    -0.352 NA 
HETATM   25  C   UNL     1     -11.444  11.962  67.927  1.00  0.00    -0.385 A  
HETATM   26  C   UNL     1     -11.345  13.099  65.455  1.00  0.00    -0.299 A  
HETATM   27  C   UNL     1     -11.194  11.131  66.820  1.00  0.00    -0.215 A  
BRANCH  22  28
HETATM   28  C   UNL     1     -12.411  15.240  69.097  1.00  0.00    -0.057 C  
BRANCH  28  29
HETATM   29  C   UNL     1     -12.720  15.561  70.540  1.00  0.00    -0.436 A  
HETATM   30  C   UNL     1     -11.912  16.287  72.723  1.00  0.00    -0.636 A  
HETATM   31  C   UNL     1     -13.093  15.853  73.318  1.00  0.00    -0.694 A  
HETATM   32  C   UNL     1     -11.738  16.146  71.347  1.00  0.00    -0.444 A  
HETATM   33  C   UNL     1     -14.107  15.315  72.527  1.00  0.00    -0.567 A  
HETATM   34  F   UNL     1     -10.580  16.550  70.807  1.00  0.00    -0.041 F  
HETATM   35  C   UNL     1     -13.924  15.169  71.147  1.00  0.00    -0.487 A  
ENDBRANCH  28  29
ENDBRANCH  22  28
ENDBRANCH  12  19
ENDBRANCH   4   7
ENDBRANCH   2   3
TORSDOF 5
ENDMDL
MODEL        9
REMARK 921   NORMALIZED FREE ENERGY PREDICTED BY IDOCK:   -7.64 KCAL/MOL
REMARK 922        TOTAL FREE ENERGY PREDICTED BY IDOCK:  -10.68 KCAL/MOL
REMARK 923 INTER-LIGAND FREE ENERGY PREDICTED BY IDOCK:   -9.69 KCAL/MOL
REMARK 924 INTRA-LIGAND FREE ENERGY PREDICTED BY IDOCK:   -0.99 KCAL/MOL
REMARK 927      BINDING AFFINITY PREDICTED BY RF-SCORE:    0.00 PKD
ROOT
HETATM    1  C   UNL     1      -5.646  19.205  63.253  1.00  0.00    -0.166 C  
HETATM    2  O   UNL     1      -6.558  19.307  64.345  1.00  0.00    -0.361 OA 
ENDROOT
BRANCH   2   3
HETATM    3  C   UNL     1      -6.303  20.336  65.200  1.00  0.00    -0.276 C  
HETATM    4  N   UNL     1      -7.054  20.271  66.364  1.00  0.00    -0.258 N  
HETATM    5  O   UNL     1      -5.500  21.232  64.961  1.00  0.00    -0.211 OA 
HETATM    6  C   UNL     1      -6.887  21.254  67.417  1.00  0.00    -0.259 C  
BRANCH   4   7
HETATM    7  C   UNL     1      -7.905  19.166  66.638  1.00  0.00    -0.267 A  
HETATM    8  C   UNL     1      -9.270  19.204  66.366  1.00  0.00    -0.343 A  
HETATM    9  N   UNL     1      -9.912  20.375  65.958  1.00  0.00    -0.606 NA 
HETATM   10  N   UNL     1     -10.070  18.148  66.549  1.00  0.00    -0.366 NA 
HETATM   11  H1  UNL     1     -10.912  20.403  65.759  1.00  0.00     0.000 HD 
HETATM   12  C   UNL     1      -9.497  17.031  67.035  1.00  0.00    -0.250 A  
HETATM   13  H2  UNL     1      -9.422  20.729  65.137  1.00  0.00     0.000 HD 
HETATM   14  N   UNL     1      -8.192  16.901  67.362  1.00  0.00    -0.179 NA 
HETATM   15  H2  UNL     1      -5.895  18.584  68.245  1.00  0.00     0.000 HD 
HETATM   16  H1  UNL     1      -5.724  16.971  67.947  1.00  0.00     0.000 HD 
HETATM   17  C   UNL     1      -7.415  17.973  67.156  1.00  0.00    -0.204 A  
HETATM   18  N   UNL     1      -6.085  17.846  67.567  1.00  0.00    -0.153 NA 
BRANCH  12  19
HETATM   19  C   UNL     1     -10.364  15.850  67.213  1.00  0.00    -0.293 A  
HETATM   20  C   UNL     1     -11.610  14.221  68.115  1.00  0.00    -0.332 A  
HETATM   21  N   UNL     1     -10.704  15.031  66.189  1.00  0.00    -0.318 NA 
HETATM   22  N   UNL     1     -11.507  14.098  66.759  1.00  0.00    -0.352 NA 
HETATM   23  C   UNL     1     -11.698  15.017  70.682  1.00  0.00    -0.357 A  
HETATM   24  N   UNL     1     -12.261  13.392  68.956  1.00  0.00    -0.239 NA 
HETATM   25  C   UNL     1     -10.944  15.394  68.439  1.00  0.00    -0.284 A  
HETATM   26  C   UNL     1     -12.268  13.833  70.233  1.00  0.00    -0.359 A  
HETATM   27  C   UNL     1     -11.006  15.822  69.777  1.00  0.00    -0.316 A  
BRANCH  22  28
HETATM   28  C   UNL     1     -12.116  13.053  65.950  1.00  0.00    -0.444 C  
BRANCH  28  29
HETATM   29  C   UNL     1     -11.130  12.285  65.103  1.00  0.00    -0.361 A  
HETATM   30  C   UNL     1     -10.436  11.539  62.887  1.00  0.00    -0.114 A  
HETATM   31  C   UNL     1      -9.572  10.608  63.458  1.00  0.00    -0.366 A  
HETATM   32  C   UNL     1     -11.197  12.370  63.708  1.00  0.00    -0.453 A  
HETATM   33  C   UNL     1      -9.449  10.541  64.845  1.00  0.00    -0.304 A  
HETATM   34  F   UNL     1     -12.038  13.239  63.130  1.00  0.00    -0.595 F  
HETATM   35  C   UNL     1     -10.222  11.372  65.664  1.00  0.00    -0.298 A  
ENDBRANCH  28  29
ENDBRANCH  22  28
ENDBRANCH  12  19
ENDBRANCH   4   7
ENDBRANCH   2   3
TORSDOF 5
ENDMDL
MODEL       10
REMARK 921   NORMALIZED FREE ENERGY PREDICTED BY IDOCK:   -7.58 KCAL/MOL
REMARK 922        TOTAL FREE ENERGY PREDICTED BY IDOCK:  -10.60 KCAL/MOL
REMARK 923 INTER-LIGAND FREE ENERGY PREDICTED BY IDOCK:   -9.97 KCAL/MOL
REMARK 924 INTRA-LIGAND FREE ENERGY PREDICTED BY IDOCK:   -0.63 KCAL/MOL
REMARK 927      BINDING AFFINITY PREDICTED BY RF-SCORE:    0.00 PKD
ROOT
HETATM    1  C   UNL     1      -5.274  18.656  70.665  1.00  0.00    -0.250 C  
HETATM    2  O   UNL     1      -6.452  18.772  69.870  1.00  0.00    -0.191 OA 
ENDROOT
BRANCH   2   3
HETATM    3  C   UNL     1      -6.489  19.874  69.071  1.00  0.00    -0.321 C  
HETATM    4  N   UNL     1      -7.270  19.696  67.939  1.00  0.00    -0.265 N  
HETATM    5  O   UNL     1      -5.886  20.912  69.322  1.00  0.00    -0.363 OA 
HETATM    6  C   UNL     1      -7.469  20.775  66.992  1.00  0.00    -0.271 C  
BRANCH   4   7
HETATM    7  C   UNL     1      -8.023  18.508  67.736  1.00  0.00    -0.250 A  
HETATM    8  C   UNL     1      -7.519  17.433  67.008  1.00  0.00    -0.198 A  
HETATM    9  N   UNL     1      -6.317  17.515  66.303  1.00  0.00    -0.234 NA 
HETATM   10  N   UNL     1      -8.185  16.282  66.870  1.00  0.00    -0.201 NA 
HETATM   11  H1  UNL     1      -5.948  16.728  65.770  1.00  0.00     0.000 HD 
HETATM   12  C   UNL     1      -9.394  16.207  67.458  1.00  0.00    -0.217 A  
HETATM   13  H2  UNL     1      -5.593  17.814  66.956  1.00  0.00     0.000 HD 
HETATM   14  N   UNL     1      -9.986  17.202  68.156  1.00  0.00    -0.282 NA 
HETATM   15  H2  UNL     1      -9.981  20.179  68.315  1.00  0.00     0.000 HD 
HETATM   16  H1  UNL     1     -10.872  19.256  69.352  1.00  0.00     0.000 HD 
HETATM   17  C   UNL     1      -9.288  18.339  68.286  1.00  0.00    -0.308 A  
HETATM   18  N   UNL     1      -9.943  19.381  68.948  1.00  0.00    -0.451 NA 
BRANCH  12  19
HETATM   19  C   UNL     1     -10.127  14.931  67.338  1.00  0.00    -0.228 A  
HETATM   20  C   UNL     1     -11.475  13.292  66.622  1.00  0.00    -0.347 A  
HETATM   21  N   UNL     1     -10.095  13.978  68.299  1.00  0.00    -0.240 NA 
HETATM   22  N   UNL     1     -10.867  12.978  67.804  1.00  0.00    -0.235 NA 
HETATM   23  C   UNL     1     -12.223  14.264  64.230  1.00  0.00    -0.451 A  
HETATM   24  N   UNL     1     -12.363  12.538  65.944  1.00  0.00    -0.603 NA 
HETATM   25  C   UNL     1     -10.957  14.523  66.247  1.00  0.00    -0.323 A  
HETATM   26  C   UNL     1     -12.713  13.075  64.754  1.00  0.00    -0.342 A  
HETATM   27  C   UNL     1     -11.331  15.023  64.988  1.00  0.00    -0.395 A  
BRANCH  22  28
HETATM   28  C   UNL     1     -11.041  11.740  68.549  1.00  0.00    -0.239 C  
BRANCH  28  29
HETATM   29  C   UNL     1     -11.800  11.908  69.843  1.00  0.00    -0.418 A  
HETATM   30  C   UNL     1     -13.035  10.874  71.675  1.00  0.00    -0.569 A  
HETATM   31  C   UNL     1     -13.526  12.119  72.062  1.00  0.00    -0.388 A  
HETATM   32  C   UNL     1     -12.176  10.780  70.580  1.00  0.00    -0.379 A  
HETATM   33  C   UNL     1     -13.124  13.263  71.375  1.00  0.00    -0.361 A  
HETATM   34  F   UNL     1     -11.740   9.566  70.216  1.00  0.00    -0.274 F  
HETATM   35  C   UNL     1     -12.268  13.162  70.272  1.00  0.00    -0.376 A  
ENDBRANCH  28  29
ENDBRANCH  22  28
ENDBRANCH  12  19
ENDBRANCH   4   7
ENDBRANCH   2   3
TORSDOF 5
ENDMDL
MODEL       11
REMARK 921   NORMALIZED FREE ENERGY PREDICTED BY IDOCK:   -7.50 KCAL/MOL
REMARK 922        TOTAL FREE ENERGY PREDICTED BY IDOCK:  -10.50 KCAL/MOL
REMARK 923 INTER-LIGAND FREE ENERGY PREDICTED BY IDOCK:   -9.84 KCAL/MOL
REMARK 924 INTRA-LIGAND FREE ENERGY PREDICTED BY IDOCK:   -0.65 KCAL/MOL
REMARK 927      BINDING AFFINITY PREDICTED BY RF-SCORE:    0.00 PKD
ROOT
HETATM    1  C   UNL     1      -8.732   8.157  73.403  1.00  0.00    -0.251 C  
HETATM    2  O   UNL     1      -9.929   8.549  72.733  1.00  0.00    -0.258 OA 
ENDROOT
BRANCH   2   3
HETATM    3  C   UNL     1     -10.879   7.576  72.657  1.00  0.00    -0.315 C  
HETATM    4  N   UNL     1     -11.924   7.905  71.807  1.00  0.00    -0.285 N  
HETATM    5  O   UNL     1     -10.820   6.522  73.282  1.00  0.00    -0.266 OA 
HETATM    6  C   UNL     1     -13.007   6.974  71.559  1.00  0.00    -0.359 C  
BRANCH   4   7
HETATM    7  C   UNL     1     -11.904   9.097  71.034  1.00  0.00    -0.292 A  
HETATM    8  C   UNL     1     -12.627  10.227  71.405  1.00  0.00    -0.434 A  
HETATM    9  N   UNL     1     -13.536  10.210  72.466  1.00  0.00    -0.556 NA 
HETATM   10  N   UNL     1     -12.562  11.379  70.729  1.00  0.00    -0.337 NA 
HETATM   11  H1  UNL     1     -14.066  11.037  72.739  1.00  0.00     0.000 HD 
HETATM   12  C   UNL     1     -11.768  11.399  69.641  1.00  0.00    -0.345 A  
HETATM   13  H2  UNL     1     -13.042   9.871  73.292  1.00  0.00     0.000 HD 
HETATM   14  N   UNL     1     -11.053  10.350  69.178  1.00  0.00    -0.234 NA 
HETATM   15  H2  UNL     1     -11.118   7.369  69.201  1.00  0.00     0.000 HD 
HETATM   16  H1  UNL     1      -9.876   8.205  68.508  1.00  0.00     0.000 HD 
HETATM   17  C   UNL     1     -11.131   9.213  69.885  1.00  0.00    -0.159 A  
HETATM   18  N   UNL     1     -10.444   8.120  69.352  1.00  0.00    -0.222 NA 
BRANCH  12  19
HETATM   19  C   UNL     1     -11.664  12.673  68.904  1.00  0.00    -0.325 A  
HETATM   20  C   UNL     1     -11.411  14.196  67.281  1.00  0.00    -0.332 A  
HETATM   21  N   UNL     1     -11.654  13.877  69.523  1.00  0.00    -0.285 NA 
HETATM   22  N   UNL     1     -11.565  14.774  68.509  1.00  0.00    -0.307 NA 
HETATM   23  C   UNL     1     -11.380  12.616  65.106  1.00  0.00    -0.343 A  
HETATM   24  N   UNL     1     -11.207  14.830  66.108  1.00  0.00    -0.336 NA 
HETATM   25  C   UNL     1     -11.548  12.831  67.487  1.00  0.00    -0.412 A  
HETATM   26  C   UNL     1     -11.192  13.990  65.049  1.00  0.00    -0.352 A  
HETATM   27  C   UNL     1     -11.552  12.005  66.349  1.00  0.00    -0.381 A  
BRANCH  22  28
HETATM   28  C   UNL     1     -11.573  16.203  68.783  1.00  0.00    -0.297 C  
BRANCH  28  29
HETATM   29  C   UNL     1     -10.213  16.851  68.678  1.00  0.00    -0.301 A  
HETATM   30  C   UNL     1      -8.816  18.597  67.706  1.00  0.00    -0.294 A  
HETATM   31  C   UNL     1      -7.668  17.930  68.127  1.00  0.00    -0.256 A  
HETATM   32  C   UNL     1     -10.071  18.060  67.989  1.00  0.00    -0.365 A  
HETATM   33  C   UNL     1      -7.786  16.751  68.861  1.00  0.00    -0.244 A  
HETATM   34  F   UNL     1     -11.156  18.712  67.548  1.00  0.00    -0.457 F  
HETATM   35  C   UNL     1      -9.049  16.212  69.136  1.00  0.00    -0.243 A  
ENDBRANCH  28  29
ENDBRANCH  22  28
ENDBRANCH  12  19
ENDBRANCH   4   7
ENDBRANCH   2   3
TORSDOF 5
ENDMDL
MODEL       12
REMARK 921   NORMALIZED FREE ENERGY PREDICTED BY IDOCK:   -7.49 KCAL/MOL
REMARK 922        TOTAL FREE ENERGY PREDICTED BY IDOCK:  -10.48 KCAL/MOL
REMARK 923 INTER-LIGAND FREE ENERGY PREDICTED BY IDOCK:   -9.63 KCAL/MOL
REMARK 924 INTRA-LIGAND FREE ENERGY PREDICTED BY IDOCK:   -0.85 KCAL/MOL
REMARK 927      BINDING AFFINITY PREDICTED BY RF-SCORE:    0.00 PKD
ROOT
HETATM    1  C   UNL     1     -13.025  12.024  63.815  1.00  0.00    -0.206 C  
HETATM    2  O   UNL     1     -13.072  12.920  64.923  1.00  0.00    -0.799 OA 
ENDROOT
BRANCH   2   3
HETATM    3  C   UNL     1     -12.393  14.086  64.736  1.00  0.00    -0.413 C  
HETATM    4  N   UNL     1     -11.448  14.327  65.721  1.00  0.00    -0.329 N  
HETATM    5  O   UNL     1     -12.604  14.849  63.798  1.00  0.00    -0.791 OA 
HETATM    6  C   UNL     1     -10.592  15.496  65.667  1.00  0.00    -0.373 C  
BRANCH   4   7
HETATM    7  C   UNL     1     -11.176  13.371  66.738  1.00  0.00    -0.310 A  
HETATM    8  C   UNL     1     -11.699  13.494  68.022  1.00  0.00    -0.359 A  
HETATM    9  N   UNL     1     -12.389  14.636  68.435  1.00  0.00    -0.606 NA 
HETATM   10  N   UNL     1     -11.513  12.567  68.967  1.00  0.00    -0.284 NA 
HETATM   11  H1  UNL     1     -12.773  14.726  69.375  1.00  0.00     0.000 HD 
HETATM   12  C   UNL     1     -10.768  11.497  68.629  1.00  0.00    -0.207 A  
HETATM   13  H2  UNL     1     -13.148  14.797  67.773  1.00  0.00     0.000 HD 
HETATM   14  N   UNL     1     -10.189  11.300  67.424  1.00  0.00    -0.184 NA 
HETATM   15  H2  UNL     1      -9.155  12.877  65.115  1.00  0.00     0.000 HD 
HETATM   16  H1  UNL     1      -9.172  11.228  65.100  1.00  0.00     0.000 HD 
HETATM   17  C   UNL     1     -10.404  12.241  66.494  1.00  0.00    -0.227 A  
HETATM   18  N   UNL     1      -9.739  12.058  65.279  1.00  0.00    -0.208 NA 
BRANCH  12  19
HETATM   19  C   UNL     1     -10.580  10.453  69.654  1.00  0.00    -0.253 A  
HETATM   20  C   UNL     1     -10.896   9.062  71.382  1.00  0.00    -0.330 A  
HETATM   21  N   UNL     1      -9.404   9.804  69.830  1.00  0.00    -0.213 NA 
HETATM   22  N   UNL     1      -9.651   8.930  70.836  1.00  0.00    -0.216 NA 
HETATM   23  C   UNL     1     -13.485   9.529  71.936  1.00  0.00    -0.502 A  
HETATM   24  N   UNL     1     -11.388   8.397  72.447  1.00  0.00    -0.380 NA 
HETATM   25  C   UNL     1     -11.558   9.989  70.589  1.00  0.00    -0.422 A  
HETATM   26  C   UNL     1     -12.689   8.674  72.687  1.00  0.00    -0.204 A  
HETATM   27  C   UNL     1     -12.917  10.219  70.865  1.00  0.00    -0.456 A  
BRANCH  22  28
HETATM   28  C   UNL     1      -8.618   8.010  71.287  1.00  0.00    -0.126 C  
BRANCH  28  29
HETATM   29  C   UNL     1      -8.839   6.582  70.847  1.00  0.00    -0.147 A  
HETATM   30  C   UNL     1      -9.102   4.991  69.018  1.00  0.00    -0.140 A  
HETATM   31  C   UNL     1      -9.592   4.035  69.904  1.00  0.00    -0.281 A  
HETATM   32  C   UNL     1      -8.726   6.246  69.494  1.00  0.00    -0.132 A  
HETATM   33  C   UNL     1      -9.665   4.328  71.265  1.00  0.00    -0.256 A  
HETATM   34  F   UNL     1      -8.282   7.154  68.613  1.00  0.00    -0.118 F  
HETATM   35  C   UNL     1      -9.292   5.593  71.736  1.00  0.00    -0.163 A  
ENDBRANCH  28  29
ENDBRANCH  22  28
ENDBRANCH  12  19
ENDBRANCH   4   7
ENDBRANCH   2   3
TORSDOF 5
ENDMDL
MODEL       13
REMARK 921   NORMALIZED FREE ENERGY PREDICTED BY IDOCK:   -7.47 KCAL/MOL
REMARK 922        TOTAL FREE ENERGY PREDICTED BY IDOCK:  -10.46 KCAL/MOL
REMARK 923 INTER-LIGAND FREE ENERGY PREDICTED BY IDOCK:   -9.39 KCAL/MOL
REMARK 924 INTRA-LIGAND FREE ENERGY PREDICTED BY IDOCK:   -1.07 KCAL/MOL
REMARK 927      BINDING AFFINITY PREDICTED BY RF-SCORE:    0.00 PKD
ROOT
HETATM    1  C   UNL     1     -10.789   5.914  68.839  1.00  0.00    -0.303 C  
HETATM    2  O   UNL     1     -11.607   6.625  69.766  1.00  0.00    -0.351 OA 
ENDROOT
BRANCH   2   3
HETATM    3  C   UNL     1     -11.176   6.573  71.056  1.00  0.00    -0.309 C  
HETATM    4  N   UNL     1     -10.801   7.812  71.553  1.00  0.00    -0.226 N  
HETATM    5  O   UNL     1     -11.117   5.536  71.709  1.00  0.00    -0.230 OA 
HETATM    6  C   UNL     1     -10.359   7.965  72.925  1.00  0.00    -0.347 C  
BRANCH   4   7
HETATM    7  C   UNL     1     -10.972   9.000  70.790  1.00  0.00    -0.258 A  
HETATM    8  C   UNL     1     -12.198   9.655  70.715  1.00  0.00    -0.230 A  
HETATM    9  N   UNL     1     -13.366   9.105  71.248  1.00  0.00    -0.517 NA 
HETATM   10  N   UNL     1     -12.358  10.812  70.063  1.00  0.00    -0.325 NA 
HETATM   11  H1  UNL     1     -14.264   9.585  71.192  1.00  0.00     0.000 HD 
HETATM   12  C   UNL     1     -11.269  11.319  69.454  1.00  0.00    -0.280 A  
HETATM   13  H2  UNL     1     -13.189   8.890  72.228  1.00  0.00     0.000 HD 
HETATM   14  N   UNL     1     -10.045  10.746  69.439  1.00  0.00    -0.185 NA 
HETATM   15  H2  UNL     1      -8.799   8.045  69.639  1.00  0.00     0.000 HD 
HETATM   16  H1  UNL     1      -7.887   9.415  69.526  1.00  0.00     0.000 HD 
HETATM   17  C   UNL     1      -9.915   9.594  70.111  1.00  0.00    -0.261 A  
HETATM   18  N   UNL     1      -8.663   8.979  70.025  1.00  0.00    -0.143 NA 
BRANCH  12  19
HETATM   19  C   UNL     1     -11.425  12.610  68.756  1.00  0.00    -0.306 A  
HETATM   20  C   UNL     1     -11.637  14.179  67.171  1.00  0.00    -0.377 A  
HETATM   21  N   UNL     1     -11.390  13.800  69.404  1.00  0.00    -0.261 NA 
HETATM   22  N   UNL     1     -11.586  14.718  68.425  1.00  0.00    -0.311 NA 
HETATM   23  C   UNL     1     -11.917  12.647  64.980  1.00  0.00    -0.467 A  
HETATM   24  N   UNL     1     -11.730  14.850  66.005  1.00  0.00    -0.241 NA 
HETATM   25  C   UNL     1     -11.614  12.804  67.352  1.00  0.00    -0.415 A  
HETATM   26  C   UNL     1     -11.861  14.034  64.936  1.00  0.00    -0.393 A  
HETATM   27  C   UNL     1     -11.781  12.001  66.209  1.00  0.00    -0.319 A  
BRANCH  22  28
HETATM   28  C   UNL     1     -11.657  16.136  68.746  1.00  0.00    -0.297 C  
BRANCH  28  29
HETATM   29  C   UNL     1     -10.341  16.862  68.600  1.00  0.00    -0.332 A  
HETATM   30  C   UNL     1      -9.051  18.620  67.509  1.00  0.00    -0.293 A  
HETATM   31  C   UNL     1      -7.866  18.060  67.982  1.00  0.00    -0.257 A  
HETATM   32  C   UNL     1     -10.271  18.025  67.826  1.00  0.00    -0.378 A  
HETATM   33  C   UNL     1      -7.914  16.932  68.799  1.00  0.00    -0.254 A  
HETATM   34  F   UNL     1     -11.392  18.571  67.335  1.00  0.00    -0.293 F  
HETATM   35  C   UNL     1      -9.142  16.334  69.107  1.00  0.00    -0.230 A  
ENDBRANCH  28  29
ENDBRANCH  22  28
ENDBRANCH  12  19
ENDBRANCH   4   7
ENDBRANCH   2   3
TORSDOF 5
ENDMDL
MODEL       14
REMARK 921   NORMALIZED FREE ENERGY PREDICTED BY IDOCK:   -7.44 KCAL/MOL
REMARK 922        TOTAL FREE ENERGY PREDICTED BY IDOCK:  -10.42 KCAL/MOL
REMARK 923 INTER-LIGAND FREE ENERGY PREDICTED BY IDOCK:   -9.48 KCAL/MOL
REMARK 924 INTRA-LIGAND FREE ENERGY PREDICTED BY IDOCK:   -0.94 KCAL/MOL
REMARK 927      BINDING AFFINITY PREDICTED BY RF-SCORE:    0.00 PKD
ROOT
HETATM    1  C   UNL     1      -9.841   5.869  68.560  1.00  0.00    -0.135 C  
HETATM    2  O   UNL     1     -10.917   6.214  69.431  1.00  0.00    -0.314 OA 
ENDROOT
BRANCH   2   3
HETATM    3  C   UNL     1     -10.800   5.723  70.695  1.00  0.00    -0.267 C  
HETATM    4  N   UNL     1     -10.847   6.711  71.667  1.00  0.00    -0.229 N  
HETATM    5  O   UNL     1     -10.657   4.531  70.948  1.00  0.00     0.016 OA 
HETATM    6  C   UNL     1     -10.786   6.377  73.076  1.00  0.00    -0.259 C  
BRANCH   4   7
HETATM    7  C   UNL     1     -11.104   8.068  71.333  1.00  0.00    -0.241 A  
HETATM    8  C   UNL     1     -10.085   8.941  70.962  1.00  0.00    -0.255 A  
HETATM    9  N   UNL     1      -8.737   8.585  71.047  1.00  0.00    -0.157 NA 
HETATM   10  N   UNL     1     -10.320  10.199  70.574  1.00  0.00    -0.154 NA 
HETATM   11  H1  UNL     1      -7.990   9.224  70.775  1.00  0.00     0.000 HD 
HETATM   12  C   UNL     1     -11.604  10.604  70.575  1.00  0.00    -0.350 A  
HETATM   13  H2  UNL     1      -8.611   7.719  70.524  1.00  0.00     0.000 HD 
HETATM   14  N   UNL     1     -12.660   9.848  70.948  1.00  0.00    -0.316 NA 
HETATM   15  H2  UNL     1     -13.283   7.534  72.722  1.00  0.00     0.000 HD 
HETATM   16  H1  UNL     1     -14.433   8.226  71.763  1.00  0.00     0.000 HD 
HETATM   17  C   UNL     1     -12.393   8.588  71.320  1.00  0.00    -0.271 A  
HETATM   18  N   UNL     1     -13.487   7.844  71.772  1.00  0.00    -0.345 NA 
BRANCH  12  19
HETATM   19  C   UNL     1     -11.879  11.981  70.121  1.00  0.00    -0.301 A  
HETATM   20  C   UNL     1     -12.606  14.097  70.009  1.00  0.00    -0.214 A  
HETATM   21  N   UNL     1     -11.559  12.419  68.880  1.00  0.00    -0.293 NA 
HETATM   22  N   UNL     1     -11.954  13.716  68.871  1.00  0.00    -0.356 NA 
HETATM   23  C   UNL     1     -13.580  14.427  72.493  1.00  0.00    -0.598 A  
HETATM   24  N   UNL     1     -13.187  15.290  70.248  1.00  0.00    -0.122 NA 
HETATM   25  C   UNL     1     -12.509  13.019  70.877  1.00  0.00    -0.396 A  
HETATM   26  C   UNL     1     -13.668  15.401  71.507  1.00  0.00    -0.508 A  
HETATM   27  C   UNL     1     -12.999  13.197  72.182  1.00  0.00    -0.382 A  
BRANCH  22  28
HETATM   28  C   UNL     1     -11.732  14.549  67.698  1.00  0.00    -0.382 C  
BRANCH  28  29
HETATM   29  C   UNL     1     -11.558  13.766  66.419  1.00  0.00    -0.380 A  
HETATM   30  C   UNL     1     -10.081  13.014  64.629  1.00  0.00    -0.253 A  
HETATM   31  C   UNL     1     -11.181  12.640  63.862  1.00  0.00    -0.497 A  
HETATM   32  C   UNL     1     -10.276  13.564  65.896  1.00  0.00    -0.301 A  
HETATM   33  C   UNL     1     -12.466  12.783  64.383  1.00  0.00    -0.476 A  
HETATM   34  F   UNL     1      -9.199  13.938  66.600  1.00  0.00    -0.246 F  
HETATM   35  C   UNL     1     -12.656  13.342  65.652  1.00  0.00    -0.496 A  
ENDBRANCH  28  29
ENDBRANCH  22  28
ENDBRANCH  12  19
ENDBRANCH   4   7
ENDBRANCH   2   3
TORSDOF 5
ENDMDL
MODEL       15
REMARK 921   NORMALIZED FREE ENERGY PREDICTED BY IDOCK:   -7.41 KCAL/MOL
REMARK 922        TOTAL FREE ENERGY PREDICTED BY IDOCK:  -10.37 KCAL/MOL
REMARK 923 INTER-LIGAND FREE ENERGY PREDICTED BY IDOCK:   -9.45 KCAL/MOL
REMARK 924 INTRA-LIGAND FREE ENERGY PREDICTED BY IDOCK:   -0.93 KCAL/MOL
REMARK 927      BINDING AFFINITY PREDICTED BY RF-SCORE:    0.00 PKD
ROOT
HETATM    1  C   UNL     1      -6.537  19.564  65.246  1.00  0.00    -0.275 C  
HETATM    2  O   UNL     1      -7.416  20.088  66.240  1.00  0.00    -0.277 OA 
ENDROOT
BRANCH   2   3
HETATM    3  C   UNL     1      -6.806  20.433  67.408  1.00  0.00    -0.278 C  
HETATM    4  N   UNL     1      -7.158  19.609  68.467  1.00  0.00    -0.310 N  
HETATM    5  O   UNL     1      -6.033  21.379  67.515  1.00  0.00    -0.335 OA 
HETATM    6  C   UNL     1      -6.574  19.790  69.781  1.00  0.00    -0.322 C  
BRANCH   4   7
HETATM    7  C   UNL     1      -7.987  18.470  68.277  1.00  0.00    -0.305 A  
HETATM    8  C   UNL     1      -7.455  17.206  68.035  1.00  0.00    -0.195 A  
HETATM    9  N   UNL     1      -6.092  17.007  67.807  1.00  0.00    -0.130 NA 
HETATM   10  N   UNL     1      -8.217  16.113  67.928  1.00  0.00    -0.152 NA 
HETATM   11  H1  UNL     1      -5.702  16.082  67.630  1.00  0.00     0.000 HD 
HETATM   12  C   UNL     1      -9.547  16.287  68.045  1.00  0.00    -0.224 A  
HETATM   13  H2  UNL     1      -5.583  17.413  68.592  1.00  0.00     0.000 HD 
HETATM   14  N   UNL     1     -10.164  17.473  68.246  1.00  0.00    -0.343 NA 
HETATM   15  H2  UNL     1      -9.727  20.377  67.731  1.00  0.00     0.000 HD 
HETATM   16  H1  UNL     1     -11.045  19.831  68.558  1.00  0.00     0.000 HD 
HETATM   17  C   UNL     1      -9.372  18.548  68.361  1.00  0.00    -0.334 A  
HETATM   18  N   UNL     1     -10.029  19.774  68.496  1.00  0.00    -0.430 NA 
BRANCH  12  19
HETATM   19  C   UNL     1     -10.397  15.084  67.958  1.00  0.00    -0.236 A  
HETATM   20  C   UNL     1     -11.657  13.400  67.187  1.00  0.00    -0.358 A  
HETATM   21  N   UNL     1     -10.888  14.455  69.053  1.00  0.00    -0.248 NA 
HETATM   22  N   UNL     1     -11.589  13.408  68.551  1.00  0.00    -0.309 NA 
HETATM   23  C   UNL     1     -11.295  13.673  64.537  1.00  0.00    -0.393 A  
HETATM   24  N   UNL     1     -12.354  12.540  66.416  1.00  0.00    -0.453 NA 
HETATM   25  C   UNL     1     -10.829  14.429  66.762  1.00  0.00    -0.301 A  
HETATM   26  C   UNL     1     -12.144  12.726  65.094  1.00  0.00    -0.450 A  
HETATM   27  C   UNL     1     -10.624  14.561  65.378  1.00  0.00    -0.385 A  
BRANCH  22  28
HETATM   28  C   UNL     1     -12.238  12.458  69.442  1.00  0.00    -0.065 C  
BRANCH  28  29
HETATM   29  C   UNL     1     -11.404  11.235  69.741  1.00  0.00    -0.348 A  
HETATM   30  C   UNL     1     -10.910   9.375  71.239  1.00  0.00    -0.431 A  
HETATM   31  C   UNL     1      -9.700   9.154  70.586  1.00  0.00    -0.314 A  
HETATM   32  C   UNL     1     -11.750  10.402  70.810  1.00  0.00    -0.368 A  
HETATM   33  C   UNL     1      -9.357   9.938  69.485  1.00  0.00    -0.236 A  
HETATM   34  F   UNL     1     -12.896  10.606  71.475  1.00  0.00    -0.422 F  
HETATM   35  C   UNL     1     -10.201  10.972  69.064  1.00  0.00    -0.217 A  
ENDBRANCH  28  29
ENDBRANCH  22  28
ENDBRANCH  12  19
ENDBRANCH   4   7
ENDBRANCH   2   3
TORSDOF 5
ENDMDL
MODEL       16
REMARK 921   NORMALIZED FREE ENERGY PREDICTED BY IDOCK:   -7.40 KCAL/MOL
REMARK 922        TOTAL FREE ENERGY PREDICTED BY IDOCK:  -10.36 KCAL/MOL
REMARK 923 INTER-LIGAND FREE ENERGY PREDICTED BY IDOCK:   -9.88 KCAL/MOL
REMARK 924 INTRA-LIGAND FREE ENERGY PREDICTED BY IDOCK:   -0.48 KCAL/MOL
REMARK 927      BINDING AFFINITY PREDICTED BY RF-SCORE:    0.00 PKD
ROOT
HETATM    1  C   UNL     1      -6.064  18.449  67.528  1.00  0.00    -0.174 C  
HETATM    2  O   UNL     1      -7.305  18.078  66.930  1.00  0.00    -0.191 OA 
ENDROOT
BRANCH   2   3
HETATM    3  C   UNL     1      -7.971  19.102  66.328  1.00  0.00    -0.300 C  
HETATM    4  N   UNL     1      -9.349  18.958  66.380  1.00  0.00    -0.333 N  
HETATM    5  O   UNL     1      -7.409  20.049  65.786  1.00  0.00    -0.307 OA 
HETATM    6  C   UNL     1     -10.228  19.973  65.834  1.00  0.00    -0.421 C  
BRANCH   4   7
HETATM    7  C   UNL     1      -9.956  17.891  67.097  1.00  0.00    -0.327 A  
HETATM    8  C   UNL     1     -10.430  16.750  66.456  1.00  0.00    -0.258 A  
HETATM    9  N   UNL     1     -10.482  16.650  65.064  1.00  0.00    -0.662 NA 
HETATM   10  N   UNL     1     -10.936  15.707  67.123  1.00  0.00    -0.304 NA 
HETATM   11  H1  UNL     1     -10.829  15.813  64.594  1.00  0.00     0.000 HD 
HETATM   12  C   UNL     1     -10.990  15.814  68.464  1.00  0.00    -0.312 A  
HETATM   13  H2  UNL     1      -9.548  16.844  64.704  1.00  0.00     0.000 HD 
HETATM   14  N   UNL     1     -10.589  16.889  69.178  1.00  0.00    -0.338 NA 
HETATM   15  H2  UNL     1     -10.258  19.835  68.856  1.00  0.00     0.000 HD 
HETATM   16  H1  UNL     1      -9.821  19.059  70.245  1.00  0.00     0.000 HD 
HETATM   17  C   UNL     1     -10.075  17.912  68.482  1.00  0.00    -0.391 A  
HETATM   18  N   UNL     1      -9.733  19.043  69.228  1.00  0.00    -0.230 NA 
BRANCH  12  19
HETATM   19  C   UNL     1     -11.520  14.658  69.214  1.00  0.00    -0.291 A  
HETATM   20  C   UNL     1     -12.564  13.382  70.730  1.00  0.00    -0.294 A  
HETATM   21  N   UNL     1     -11.188  13.379  68.916  1.00  0.00    -0.264 NA 
HETATM   22  N   UNL     1     -11.886  12.636  69.809  1.00  0.00    -0.327 NA 
HETATM   23  C   UNL     1     -13.897  15.251  72.129  1.00  0.00    -0.625 A  
HETATM   24  N   UNL     1     -13.267  12.923  71.786  1.00  0.00    -0.419 NA 
HETATM   25  C   UNL     1     -12.414  14.701  70.329  1.00  0.00    -0.401 A  
HETATM   26  C   UNL     1     -13.909  13.902  72.459  1.00  0.00    -0.515 A  
HETATM   27  C   UNL     1     -13.126  15.678  71.047  1.00  0.00    -0.487 A  
BRANCH  22  28
HETATM   28  C   UNL     1     -11.820  11.182  69.773  1.00  0.00    -0.349 C  
BRANCH  28  29
HETATM   29  C   UNL     1     -10.682  10.644  68.939  1.00  0.00    -0.254 A  
HETATM   30  C   UNL     1      -8.380   9.844  68.839  1.00  0.00    -0.124 A  
HETATM   31  C   UNL     1      -8.384   9.971  67.452  1.00  0.00    -0.118 A  
HETATM   32  C   UNL     1      -9.523  10.172  69.566  1.00  0.00    -0.214 A  
HETATM   33  C   UNL     1      -9.543  10.389  66.801  1.00  0.00    -0.209 A  
HETATM   34  F   UNL     1      -9.481  10.064  70.902  1.00  0.00    -0.125 F  
HETATM   35  C   UNL     1     -10.685  10.725  67.537  1.00  0.00    -0.312 A  
ENDBRANCH  28  29
ENDBRANCH  22  28
ENDBRANCH  12  19
ENDBRANCH   4   7
ENDBRANCH   2   3
TORSDOF 5
ENDMDL
MODEL       17
REMARK 921   NORMALIZED FREE ENERGY PREDICTED BY IDOCK:   -7.39 KCAL/MOL
REMARK 922        TOTAL FREE ENERGY PREDICTED BY IDOCK:  -10.35 KCAL/MOL
REMARK 923 INTER-LIGAND FREE ENERGY PREDICTED BY IDOCK:   -9.39 KCAL/MOL
REMARK 924 INTRA-LIGAND FREE ENERGY PREDICTED BY IDOCK:   -0.96 KCAL/MOL
REMARK 927      BINDING AFFINITY PREDICTED BY RF-SCORE:    0.00 PKD
ROOT
HETATM    1  C   UNL     1     -10.536   5.551  69.168  1.00  0.00    -0.230 C  
HETATM    2  O   UNL     1     -11.347   6.126  70.191  1.00  0.00    -0.382 OA 
ENDROOT
BRANCH   2   3
HETATM    3  C   UNL     1     -10.911   5.887  71.459  1.00  0.00    -0.266 C  
HETATM    4  N   UNL     1     -10.684   7.049  72.181  1.00  0.00    -0.214 N  
HETATM    5  O   UNL     1     -10.727   4.762  71.911  1.00  0.00    -0.132 OA 
HETATM    6  C   UNL     1     -10.262   6.996  73.567  1.00  0.00    -0.333 C  
BRANCH   4   7
HETATM    7  C   UNL     1     -10.997   8.328  71.647  1.00  0.00    -0.264 A  
HETATM    8  C   UNL     1     -12.232   8.934  71.863  1.00  0.00    -0.374 A  
HETATM    9  N   UNL     1     -13.289   8.261  72.479  1.00  0.00    -0.583 NA 
HETATM   10  N   UNL     1     -12.514  10.167  71.430  1.00  0.00    -0.388 NA 
HETATM   11  H1  UNL     1     -14.194   8.705  72.637  1.00  0.00     0.000 HD 
HETATM   12  C   UNL     1     -11.546  10.806  70.746  1.00  0.00    -0.224 A  
HETATM   13  H2  UNL     1     -12.954   7.910  73.376  1.00  0.00     0.000 HD 
HETATM   14  N   UNL     1     -10.329  10.295  70.454  1.00  0.00    -0.124 NA 
HETATM   15  H2  UNL     1      -9.017   7.650  70.040  1.00  0.00     0.000 HD 
HETATM   16  H1  UNL     1      -8.160   9.059  70.001  1.00  0.00     0.000 HD 
HETATM   17  C   UNL     1     -10.073   9.062  70.912  1.00  0.00    -0.262 A  
HETATM   18  N   UNL     1      -8.839   8.521  70.540  1.00  0.00    -0.145 NA 
BRANCH  12  19
HETATM   19  C   UNL     1     -11.835  12.179  70.288  1.00  0.00    -0.254 A  
HETATM   20  C   UNL     1     -12.635  14.266  70.140  1.00  0.00    -0.282 A  
HETATM   21  N   UNL     1     -11.423  12.651  69.087  1.00  0.00    -0.288 NA 
HETATM   22  N   UNL     1     -11.868  13.932  69.061  1.00  0.00    -0.338 NA 
HETATM   23  C   UNL     1     -13.840  14.514  72.530  1.00  0.00    -0.555 A  
HETATM   24  N   UNL     1     -13.283  15.431  70.343  1.00  0.00    -0.238 NA 
HETATM   25  C   UNL     1     -12.572  13.178  70.998  1.00  0.00    -0.397 A  
HETATM   26  C   UNL     1     -13.879  15.501  71.554  1.00  0.00    -0.441 A  
HETATM   27  C   UNL     1     -13.185  13.313  72.256  1.00  0.00    -0.567 A  
BRANCH  22  28
HETATM   28  C   UNL     1     -11.575  14.793  67.925  1.00  0.00    -0.351 C  
BRANCH  28  29
HETATM   29  C   UNL     1     -10.182  15.375  67.945  1.00  0.00    -0.239 A  
HETATM   30  C   UNL     1      -8.701  17.190  68.623  1.00  0.00    -0.266 A  
HETATM   31  C   UNL     1      -7.718  16.730  67.751  1.00  0.00    -0.180 A  
HETATM   32  C   UNL     1      -9.914  16.510  68.718  1.00  0.00    -0.255 A  
HETATM   33  C   UNL     1      -7.941  15.572  67.008  1.00  0.00    -0.268 A  
HETATM   34  F   UNL     1     -10.850  16.991  69.548  1.00  0.00    -0.319 F  
HETATM   35  C   UNL     1      -9.165  14.897  67.102  1.00  0.00    -0.231 A  
ENDBRANCH  28  29
ENDBRANCH  22  28
ENDBRANCH  12  19
ENDBRANCH   4   7
ENDBRANCH   2   3
TORSDOF 5
ENDMDL
MODEL       18
REMARK 921   NORMALIZED FREE ENERGY PREDICTED BY IDOCK:   -7.37 KCAL/MOL
REMARK 922        TOTAL FREE ENERGY PREDICTED BY IDOCK:  -10.33 KCAL/MOL
REMARK 923 INTER-LIGAND FREE ENERGY PREDICTED BY IDOCK:   -9.57 KCAL/MOL
REMARK 924 INTRA-LIGAND FREE ENERGY PREDICTED BY IDOCK:   -0.76 KCAL/MOL
REMARK 927      BINDING AFFINITY PREDICTED BY RF-SCORE:    0.00 PKD
ROOT
HETATM    1  C   UNL     1      -8.641   7.534  73.564  1.00  0.00    -0.181 C  
HETATM    2  O   UNL     1     -10.045   7.784  73.617  1.00  0.00    -0.294 OA 
ENDROOT
BRANCH   2   3
HETATM    3  C   UNL     1     -10.822   6.712  73.296  1.00  0.00    -0.261 C  
HETATM    4  N   UNL     1     -11.856   7.032  72.430  1.00  0.00    -0.222 N  
HETATM    5  O   UNL     1     -10.632   5.582  73.736  1.00  0.00    -0.251 OA 
HETATM    6  C   UNL     1     -12.761   6.013  71.938  1.00  0.00     0.467 C  
BRANCH   4   7
HETATM    7  C   UNL     1     -11.983   8.335  71.876  1.00  0.00    -0.330 A  
HETATM    8  C   UNL     1     -12.931   9.243  72.339  1.00  0.00    -0.377 A  
HETATM    9  N   UNL     1     -13.914   8.881  73.262  1.00  0.00    -1.217 NA 
HETATM   10  N   UNL     1     -13.014  10.495  71.879  1.00  0.00    -0.466 NA 
HETATM   11  H1  UNL     1     -14.609   9.546  73.602  1.00  0.00     0.000 HD 
HETATM   12  C   UNL     1     -12.140  10.846  70.915  1.00  0.00    -0.349 A  
HETATM   13  H2  UNL     1     -13.446   8.479  74.074  1.00  0.00     0.000 HD 
HETATM   14  N   UNL     1     -11.206  10.032  70.375  1.00  0.00    -0.300 NA 
HETATM   15  H2  UNL     1     -10.729   7.129  69.891  1.00  0.00     0.000 HD 
HETATM   16  H1  UNL     1      -9.602   8.270  69.506  1.00  0.00     0.000 HD 
HETATM   17  C   UNL     1     -11.141   8.787  70.866  1.00  0.00    -0.268 A  
HETATM   18  N   UNL     1     -10.220   7.938  70.247  1.00  0.00    -0.197 NA 
BRANCH  12  19
HETATM   19  C   UNL     1     -12.202  12.235  70.420  1.00  0.00    -0.288 A  
HETATM   20  C   UNL     1     -12.585  14.435  70.248  1.00  0.00    -0.323 A  
HETATM   21  N   UNL     1     -11.843  12.578  69.159  1.00  0.00    -0.306 NA 
HETATM   22  N   UNL     1     -12.026  13.921  69.113  1.00  0.00    -0.348 NA 
HETATM   23  C   UNL     1     -13.442  14.993  72.735  1.00  0.00    -0.574 A  
HETATM   24  N   UNL     1     -12.964  15.713  70.456  1.00  0.00    -0.422 NA 
HETATM   25  C   UNL     1     -12.642  13.383  71.150  1.00  0.00    -0.430 A  
HETATM   26  C   UNL     1     -13.394  15.937  71.718  1.00  0.00    -0.184 A  
HETATM   27  C   UNL     1     -13.071  13.677  72.456  1.00  0.00    -0.487 A  
BRANCH  22  28
HETATM   28  C   UNL     1     -11.698  14.671  67.910  1.00  0.00    -0.351 C  
BRANCH  28  29
HETATM   29  C   UNL     1     -10.315  15.276  67.927  1.00  0.00    -0.246 A  
HETATM   30  C   UNL     1      -8.927  17.281  67.916  1.00  0.00    -0.235 A  
HETATM   31  C   UNL     1      -7.805  16.518  67.603  1.00  0.00    -0.175 A  
HETATM   32  C   UNL     1     -10.163  16.658  68.081  1.00  0.00    -0.280 A  
HETATM   33  C   UNL     1      -7.922  15.133  67.496  1.00  0.00    -0.194 A  
HETATM   34  F   UNL     1     -11.230  17.423  68.357  1.00  0.00    -0.282 F  
HETATM   35  C   UNL     1      -9.167  14.513  67.656  1.00  0.00    -0.195 A  
ENDBRANCH  28  29
ENDBRANCH  22  28
ENDBRANCH  12  19
ENDBRANCH   4   7
ENDBRANCH   2   3
TORSDOF 5
ENDMDL
MODEL       19
REMARK 921   NORMALIZED FREE ENERGY PREDICTED BY IDOCK:   -7.36 KCAL/MOL
REMARK 922        TOTAL FREE ENERGY PREDICTED BY IDOCK:  -10.31 KCAL/MOL
REMARK 923 INTER-LIGAND FREE ENERGY PREDICTED BY IDOCK:   -9.65 KCAL/MOL
REMARK 924 INTRA-LIGAND FREE ENERGY PREDICTED BY IDOCK:   -0.66 KCAL/MOL
REMARK 927      BINDING AFFINITY PREDICTED BY RF-SCORE:    0.00 PKD
ROOT
HETATM    1  C   UNL     1      -9.346   8.110  72.576  1.00  0.00    -0.260 C  
HETATM    2  O   UNL     1     -10.301   9.042  72.074  1.00  0.00    -0.339 OA 
ENDROOT
BRANCH   2   3
HETATM    3  C   UNL     1     -11.597   8.637  72.182  1.00  0.00    -0.370 C  
HETATM    4  N   UNL     1     -12.469   9.401  71.422  1.00  0.00    -0.333 N  
HETATM    5  O   UNL     1     -11.956   7.698  72.886  1.00  0.00    -0.161 OA 
HETATM    6  C   UNL     1     -13.884   9.092  71.371  1.00  0.00    -0.244 C  
BRANCH   4   7
HETATM    7  C   UNL     1     -11.996  10.421  70.552  1.00  0.00    -0.334 A  
HETATM    8  C   UNL     1     -11.250  10.128  69.413  1.00  0.00    -0.215 A  
HETATM    9  N   UNL     1     -10.787   8.839  69.142  1.00  0.00    -0.412 NA 
HETATM   10  N   UNL     1     -10.861  11.069  68.546  1.00  0.00    -0.196 NA 
HETATM   11  H1  UNL     1     -10.240   8.625  68.308  1.00  0.00     0.000 HD 
HETATM   12  C   UNL     1     -11.210  12.338  68.832  1.00  0.00    -0.273 A  
HETATM   13  H2  UNL     1     -11.590   8.211  69.157  1.00  0.00     0.000 HD 
HETATM   14  N   UNL     1     -11.901  12.730  69.924  1.00  0.00    -0.326 NA 
HETATM   15  H2  UNL     1     -12.405  11.854  72.729  1.00  0.00     0.000 HD 
HETATM   16  H1  UNL     1     -13.150  13.178  72.087  1.00  0.00     0.000 HD 
HETATM   17  C   UNL     1     -12.287  11.763  70.768  1.00  0.00    -0.337 A  
HETATM   18  N   UNL     1     -12.937  12.193  71.928  1.00  0.00    -0.362 NA 
BRANCH  12  19
HETATM   19  C   UNL     1     -10.812  13.382  67.867  1.00  0.00    -0.247 A  
HETATM   20  C   UNL     1     -10.692  14.691  66.053  1.00  0.00    -0.312 A  
HETATM   21  N   UNL     1      -9.729  14.173  68.051  1.00  0.00    -0.219 NA 
HETATM   22  N   UNL     1      -9.725  14.992  66.970  1.00  0.00    -0.231 NA 
HETATM   23  C   UNL     1     -12.873  13.886  64.704  1.00  0.00    -0.033 A  
HETATM   24  N   UNL     1     -10.873  15.270  64.849  1.00  0.00    -0.434 NA 
HETATM   25  C   UNL     1     -11.468  13.701  66.636  1.00  0.00    -0.365 A  
HETATM   26  C   UNL     1     -11.977  14.824  64.209  1.00  0.00    -0.368 A  
HETATM   27  C   UNL     1     -12.620  13.292  65.941  1.00  0.00    -0.349 A  
BRANCH  22  28
HETATM   28  C   UNL     1      -8.715  16.031  66.833  1.00  0.00    -0.229 C  
BRANCH  28  29
HETATM   29  C   UNL     1      -9.208  17.412  67.192  1.00  0.00    -0.241 A  
HETATM   30  C   UNL     1      -9.542  19.117  68.903  1.00  0.00    -0.447 A  
HETATM   31  C   UNL     1     -10.401  19.814  68.058  1.00  0.00    -0.567 A  
HETATM   32  C   UNL     1      -8.950  17.934  68.464  1.00  0.00    -0.286 A  
HETATM   33  C   UNL     1     -10.633  19.342  66.768  1.00  0.00    -0.574 A  
HETATM   34  F   UNL     1      -8.147  17.271  69.309  1.00  0.00    -0.198 F  
HETATM   35  C   UNL     1     -10.042  18.149  66.335  1.00  0.00    -0.392 A  
ENDBRANCH  28  29
ENDBRANCH  22  28
ENDBRANCH  12  19
ENDBRANCH   4   7
ENDBRANCH   2   3
TORSDOF 5
ENDMDL
MODEL       20
REMARK 921   NORMALIZED FREE ENERGY PREDICTED BY IDOCK:   -7.34 KCAL/MOL
REMARK 922        TOTAL FREE ENERGY PREDICTED BY IDOCK:  -10.29 KCAL/MOL
REMARK 923 INTER-LIGAND FREE ENERGY PREDICTED BY IDOCK:   -9.87 KCAL/MOL
REMARK 924 INTRA-LIGAND FREE ENERGY PREDICTED BY IDOCK:   -0.42 KCAL/MOL
REMARK 927      BINDING AFFINITY PREDICTED BY RF-SCORE:    0.00 PKD
ROOT
HETATM    1  C   UNL     1     -12.267   6.708  71.587  1.00  0.00    -0.352 C  
HETATM    2  O   UNL     1     -11.809   6.600  70.240  1.00  0.00    -0.395 OA 
ENDROOT
BRANCH   2   3
HETATM    3  C   UNL     1     -10.575   6.039  70.107  1.00  0.00    -0.276 C  
HETATM    4  N   UNL     1      -9.669   6.869  69.466  1.00  0.00    -0.158 N  
HETATM    5  O   UNL     1     -10.298   4.911  70.504  1.00  0.00    -0.239 OA 
HETATM    6  C   UNL     1      -8.290   6.464  69.273  1.00  0.00    -0.122 C  
BRANCH   4   7
HETATM    7  C   UNL     1     -10.010   8.201  69.105  1.00  0.00    -0.192 A  
HETATM    8  C   UNL     1     -10.533   8.513  67.853  1.00  0.00    -0.201 A  
HETATM    9  N   UNL     1     -10.608   7.571  66.826  1.00  0.00    -0.494 NA 
HETATM   10  N   UNL     1     -10.927   9.748  67.525  1.00  0.00    -0.225 NA 
HETATM   11  H1  UNL     1     -10.992   7.799  65.909  1.00  0.00     0.000 HD 
HETATM   12  C   UNL     1     -10.776  10.702  68.464  1.00  0.00    -0.217 A  
HETATM   13  H2  UNL     1     -11.116   6.762  67.182  1.00  0.00     0.000 HD 
HETATM   14  N   UNL     1     -10.249  10.510  69.693  1.00  0.00    -0.207 NA 
HETATM   15  H2  UNL     1      -8.340   8.694  71.088  1.00  0.00     0.000 HD 
HETATM   16  H1  UNL     1      -9.167   9.870  71.897  1.00  0.00     0.000 HD 
HETATM   17  C   UNL     1      -9.875   9.259  69.996  1.00  0.00    -0.205 A  
HETATM   18  N   UNL     1      -9.266   9.093  71.243  1.00  0.00    -0.261 NA 
BRANCH  12  19
HETATM   19  C   UNL     1     -11.234  12.063  68.124  1.00  0.00    -0.260 A  
HETATM   20  C   UNL     1     -11.882  13.890  67.000  1.00  0.00    -0.415 A  
HETATM   21  N   UNL     1     -11.362  13.044  69.050  1.00  0.00    -0.275 NA 
HETATM   22  N   UNL     1     -11.815  14.111  68.346  1.00  0.00    -0.348 NA 
HETATM   23  C   UNL     1     -12.076  12.904  64.507  1.00  0.00    -0.473 A  
HETATM   24  N   UNL     1     -12.208  14.787  66.048  1.00  0.00    -0.125 NA 
HETATM   25  C   UNL     1     -11.587  12.546  66.825  1.00  0.00    -0.446 A  
HETATM   26  C   UNL     1     -12.283  14.243  64.813  1.00  0.00    -0.443 A  
HETATM   27  C   UNL     1     -11.707  12.024  65.525  1.00  0.00    -0.315 A  
BRANCH  22  28
HETATM   28  C   UNL     1     -12.120  15.365  69.020  1.00  0.00    -0.226 C  
BRANCH  28  29
HETATM   29  C   UNL     1     -12.519  15.198  70.467  1.00  0.00    -0.429 A  
HETATM   30  C   UNL     1     -12.056  15.668  72.814  1.00  0.00    -0.572 A  
HETATM   31  C   UNL     1     -12.952  14.675  73.202  1.00  0.00    -0.605 A  
HETATM   32  C   UNL     1     -11.853  15.925  71.459  1.00  0.00    -0.468 A  
HETATM   33  C   UNL     1     -13.666  13.973  72.233  1.00  0.00    -0.646 A  
HETATM   34  F   UNL     1     -10.966  16.870  71.117  1.00  0.00    -0.087 F  
HETATM   35  C   UNL     1     -13.452  14.230  70.873  1.00  0.00    -0.191 A  
ENDBRANCH  28  29
ENDBRANCH  22  28
ENDBRANCH  12  19
ENDBRANCH   4   7
ENDBRANCH   2   3
TORSDOF 5
ENDMDL
MODEL       21
REMARK 921   NORMALIZED FREE ENERGY PREDICTED BY IDOCK:   -7.34 KCAL/MOL
REMARK 922        TOTAL FREE ENERGY PREDICTED BY IDOCK:  -10.29 KCAL/MOL
REMARK 923 INTER-LIGAND FREE ENERGY PREDICTED BY IDOCK:   -9.37 KCAL/MOL
REMARK 924 INTRA-LIGAND FREE ENERGY PREDICTED BY IDOCK:   -0.92 KCAL/MOL
REMARK 927      BINDING AFFINITY PREDICTED BY RF-SCORE:    0.00 PKD
ROOT
HETATM    1  C   UNL     1      -8.576   8.336  73.368  1.00  0.00    -0.207 C  
HETATM    2  O   UNL     1      -9.822   8.762  72.819  1.00  0.00    -0.140 OA 
ENDROOT
BRANCH   2   3
HETATM    3  C   UNL     1     -10.808   7.823  72.861  1.00  0.00    -0.392 C  
HETATM    4  N   UNL     1     -11.724   7.953  71.829  1.00  0.00    -0.274 N  
HETATM    5  O   UNL     1     -10.882   6.957  73.727  1.00  0.00    -0.289 OA 
HETATM    6  C   UNL     1     -12.819   7.015  71.678  1.00  0.00    -0.364 C  
BRANCH   4   7
HETATM    7  C   UNL     1     -11.547   8.914  70.796  1.00  0.00    -0.259 A  
HETATM    8  C   UNL     1     -10.656   8.711  69.746  1.00  0.00    -0.224 A  
HETATM    9  N   UNL     1      -9.771   7.631  69.725  1.00  0.00    -0.171 NA 
HETATM   10  N   UNL     1     -10.532   9.570  68.730  1.00  0.00    -0.215 NA 
HETATM   11  H1  UNL     1      -9.118   7.481  68.956  1.00  0.00     0.000 HD 
HETATM   12  C   UNL     1     -11.304  10.673  68.772  1.00  0.00    -0.277 A  
HETATM   13  H2  UNL     1     -10.318   6.778  69.839  1.00  0.00     0.000 HD 
HETATM   14  N   UNL     1     -12.174  10.980  69.759  1.00  0.00    -0.332 NA 
HETATM   15  H2  UNL     1     -12.585  10.460  72.666  1.00  0.00     0.000 HD 
HETATM   16  H1  UNL     1     -13.673  11.325  71.777  1.00  0.00     0.000 HD 
HETATM   17  C   UNL     1     -12.284  10.093  70.758  1.00  0.00    -0.338 A  
HETATM   18  N   UNL     1     -13.132  10.460  71.805  1.00  0.00    -0.451 NA 
BRANCH  12  19
HETATM   19  C   UNL     1     -11.198  11.615  67.641  1.00  0.00    -0.281 A  
HETATM   20  C   UNL     1     -10.742  12.530  65.647  1.00  0.00    -0.266 A  
HETATM   21  N   UNL     1     -11.553  12.919  67.740  1.00  0.00    -0.322 NA 
HETATM   22  N   UNL     1     -11.325  13.422  66.501  1.00  0.00    -0.311 NA 
HETATM   23  C   UNL     1      -9.852  10.381  64.299  1.00  0.00    -0.388 A  
HETATM   24  N   UNL     1     -10.319  12.771  64.390  1.00  0.00    -0.368 NA 
HETATM   25  C   UNL     1     -10.715  11.321  66.327  1.00  0.00    -0.312 A  
HETATM   26  C   UNL     1      -9.874  11.661  63.760  1.00  0.00    -0.315 A  
HETATM   27  C   UNL     1     -10.269  10.193  65.617  1.00  0.00    -0.288 A  
BRANCH  22  28
HETATM   28  C   UNL     1     -11.635  14.812  66.200  1.00  0.00    -0.292 C  
BRANCH  28  29
HETATM   29  C   UNL     1     -10.632  15.795  66.755  1.00  0.00    -0.309 A  
HETATM   30  C   UNL     1     -10.101  17.509  68.407  1.00  0.00    -0.358 A  
HETATM   31  C   UNL     1      -8.991  17.900  67.663  1.00  0.00    -0.250 A  
HETATM   32  C   UNL     1     -10.903  16.462  67.955  1.00  0.00    -0.328 A  
HETATM   33  C   UNL     1      -8.671  17.216  66.491  1.00  0.00    -0.293 A  
HETATM   34  F   UNL     1     -11.979  16.125  68.680  1.00  0.00    -0.378 F  
HETATM   35  C   UNL     1      -9.484  16.170  66.038  1.00  0.00    -0.374 A  
ENDBRANCH  28  29
ENDBRANCH  22  28
ENDBRANCH  12  19
ENDBRANCH   4   7
ENDBRANCH   2   3
TORSDOF 5
ENDMDL
MODEL       22
REMARK 921   NORMALIZED FREE ENERGY PREDICTED BY IDOCK:   -7.31 KCAL/MOL
REMARK 922        TOTAL FREE ENERGY PREDICTED BY IDOCK:  -10.26 KCAL/MOL
REMARK 923 INTER-LIGAND FREE ENERGY PREDICTED BY IDOCK:   -9.20 KCAL/MOL
REMARK 924 INTRA-LIGAND FREE ENERGY PREDICTED BY IDOCK:   -1.05 KCAL/MOL
REMARK 927      BINDING AFFINITY PREDICTED BY RF-SCORE:    0.00 PKD
ROOT
HETATM    1  C   UNL     1      -9.337  17.205  66.540  1.00  0.00    -0.265 C  
HETATM    2  O   UNL     1      -9.663  15.893  66.084  1.00  0.00    -0.274 OA 
ENDROOT
BRANCH   2   3
HETATM    3  C   UNL     1     -10.715  15.841  65.220  1.00  0.00    -0.428 C  
HETATM    4  N   UNL     1     -11.458  14.678  65.340  1.00  0.00    -0.346 N  
HETATM    5  O   UNL     1     -10.971  16.728  64.411  1.00  0.00    -0.974 OA 
HETATM    6  C   UNL     1     -12.645  14.462  64.536  1.00  0.00    -0.209 C  
BRANCH   4   7
HETATM    7  C   UNL     1     -11.178  13.719  66.352  1.00  0.00    -0.316 A  
HETATM    8  C   UNL     1     -11.588  13.900  67.670  1.00  0.00    -0.348 A  
HETATM    9  N   UNL     1     -12.155  15.097  68.112  1.00  0.00    -0.510 NA 
HETATM   10  N   UNL     1     -11.396  12.976  68.617  1.00  0.00    -0.270 NA 
HETATM   11  H1  UNL     1     -12.455  15.230  69.078  1.00  0.00     0.000 HD 
HETATM   12  C   UNL     1     -10.762  11.848  68.244  1.00  0.00    -0.223 A  
HETATM   13  H2  UNL     1     -12.950  15.306  67.508  1.00  0.00     0.000 HD 
HETATM   14  N   UNL     1     -10.296  11.589  67.002  1.00  0.00    -0.213 NA 
HETATM   15  H2  UNL     1      -9.335  13.050  64.587  1.00  0.00     0.000 HD 
HETATM   16  H1  UNL     1      -9.475  11.406  64.608  1.00  0.00     0.000 HD 
HETATM   17  C   UNL     1     -10.514  12.531  66.073  1.00  0.00    -0.258 A  
HETATM   18  N   UNL     1      -9.963  12.279  64.813  1.00  0.00    -0.231 NA 
BRANCH  12  19
HETATM   19  C   UNL     1     -10.571  10.807  69.272  1.00  0.00    -0.229 A  
HETATM   20  C   UNL     1     -10.867   9.449  71.030  1.00  0.00    -0.336 A  
HETATM   21  N   UNL     1      -9.416  10.114  69.405  1.00  0.00    -0.216 NA 
HETATM   22  N   UNL     1      -9.654   9.261  70.432  1.00  0.00    -0.225 NA 
HETATM   23  C   UNL     1     -13.408  10.027  71.690  1.00  0.00    -0.468 A  
HETATM   24  N   UNL     1     -11.338   8.816  72.123  1.00  0.00    -0.360 NA 
HETATM   25  C   UNL     1     -11.525  10.393  70.255  1.00  0.00    -0.406 A  
HETATM   26  C   UNL     1     -12.615   9.148  72.417  1.00  0.00    -0.311 A  
HETATM   27  C   UNL     1     -12.861  10.682  70.587  1.00  0.00    -0.404 A  
BRANCH  22  28
HETATM   28  C   UNL     1      -8.639   8.304  70.849  1.00  0.00    -0.137 C  
BRANCH  28  29
HETATM   29  C   UNL     1      -8.885   6.899  70.351  1.00  0.00    -0.152 A  
HETATM   30  C   UNL     1      -9.008   5.357  68.466  1.00  0.00    -0.114 A  
HETATM   31  C   UNL     1      -9.658   4.417  69.261  1.00  0.00    -0.261 A  
HETATM   32  C   UNL     1      -8.622   6.579  69.015  1.00  0.00    -0.125 A  
HETATM   33  C   UNL     1      -9.885   4.693  70.609  1.00  0.00    -0.296 A  
HETATM   34  F   UNL     1      -8.020   7.473  68.218  1.00  0.00    -0.113 F  
HETATM   35  C   UNL     1      -9.502   5.925  71.153  1.00  0.00    -0.183 A  
ENDBRANCH  28  29
ENDBRANCH  22  28
ENDBRANCH  12  19
ENDBRANCH   4   7
ENDBRANCH   2   3
TORSDOF 5
ENDMDL
MODEL       23
REMARK 921   NORMALIZED FREE ENERGY PREDICTED BY IDOCK:   -7.28 KCAL/MOL
REMARK 922        TOTAL FREE ENERGY PREDICTED BY IDOCK:  -10.21 KCAL/MOL
REMARK 923 INTER-LIGAND FREE ENERGY PREDICTED BY IDOCK:   -9.31 KCAL/MOL
REMARK 924 INTRA-LIGAND FREE ENERGY PREDICTED BY IDOCK:   -0.89 KCAL/MOL
REMARK 927      BINDING AFFINITY PREDICTED BY RF-SCORE:    0.00 PKD
ROOT
HETATM    1  C   UNL     1     -11.011   6.107  68.798  1.00  0.00    -0.348 C  
HETATM    2  O   UNL     1     -11.655   6.918  69.780  1.00  0.00    -0.240 OA 
ENDROOT
BRANCH   2   3
HETATM    3  C   UNL     1     -11.167   6.770  71.043  1.00  0.00    -0.290 C  
HETATM    4  N   UNL     1     -10.684   7.954  71.578  1.00  0.00    -0.224 N  
HETATM    5  O   UNL     1     -11.149   5.699  71.640  1.00  0.00    -0.251 OA 
HETATM    6  C   UNL     1     -10.167   8.006  72.932  1.00  0.00    -0.314 C  
BRANCH   4   7
HETATM    7  C   UNL     1     -10.809   9.188  70.884  1.00  0.00    -0.278 A  
HETATM    8  C   UNL     1      -9.820   9.650  70.019  1.00  0.00    -0.246 A  
HETATM    9  N   UNL     1      -8.583   9.012  69.901  1.00  0.00    -0.130 NA 
HETATM   10  N   UNL     1      -9.956  10.771  69.303  1.00  0.00    -0.196 NA 
HETATM   11  H1  UNL     1      -7.859   9.350  69.267  1.00  0.00     0.000 HD 
HETATM   12  C   UNL     1     -11.100  11.462  69.470  1.00  0.00    -0.211 A  
HETATM   13  H2  UNL     1      -8.758   8.033  69.679  1.00  0.00     0.000 HD 
HETATM   14  N   UNL     1     -12.104  11.119  70.307  1.00  0.00    -0.347 NA 
HETATM   15  H2  UNL     1     -12.532   9.604  72.839  1.00  0.00     0.000 HD 
HETATM   16  H1  UNL     1     -13.789  10.266  72.001  1.00  0.00     0.000 HD 
HETATM   17  C   UNL     1     -11.943   9.984  71.001  1.00  0.00    -0.376 A  
HETATM   18  N   UNL     1     -12.957   9.682  71.915  1.00  0.00    -0.406 NA 
BRANCH  12  19
HETATM   19  C   UNL     1     -11.274  12.685  68.663  1.00  0.00    -0.282 A  
HETATM   20  C   UNL     1     -11.471  14.113  66.948  1.00  0.00    -0.357 A  
HETATM   21  N   UNL     1     -11.323  13.922  69.213  1.00  0.00    -0.263 NA 
HETATM   22  N   UNL     1     -11.506  14.751  68.155  1.00  0.00    -0.309 NA 
HETATM   23  C   UNL     1     -11.576  12.402  64.878  1.00  0.00    -0.392 A  
HETATM   24  N   UNL     1     -11.534  14.685  65.729  1.00  0.00    -0.344 NA 
HETATM   25  C   UNL     1     -11.400  12.759  67.240  1.00  0.00    -0.364 A  
HETATM   26  C   UNL     1     -11.576  13.782  64.724  1.00  0.00    -0.362 A  
HETATM   27  C   UNL     1     -11.475  11.862  66.160  1.00  0.00    -0.352 A  
BRANCH  22  28
HETATM   28  C   UNL     1     -11.654  16.185  68.357  1.00  0.00    -0.228 C  
BRANCH  28  29
HETATM   29  C   UNL     1     -10.342  16.931  68.414  1.00  0.00    -0.338 A  
HETATM   30  C   UNL     1      -9.021  18.862  67.728  1.00  0.00    -0.320 A  
HETATM   31  C   UNL     1      -7.855  18.232  68.155  1.00  0.00    -0.299 A  
HETATM   32  C   UNL     1     -10.248  18.215  67.867  1.00  0.00    -0.379 A  
HETATM   33  C   UNL     1      -7.930  16.975  68.751  1.00  0.00    -0.248 A  
HETATM   34  F   UNL     1     -11.350  18.836  67.423  1.00  0.00    -0.369 F  
HETATM   35  C   UNL     1      -9.164  16.326  68.881  1.00  0.00    -0.249 A  
ENDBRANCH  28  29
ENDBRANCH  22  28
ENDBRANCH  12  19
ENDBRANCH   4   7
ENDBRANCH   2   3
TORSDOF 5
ENDMDL
MODEL       24
REMARK 921   NORMALIZED FREE ENERGY PREDICTED BY IDOCK:   -7.22 KCAL/MOL
REMARK 922        TOTAL FREE ENERGY PREDICTED BY IDOCK:  -10.14 KCAL/MOL
REMARK 923 INTER-LIGAND FREE ENERGY PREDICTED BY IDOCK:   -9.21 KCAL/MOL
REMARK 924 INTRA-LIGAND FREE ENERGY PREDICTED BY IDOCK:   -0.93 KCAL/MOL
REMARK 927      BINDING AFFINITY PREDICTED BY RF-SCORE:    0.00 PKD
ROOT
HETATM    1  C   UNL     1      -9.582  17.243  66.543  1.00  0.00    -0.273 C  
HETATM    2  O   UNL     1      -9.819  15.925  66.052  1.00  0.00    -0.289 OA 
ENDROOT
BRANCH   2   3
HETATM    3  C   UNL     1     -10.821  15.836  65.134  1.00  0.00    -0.428 C  
HETATM    4  N   UNL     1     -11.513  14.637  65.202  1.00  0.00    -0.362 N  
HETATM    5  O   UNL     1     -11.079  16.722  64.325  1.00  0.00    -1.106 OA 
HETATM    6  C   UNL     1     -12.646  14.377  64.336  1.00  0.00    -0.168 C  
BRANCH   4   7
HETATM    7  C   UNL     1     -11.239  13.678  66.216  1.00  0.00    -0.305 A  
HETATM    8  C   UNL     1     -11.645  13.864  67.534  1.00  0.00    -0.360 A  
HETATM    9  N   UNL     1     -12.203  15.066  67.974  1.00  0.00    -0.498 NA 
HETATM   10  N   UNL     1     -11.460  12.940  68.482  1.00  0.00    -0.286 NA 
HETATM   11  H1  UNL     1     -12.501  15.203  68.940  1.00  0.00     0.000 HD 
HETATM   12  C   UNL     1     -10.835  11.807  68.110  1.00  0.00    -0.217 A  
HETATM   13  H2  UNL     1     -12.997  15.280  67.371  1.00  0.00     0.000 HD 
HETATM   14  N   UNL     1     -10.373  11.542  66.867  1.00  0.00    -0.216 NA 
HETATM   15  H2  UNL     1      -9.403  12.991  64.449  1.00  0.00     0.000 HD 
HETATM   16  H1  UNL     1      -9.557  11.349  64.473  1.00  0.00     0.000 HD 
HETATM   17  C   UNL     1     -10.585  12.484  65.937  1.00  0.00    -0.265 A  
HETATM   18  N   UNL     1     -10.037  12.226  64.677  1.00  0.00    -0.273 NA 
BRANCH  12  19
HETATM   19  C   UNL     1     -10.651  10.766  69.140  1.00  0.00    -0.222 A  
HETATM   20  C   UNL     1     -10.926   9.450  70.932  1.00  0.00    -0.320 A  
HETATM   21  N   UNL     1      -9.538   9.996  69.210  1.00  0.00    -0.204 NA 
HETATM   22  N   UNL     1      -9.768   9.172  70.263  1.00  0.00    -0.195 NA 
HETATM   23  C   UNL     1     -13.375  10.208  71.741  1.00  0.00    -0.485 A  
HETATM   24  N   UNL     1     -11.369   8.863  72.062  1.00  0.00    -0.368 NA 
HETATM   25  C   UNL     1     -11.566  10.429  70.186  1.00  0.00    -0.392 A  
HETATM   26  C   UNL     1     -12.599   9.285  72.429  1.00  0.00    -0.278 A  
HETATM   27  C   UNL     1     -12.855  10.812  70.596  1.00  0.00    -0.377 A  
BRANCH  22  28
HETATM   28  C   UNL     1      -8.797   8.152  70.629  1.00  0.00    -0.140 C  
BRANCH  28  29
HETATM   29  C   UNL     1      -8.901   6.889  69.809  1.00  0.00    -0.141 A  
HETATM   30  C   UNL     1      -9.696   4.591  69.628  1.00  0.00    -0.288 A  
HETATM   31  C   UNL     1      -8.862   4.376  68.534  1.00  0.00    -0.133 A  
HETATM   32  C   UNL     1      -9.714   5.839  70.248  1.00  0.00    -0.175 A  
HETATM   33  C   UNL     1      -8.081   5.422  68.045  1.00  0.00    -0.096 A  
HETATM   34  F   UNL     1     -10.508   6.008  71.315  1.00  0.00    -0.234 F  
HETATM   35  C   UNL     1      -8.098   6.671  68.677  1.00  0.00    -0.119 A  
ENDBRANCH  28  29
ENDBRANCH  22  28
ENDBRANCH  12  19
ENDBRANCH   4   7
ENDBRANCH   2   3
TORSDOF 5
ENDMDL
MODEL       25
REMARK 921   NORMALIZED FREE ENERGY PREDICTED BY IDOCK:   -7.21 KCAL/MOL
REMARK 922        TOTAL FREE ENERGY PREDICTED BY IDOCK:  -10.12 KCAL/MOL
REMARK 923 INTER-LIGAND FREE ENERGY PREDICTED BY IDOCK:   -9.21 KCAL/MOL
REMARK 924 INTRA-LIGAND FREE ENERGY PREDICTED BY IDOCK:   -0.91 KCAL/MOL
REMARK 927      BINDING AFFINITY PREDICTED BY RF-SCORE:    0.00 PKD
ROOT
HETATM    1  C   UNL     1     -12.498  13.701  63.635  1.00  0.00    -0.163 C  
HETATM    2  O   UNL     1     -12.469  14.480  64.830  1.00  0.00    -0.508 OA 
ENDROOT
BRANCH   2   3
HETATM    3  C   UNL     1     -11.528  15.465  64.839  1.00  0.00    -0.311 C  
HETATM    4  N   UNL     1     -10.607  15.325  65.865  1.00  0.00    -0.318 N  
HETATM    5  O   UNL     1     -11.505  16.387  64.029  1.00  0.00    -1.048 OA 
HETATM    6  C   UNL     1      -9.501  16.252  66.009  1.00  0.00    -0.334 C  
BRANCH   4   7
HETATM    7  C   UNL     1     -10.619  14.192  66.724  1.00  0.00    -0.277 A  
HETATM    8  C   UNL     1     -10.078  12.970  66.337  1.00  0.00    -0.279 A  
HETATM    9  N   UNL     1      -9.635  12.735  65.034  1.00  0.00    -0.479 NA 
HETATM   10  N   UNL     1     -10.015  11.917  67.159  1.00  0.00    -0.193 NA 
HETATM   11  H1  UNL     1      -9.238  11.840  64.750  1.00  0.00     0.000 HD 
HETATM   12  C   UNL     1     -10.525  12.082  68.395  1.00  0.00    -0.219 A  
HETATM   13  H2  UNL     1      -8.959  13.462  64.799  1.00  0.00     0.000 HD 
HETATM   14  N   UNL     1     -11.102  13.214  68.856  1.00  0.00    -0.264 NA 
HETATM   15  H2  UNL     1     -12.556  15.605  67.827  1.00  0.00     0.000 HD 
HETATM   16  H1  UNL     1     -12.182  15.438  69.425  1.00  0.00     0.000 HD 
HETATM   17  C   UNL     1     -11.138  14.255  68.012  1.00  0.00    -0.269 A  
HETATM   18  N   UNL     1     -11.801  15.393  68.479  1.00  0.00    -0.325 NA 
BRANCH  12  19
HETATM   19  C   UNL     1     -10.436  10.938  69.322  1.00  0.00    -0.202 A  
HETATM   20  C   UNL     1     -10.842   9.478  70.972  1.00  0.00    -0.353 A  
HETATM   21  N   UNL     1      -9.380  10.089  69.336  1.00  0.00    -0.211 NA 
HETATM   22  N   UNL     1      -9.690   9.186  70.299  1.00  0.00    -0.195 NA 
HETATM   23  C   UNL     1     -13.253  10.322  71.809  1.00  0.00    -0.534 A  
HETATM   24  N   UNL     1     -11.350   8.817  72.032  1.00  0.00    -0.361 NA 
HETATM   25  C   UNL     1     -11.396  10.566  70.314  1.00  0.00    -0.407 A  
HETATM   26  C   UNL     1     -12.557   9.286  72.418  1.00  0.00    -0.278 A  
HETATM   27  C   UNL     1     -12.666  10.996  70.738  1.00  0.00    -0.414 A  
BRANCH  22  28
HETATM   28  C   UNL     1      -8.798   8.071  70.581  1.00  0.00    -0.143 C  
BRANCH  28  29
HETATM   29  C   UNL     1      -8.825   6.988  69.529  1.00  0.00    -0.133 A  
HETATM   30  C   UNL     1      -9.783   4.893  68.731  1.00  0.00    -0.232 A  
HETATM   31  C   UNL     1      -8.731   4.739  67.832  1.00  0.00    -0.109 A  
HETATM   32  C   UNL     1      -9.826   6.011  69.562  1.00  0.00    -0.161 A  
HETATM   33  C   UNL     1      -7.749   5.725  67.744  1.00  0.00    -0.097 A  
HETATM   34  F   UNL     1     -10.837   6.118  70.434  1.00  0.00    -0.275 F  
HETATM   35  C   UNL     1      -7.793   6.843  68.587  1.00  0.00    -0.118 A  
ENDBRANCH  28  29
ENDBRANCH  22  28
ENDBRANCH  12  19
ENDBRANCH   4   7
ENDBRANCH   2   3
TORSDOF 5
ENDMDL
MODEL       26
REMARK 921   NORMALIZED FREE ENERGY PREDICTED BY IDOCK:   -7.19 KCAL/MOL
REMARK 922        TOTAL FREE ENERGY PREDICTED BY IDOCK:  -10.10 KCAL/MOL
REMARK 923 INTER-LIGAND FREE ENERGY PREDICTED BY IDOCK:   -9.12 KCAL/MOL
REMARK 924 INTRA-LIGAND FREE ENERGY PREDICTED BY IDOCK:   -0.99 KCAL/MOL
REMARK 927      BINDING AFFINITY PREDICTED BY RF-SCORE:    0.00 PKD
ROOT
HETATM    1  C   UNL     1     -12.879   7.506  71.886  1.00  0.00    -0.277 C  
HETATM    2  O   UNL     1     -12.297   6.653  70.902  1.00  0.00    -0.353 OA 
ENDROOT
BRANCH   2   3
HETATM    3  C   UNL     1     -11.148   6.038  71.295  1.00  0.00    -0.274 C  
HETATM    4  N   UNL     1     -10.048   6.411  70.538  1.00  0.00    -0.184 N  
HETATM    5  O   UNL     1     -11.093   5.231  72.217  1.00  0.00    -0.221 OA 
HETATM    6  C   UNL     1      -8.725   5.898  70.837  1.00  0.00    -0.131 C  
BRANCH   4   7
HETATM    7  C   UNL     1     -10.142   7.418  69.538  1.00  0.00    -0.187 A  
HETATM    8  C   UNL     1     -10.482   7.119  68.222  1.00  0.00    -0.198 A  
HETATM    9  N   UNL     1     -10.596   5.803  67.767  1.00  0.00    -0.243 NA 
HETATM   10  N   UNL     1     -10.646   8.062  67.288  1.00  0.00    -0.313 NA 
HETATM   11  H1  UNL     1     -10.846   5.583  66.803  1.00  0.00     0.000 HD 
HETATM   12  C   UNL     1     -10.446   9.337  67.673  1.00  0.00    -0.264 A  
HETATM   13  H2  UNL     1     -11.256   5.320  68.377  1.00  0.00     0.000 HD 
HETATM   14  N   UNL     1     -10.082   9.730  68.914  1.00  0.00    -0.175 NA 
HETATM   15  H2  UNL     1      -8.626   8.677  71.293  1.00  0.00     0.000 HD 
HETATM   16  H1  UNL     1      -9.340  10.164  71.301  1.00  0.00     0.000 HD 
HETATM   17  C   UNL     1      -9.937   8.762  69.830  1.00  0.00    -0.190 A  
HETATM   18  N   UNL     1      -9.490   9.178  71.087  1.00  0.00    -0.272 NA 
BRANCH  12  19
HETATM   19  C   UNL     1     -10.653  10.389  66.660  1.00  0.00    -0.178 A  
HETATM   20  C   UNL     1     -10.513  11.636  64.803  1.00  0.00    -0.295 A  
HETATM   21  N   UNL     1     -11.426  11.479  66.884  1.00  0.00    -0.483 NA 
HETATM   22  N   UNL     1     -11.369  12.174  65.721  1.00  0.00    -0.344 NA 
HETATM   23  C   UNL     1      -8.943  10.083  63.271  1.00  0.00    -0.275 A  
HETATM   24  N   UNL     1     -10.185  12.153  63.602  1.00  0.00    -0.429 NA 
HETATM   25  C   UNL     1     -10.088  10.432  65.346  1.00  0.00    -0.354 A  
HETATM   26  C   UNL     1      -9.388  11.338  62.876  1.00  0.00    -0.352 A  
HETATM   27  C   UNL     1      -9.283   9.610  64.539  1.00  0.00    -0.277 A  
BRANCH  22  28
HETATM   28  C   UNL     1     -12.125  13.408  65.561  1.00  0.00    -0.428 C  
BRANCH  28  29
HETATM   29  C   UNL     1     -11.437  14.624  66.134  1.00  0.00    -0.339 A  
HETATM   30  C   UNL     1     -11.164  16.164  68.005  1.00  0.00    -0.291 A  
HETATM   31  C   UNL     1     -10.491  17.063  67.181  1.00  0.00    -0.291 A  
HETATM   32  C   UNL     1     -11.622  14.956  67.480  1.00  0.00    -0.339 A  
HETATM   33  C   UNL     1     -10.248  16.731  65.850  1.00  0.00    -0.345 A  
HETATM   34  F   UNL     1     -12.289  14.123  68.291  1.00  0.00    -0.373 F  
HETATM   35  C   UNL     1     -10.718  15.520  65.327  1.00  0.00    -0.440 A  
ENDBRANCH  28  29
ENDBRANCH  22  28
ENDBRANCH  12  19
ENDBRANCH   4   7
ENDBRANCH   2   3
TORSDOF 5
ENDMDL
MODEL       27
REMARK 921   NORMALIZED FREE ENERGY PREDICTED BY IDOCK:   -7.16 KCAL/MOL
REMARK 922        TOTAL FREE ENERGY PREDICTED BY IDOCK:  -10.05 KCAL/MOL
REMARK 923 INTER-LIGAND FREE ENERGY PREDICTED BY IDOCK:   -9.50 KCAL/MOL
REMARK 924 INTRA-LIGAND FREE ENERGY PREDICTED BY IDOCK:   -0.55 KCAL/MOL
REMARK 927      BINDING AFFINITY PREDICTED BY RF-SCORE:    0.00 PKD
ROOT
HETATM    1  C   UNL     1     -10.263   6.857  74.070  1.00  0.00    -0.350 C  
HETATM    2  O   UNL     1      -9.729   7.113  72.773  1.00  0.00    -0.148 OA 
ENDROOT
BRANCH   2   3
HETATM    3  C   UNL     1      -9.926   6.111  71.872  1.00  0.00    -0.164 C  
HETATM    4  N   UNL     1     -10.597   6.530  70.733  1.00  0.00    -0.223 N  
HETATM    5  O   UNL     1      -9.558   4.955  72.054  1.00  0.00    -0.146 OA 
HETATM    6  C   UNL     1     -10.857   5.615  69.640  1.00  0.00    -0.295 C  
BRANCH   4   7
HETATM    7  C   UNL     1     -10.924   7.898  70.526  1.00  0.00    -0.248 A  
HETATM    8  C   UNL     1     -12.154   8.426  70.908  1.00  0.00    -0.138 A  
HETATM    9  N   UNL     1     -13.196   7.619  71.370  1.00  0.00    -0.488 NA 
HETATM   10  N   UNL     1     -12.449   9.725  70.787  1.00  0.00    -0.253 NA 
HETATM   11  H1  UNL     1     -14.097   8.006  71.650  1.00  0.00     0.000 HD 
HETATM   12  C   UNL     1     -11.498  10.515  70.252  1.00  0.00    -0.333 A  
HETATM   13  H2  UNL     1     -12.839   7.067  72.150  1.00  0.00     0.000 HD 
HETATM   14  N   UNL     1     -10.288  10.096  69.820  1.00  0.00    -0.249 NA 
HETATM   15  H2  UNL     1      -8.982   7.635  68.759  1.00  0.00     0.000 HD 
HETATM   16  H1  UNL     1      -8.128   9.019  69.037  1.00  0.00     0.000 HD 
HETATM   17  C   UNL     1     -10.019   8.792  69.966  1.00  0.00    -0.187 A  
HETATM   18  N   UNL     1      -8.793   8.363  69.448  1.00  0.00    -0.141 NA 
BRANCH  12  19
HETATM   19  C   UNL     1     -11.800  11.955  70.141  1.00  0.00    -0.308 A  
HETATM   20  C   UNL     1     -12.698  13.987  70.432  1.00  0.00    -0.253 A  
HETATM   21  N   UNL     1     -11.239  12.748  69.197  1.00  0.00    -0.254 NA 
HETATM   22  N   UNL     1     -11.755  13.978  69.444  1.00  0.00    -0.293 NA 
HETATM   23  C   UNL     1     -14.270  13.541  72.567  1.00  0.00    -0.342 A  
HETATM   24  N   UNL     1     -13.443  15.038  70.831  1.00  0.00    -0.380 NA 
HETATM   25  C   UNL     1     -12.699  12.705  70.962  1.00  0.00    -0.316 A  
HETATM   26  C   UNL     1     -14.220  14.758  71.901  1.00  0.00    -0.544 A  
HETATM   27  C   UNL     1     -13.505  12.475  72.091  1.00  0.00    -0.523 A  
BRANCH  22  28
HETATM   28  C   UNL     1     -11.346  15.125  68.647  1.00  0.00    -0.310 C  
BRANCH  28  29
HETATM   29  C   UNL     1     -11.443  14.899  67.157  1.00  0.00    -0.344 A  
HETATM   30  C   UNL     1     -10.873  15.637  64.904  1.00  0.00    -0.438 A  
HETATM   31  C   UNL     1     -11.839  14.789  64.369  1.00  0.00    -0.393 A  
HETATM   32  C   UNL     1     -10.679  15.680  66.284  1.00  0.00    -0.295 A  
HETATM   33  C   UNL     1     -12.576  13.962  65.215  1.00  0.00    -0.508 A  
HETATM   34  F   UNL     1      -9.760  16.525  66.772  1.00  0.00    -0.229 F  
HETATM   35  C   UNL     1     -12.382  14.015  66.600  1.00  0.00    -0.408 A  
ENDBRANCH  28  29
ENDBRANCH  22  28
ENDBRANCH  12  19
ENDBRANCH   4   7
ENDBRANCH   2   3
TORSDOF 5
ENDMDL
MODEL       28
REMARK 921   NORMALIZED FREE ENERGY PREDICTED BY IDOCK:   -7.13 KCAL/MOL
REMARK 922        TOTAL FREE ENERGY PREDICTED BY IDOCK:  -10.02 KCAL/MOL
REMARK 923 INTER-LIGAND FREE ENERGY PREDICTED BY IDOCK:   -9.12 KCAL/MOL
REMARK 924 INTRA-LIGAND FREE ENERGY PREDICTED BY IDOCK:   -0.90 KCAL/MOL
REMARK 927      BINDING AFFINITY PREDICTED BY RF-SCORE:    0.00 PKD
ROOT
HETATM    1  C   UNL     1     -13.874   6.994  71.464  1.00  0.00    -0.237 C  
HETATM    2  O   UNL     1     -12.543   6.842  70.974  1.00  0.00    -0.374 OA 
ENDROOT
BRANCH   2   3
HETATM    3  C   UNL     1     -11.578   6.898  71.934  1.00  0.00    -0.286 C  
HETATM    4  N   UNL     1     -10.642   7.894  71.704  1.00  0.00    -0.217 N  
HETATM    5  O   UNL     1     -11.537   6.138  72.897  1.00  0.00    -0.181 OA 
HETATM    6  C   UNL     1      -9.564   8.138  72.643  1.00  0.00    -0.282 C  
BRANCH   4   7
HETATM    7  C   UNL     1     -10.781   8.808  70.625  1.00  0.00    -0.225 A  
HETATM    8  C   UNL     1     -11.585   9.941  70.719  1.00  0.00    -0.349 A  
HETATM    9  N   UNL     1     -12.423  10.165  71.813  1.00  0.00    -0.393 NA 
HETATM   10  N   UNL     1     -11.668  10.848  69.740  1.00  0.00    -0.307 NA 
HETATM   11  H1  UNL     1     -13.012  10.995  71.882  1.00  0.00     0.000 HD 
HETATM   12  C   UNL     1     -10.945  10.609  68.630  1.00  0.00    -0.246 A  
HETATM   13  H2  UNL     1     -11.853  10.118  72.656  1.00  0.00     0.000 HD 
HETATM   14  N   UNL     1     -10.162   9.527  68.425  1.00  0.00    -0.186 NA 
HETATM   15  H2  UNL     1      -9.943   6.685  69.301  1.00  0.00     0.000 HD 
HETATM   16  H1  UNL     1      -8.828   7.372  68.298  1.00  0.00     0.000 HD 
HETATM   17  C   UNL     1     -10.090   8.642  69.430  1.00  0.00    -0.204 A  
HETATM   18  N   UNL     1      -9.335   7.494  69.175  1.00  0.00    -0.147 NA 
BRANCH  12  19
HETATM   19  C   UNL     1     -11.005  11.618  67.554  1.00  0.00    -0.259 A  
HETATM   20  C   UNL     1     -10.796  12.671  65.587  1.00  0.00    -0.274 A  
HETATM   21  N   UNL     1     -11.429  12.887  67.765  1.00  0.00    -0.301 NA 
HETATM   22  N   UNL     1     -11.350  13.473  66.544  1.00  0.00    -0.311 NA 
HETATM   23  C   UNL     1      -9.906  10.665  64.034  1.00  0.00    -0.399 A  
HETATM   24  N   UNL     1     -10.509  13.009  64.314  1.00  0.00    -0.413 NA 
HETATM   25  C   UNL     1     -10.630  11.431  66.186  1.00  0.00    -0.316 A  
HETATM   26  C   UNL     1     -10.058  11.968  63.580  1.00  0.00    -0.424 A  
HETATM   27  C   UNL     1     -10.184  10.376  65.371  1.00  0.00    -0.329 A  
BRANCH  22  28
HETATM   28  C   UNL     1     -11.772  14.853  66.358  1.00  0.00    -0.190 C  
BRANCH  28  29
HETATM   29  C   UNL     1     -10.772  15.869  66.857  1.00  0.00    -0.289 A  
HETATM   30  C   UNL     1     -10.199  17.588  68.489  1.00  0.00    -0.378 A  
HETATM   31  C   UNL     1      -9.157  18.028  67.678  1.00  0.00    -0.255 A  
HETATM   32  C   UNL     1     -10.989  16.515  68.079  1.00  0.00    -0.320 A  
HETATM   33  C   UNL     1      -8.889  17.367  66.480  1.00  0.00    -0.290 A  
HETATM   34  F   UNL     1     -12.001  16.130  68.870  1.00  0.00    -0.368 F  
HETATM   35  C   UNL     1      -9.690  16.295  66.070  1.00  0.00    -0.370 A  
ENDBRANCH  28  29
ENDBRANCH  22  28
ENDBRANCH  12  19
ENDBRANCH   4   7
ENDBRANCH   2   3
TORSDOF 5
ENDMDL
MODEL       29
REMARK 921   NORMALIZED FREE ENERGY PREDICTED BY IDOCK:   -7.02 KCAL/MOL
REMARK 922        TOTAL FREE ENERGY PREDICTED BY IDOCK:   -9.88 KCAL/MOL
REMARK 923 INTER-LIGAND FREE ENERGY PREDICTED BY IDOCK:   -8.74 KCAL/MOL
REMARK 924 INTRA-LIGAND FREE ENERGY PREDICTED BY IDOCK:   -1.14 KCAL/MOL
REMARK 927      BINDING AFFINITY PREDICTED BY RF-SCORE:    0.00 PKD
ROOT
HETATM    1  C   UNL     1     -11.091   7.733  73.064  1.00  0.00    -0.359 C  
HETATM    2  O   UNL     1     -11.064   6.976  71.855  1.00  0.00    -0.233 OA 
ENDROOT
BRANCH   2   3
HETATM    3  C   UNL     1      -9.951   6.208  71.695  1.00  0.00    -0.177 C  
HETATM    4  N   UNL     1      -9.278   6.470  70.512  1.00  0.00    -0.155 N  
HETATM    5  O   UNL     1      -9.587   5.365  72.508  1.00  0.00    -0.148 OA 
HETATM    6  C   UNL     1      -8.042   5.785  70.187  1.00  0.00    -0.108 C  
BRANCH   4   7
HETATM    7  C   UNL     1      -9.685   7.519  69.643  1.00  0.00    -0.167 A  
HETATM    8  C   UNL     1      -9.314   8.843  69.863  1.00  0.00    -0.166 A  
HETATM    9  N   UNL     1      -8.657   9.244  71.028  1.00  0.00    -0.290 NA 
HETATM   10  N   UNL     1      -9.627   9.829  69.016  1.00  0.00    -0.169 NA 
HETATM   11  H1  UNL     1      -8.384  10.213  71.189  1.00  0.00     0.000 HD 
HETATM   12  C   UNL     1     -10.346   9.489  67.929  1.00  0.00    -0.227 A  
HETATM   13  H2  UNL     1      -7.823   8.666  71.129  1.00  0.00     0.000 HD 
HETATM   14  N   UNL     1     -10.784   8.243  67.641  1.00  0.00    -0.182 NA 
HETATM   15  H2  UNL     1     -11.510   5.712  69.039  1.00  0.00     0.000 HD 
HETATM   16  H1  UNL     1     -11.522   5.828  67.394  1.00  0.00     0.000 HD 
HETATM   17  C   UNL     1     -10.444   7.275  68.504  1.00  0.00    -0.188 A  
HETATM   18  N   UNL     1     -10.965   6.008  68.230  1.00  0.00    -0.300 NA 
BRANCH  12  19
HETATM   19  C   UNL     1     -10.673  10.563  66.971  1.00  0.00    -0.250 A  
HETATM   20  C   UNL     1     -10.756  11.850  65.140  1.00  0.00    -0.291 A  
HETATM   21  N   UNL     1     -11.412  11.646  67.311  1.00  0.00    -0.466 NA 
HETATM   22  N   UNL     1     -11.495  12.367  66.166  1.00  0.00    -0.359 NA 
HETATM   23  C   UNL     1      -9.383  10.334  63.396  1.00  0.00    -0.340 A  
HETATM   24  N   UNL     1     -10.575  12.394  63.919  1.00  0.00    -0.404 NA 
HETATM   25  C   UNL     1     -10.270  10.636  65.601  1.00  0.00    -0.319 A  
HETATM   26  C   UNL     1      -9.871  11.596  63.085  1.00  0.00    -0.382 A  
HETATM   27  C   UNL     1      -9.569   9.833  64.684  1.00  0.00    -0.244 A  
BRANCH  22  28
HETATM   28  C   UNL     1     -12.263  13.603  66.124  1.00  0.00    -0.444 C  
BRANCH  28  29
HETATM   29  C   UNL     1     -11.517  14.803  66.658  1.00  0.00    -0.339 A  
HETATM   30  C   UNL     1     -11.127  16.353  68.499  1.00  0.00    -0.357 A  
HETATM   31  C   UNL     1     -10.459  17.223  67.641  1.00  0.00    -0.363 A  
HETATM   32  C   UNL     1     -11.641  15.154  68.006  1.00  0.00    -0.328 A  
HETATM   33  C   UNL     1     -10.278  16.870  66.305  1.00  0.00    -0.337 A  
HETATM   34  F   UNL     1     -12.301  14.349  68.851  1.00  0.00    -0.334 F  
HETATM   35  C   UNL     1     -10.803  15.669  65.814  1.00  0.00    -0.312 A  
ENDBRANCH  28  29
ENDBRANCH  22  28
ENDBRANCH  12  19
ENDBRANCH   4   7
ENDBRANCH   2   3
TORSDOF 5
ENDMDL
MODEL       30
REMARK 921   NORMALIZED FREE ENERGY PREDICTED BY IDOCK:   -6.96 KCAL/MOL
REMARK 922        TOTAL FREE ENERGY PREDICTED BY IDOCK:   -9.80 KCAL/MOL
REMARK 923 INTER-LIGAND FREE ENERGY PREDICTED BY IDOCK:   -9.19 KCAL/MOL
REMARK 924 INTRA-LIGAND FREE ENERGY PREDICTED BY IDOCK:   -0.61 KCAL/MOL
REMARK 927      BINDING AFFINITY PREDICTED BY RF-SCORE:    0.00 PKD
ROOT
HETATM    1  C   UNL     1      -6.817   7.528  69.150  1.00  0.00    -0.056 C  
HETATM    2  O   UNL     1      -7.924   7.656  70.041  1.00  0.00    -0.109 OA 
ENDROOT
BRANCH   2   3
HETATM    3  C   UNL     1      -8.733   6.562  70.097  1.00  0.00    -0.140 C  
HETATM    4  N   UNL     1     -10.058   6.852  69.811  1.00  0.00    -0.182 N  
HETATM    5  O   UNL     1      -8.332   5.437  70.382  1.00  0.00    -0.108 OA 
HETATM    6  C   UNL     1     -11.061   5.807  69.775  1.00  0.00    -0.248 C  
BRANCH   4   7
HETATM    7  C   UNL     1     -10.460   8.152  69.398  1.00  0.00    -0.220 A  
HETATM    8  C   UNL     1     -10.891   9.112  70.309  1.00  0.00    -0.246 A  
HETATM    9  N   UNL     1     -11.104   8.813  71.656  1.00  0.00    -0.301 NA 
HETATM   10  N   UNL     1     -11.202  10.361  69.945  1.00  0.00    -0.285 NA 
HETATM   11  H1  UNL     1     -11.419   9.517  72.324  1.00  0.00     0.000 HD 
HETATM   12  C   UNL     1     -11.100  10.654  68.635  1.00  0.00    -0.263 A  
HETATM   13  H2  UNL     1     -10.247   8.400  72.022  1.00  0.00     0.000 HD 
HETATM   14  N   UNL     1     -10.725   9.786  67.668  1.00  0.00    -0.277 NA 
HETATM   15  H2  UNL     1     -10.739   6.857  67.116  1.00  0.00     0.000 HD 
HETATM   16  H1  UNL     1     -10.056   7.934  66.070  1.00  0.00     0.000 HD 
HETATM   17  C   UNL     1     -10.408   8.547  68.067  1.00  0.00    -0.217 A  
HETATM   18  N   UNL     1     -10.094   7.644  67.047  1.00  0.00    -0.240 NA 
BRANCH  12  19
HETATM   19  C   UNL     1     -11.412  12.036  68.225  1.00  0.00    -0.303 A  
HETATM   20  C   UNL     1     -11.759  13.886  67.009  1.00  0.00    -0.397 A  
HETATM   21  N   UNL     1     -11.621  13.034  69.117  1.00  0.00    -0.298 NA 
HETATM   22  N   UNL     1     -11.890  14.119  68.348  1.00  0.00    -0.348 NA 
HETATM   23  C   UNL     1     -11.622  12.884  64.518  1.00  0.00    -0.400 A  
HETATM   24  N   UNL     1     -11.874  14.790  66.015  1.00  0.00    -0.263 NA 
HETATM   25  C   UNL     1     -11.526  12.524  66.885  1.00  0.00    -0.416 A  
HETATM   26  C   UNL     1     -11.789  14.237  64.785  1.00  0.00    -0.429 A  
HETATM   27  C   UNL     1     -11.473  11.995  65.583  1.00  0.00    -0.372 A  
BRANCH  22  28
HETATM   28  C   UNL     1     -12.216  15.397  68.963  1.00  0.00    -0.136 C  
BRANCH  28  29
HETATM   29  C   UNL     1     -12.514  15.305  70.440  1.00  0.00    -0.426 A  
HETATM   30  C   UNL     1     -11.668  15.105  72.719  1.00  0.00    -0.442 A  
HETATM   31  C   UNL     1     -12.942  14.777  73.175  1.00  0.00    -0.623 A  
HETATM   32  C   UNL     1     -11.467  15.372  71.366  1.00  0.00    -0.406 A  
HETATM   33  C   UNL     1     -14.011  14.755  72.281  1.00  0.00    -0.598 A  
HETATM   34  F   UNL     1     -10.224  15.660  70.952  1.00  0.00    -0.175 F  
HETATM   35  C   UNL     1     -13.801  15.017  70.922  1.00  0.00    -0.269 A  
ENDBRANCH  28  29
ENDBRANCH  22  28
ENDBRANCH  12  19
ENDBRANCH   4   7
ENDBRANCH   2   3
TORSDOF 5
ENDMDL
MODEL       31
REMARK 921   NORMALIZED FREE ENERGY PREDICTED BY IDOCK:   -6.96 KCAL/MOL
REMARK 922        TOTAL FREE ENERGY PREDICTED BY IDOCK:   -9.79 KCAL/MOL
REMARK 923 INTER-LIGAND FREE ENERGY PREDICTED BY IDOCK:   -9.20 KCAL/MOL
REMARK 924 INTRA-LIGAND FREE ENERGY PREDICTED BY IDOCK:   -0.60 KCAL/MOL
REMARK 927      BINDING AFFINITY PREDICTED BY RF-SCORE:    0.00 PKD
ROOT
HETATM    1  C   UNL     1      -7.046   8.094  68.954  1.00  0.00    -0.066 C  
HETATM    2  O   UNL     1      -8.125   8.037  69.884  1.00  0.00    -0.112 OA 
ENDROOT
BRANCH   2   3
HETATM    3  C   UNL     1      -8.927   6.944  69.754  1.00  0.00    -0.141 C  
HETATM    4  N   UNL     1     -10.276   7.263  69.717  1.00  0.00    -0.205 N  
HETATM    5  O   UNL     1      -8.500   5.796  69.687  1.00  0.00    -0.110 OA 
HETATM    6  C   UNL     1     -11.282   6.235  69.535  1.00  0.00    -0.430 C  
BRANCH   4   7
HETATM    7  C   UNL     1     -10.719   8.613  69.706  1.00  0.00    -0.215 A  
HETATM    8  C   UNL     1     -11.094   9.274  70.873  1.00  0.00    -0.306 A  
HETATM    9  N   UNL     1     -11.210   8.610  72.096  1.00  0.00    -0.364 NA 
HETATM   10  N   UNL     1     -11.443  10.565  70.889  1.00  0.00    -0.297 NA 
HETATM   11  H1  UNL     1     -11.484   9.093  72.951  1.00  0.00     0.000 HD 
HETATM   12  C   UNL     1     -11.436  11.209  69.707  1.00  0.00    -0.312 A  
HETATM   13  H2  UNL     1     -10.325   8.136  72.277  1.00  0.00     0.000 HD 
HETATM   14  N   UNL     1     -11.122  10.653  68.516  1.00  0.00    -0.244 NA 
HETATM   15  H2  UNL     1     -11.144   7.988  67.178  1.00  0.00     0.000 HD 
HETATM   16  H1  UNL     1     -10.547   9.331  66.428  1.00  0.00     0.000 HD 
HETATM   17  C   UNL     1     -10.765   9.361  68.535  1.00  0.00    -0.161 A  
HETATM   18  N   UNL     1     -10.514   8.782  67.288  1.00  0.00    -0.288 NA 
BRANCH  12  19
HETATM   19  C   UNL     1     -11.790  12.642  69.716  1.00  0.00    -0.309 A  
HETATM   20  C   UNL     1     -12.667  14.631  70.259  1.00  0.00    -0.273 A  
HETATM   21  N   UNL     1     -11.444  13.487  68.715  1.00  0.00    -0.287 NA 
HETATM   22  N   UNL     1     -11.933  14.689  69.109  1.00  0.00    -0.308 NA 
HETATM   23  C   UNL     1     -13.782  14.057  72.637  1.00  0.00    -0.586 A  
HETATM   24  N   UNL     1     -13.346  15.642  70.838  1.00  0.00    -0.545 NA 
HETATM   25  C   UNL     1     -12.531  13.331  70.726  1.00  0.00    -0.403 A  
HETATM   26  C   UNL     1     -13.894  15.298  72.025  1.00  0.00    -0.522 A  
HETATM   27  C   UNL     1     -13.097  13.035  71.979  1.00  0.00    -0.481 A  
BRANCH  22  28
HETATM   28  C   UNL     1     -11.716  15.877  68.296  1.00  0.00    -0.186 C  
BRANCH  28  29
HETATM   29  C   UNL     1     -10.366  16.520  68.506  1.00  0.00    -0.289 A  
HETATM   30  C   UNL     1      -8.797  18.292  67.917  1.00  0.00    -0.278 A  
HETATM   31  C   UNL     1      -7.764  17.603  68.546  1.00  0.00    -0.281 A  
HETATM   32  C   UNL     1     -10.083  17.753  67.908  1.00  0.00    -0.342 A  
HETATM   33  C   UNL     1      -8.032  16.398  69.194  1.00  0.00    -0.204 A  
HETATM   34  F   UNL     1     -11.051  18.427  67.273  1.00  0.00    -0.399 F  
HETATM   35  C   UNL     1      -9.324  15.857  69.175  1.00  0.00    -0.252 A  
ENDBRANCH  28  29
ENDBRANCH  22  28
ENDBRANCH  12  19
ENDBRANCH   4   7
ENDBRANCH   2   3
TORSDOF 5
ENDMDL
MODEL       32
REMARK 921   NORMALIZED FREE ENERGY PREDICTED BY IDOCK:   -6.94 KCAL/MOL
REMARK 922        TOTAL FREE ENERGY PREDICTED BY IDOCK:   -9.77 KCAL/MOL
REMARK 923 INTER-LIGAND FREE ENERGY PREDICTED BY IDOCK:   -9.11 KCAL/MOL
REMARK 924 INTRA-LIGAND FREE ENERGY PREDICTED BY IDOCK:   -0.66 KCAL/MOL
REMARK 927      BINDING AFFINITY PREDICTED BY RF-SCORE:    0.00 PKD
ROOT
HETATM    1  C   UNL     1     -10.181  19.592  68.763  1.00  0.00    -0.349 C  
HETATM    2  O   UNL     1     -10.143  18.948  67.491  1.00  0.00    -0.328 OA 
ENDROOT
BRANCH   2   3
HETATM    3  C   UNL     1      -8.969  19.096  66.817  1.00  0.00    -0.311 C  
HETATM    4  N   UNL     1      -8.305  17.896  66.613  1.00  0.00    -0.252 N  
HETATM    5  O   UNL     1      -8.538  20.181  66.439  1.00  0.00    -0.302 OA 
HETATM    6  C   UNL     1      -7.060  17.846  65.873  1.00  0.00    -0.262 C  
BRANCH   4   7
HETATM    7  C   UNL     1      -8.886  16.654  66.989  1.00  0.00    -0.199 A  
HETATM    8  C   UNL     1      -9.873  16.041  66.222  1.00  0.00    -0.308 A  
HETATM    9  N   UNL     1     -10.464  16.678  65.129  1.00  0.00    -0.672 NA 
HETATM   10  N   UNL     1     -10.376  14.839  66.522  1.00  0.00    -0.279 NA 
HETATM   11  H1  UNL     1     -11.187  16.230  64.567  1.00  0.00     0.000 HD 
HETATM   12  C   UNL     1      -9.896  14.241  67.629  1.00  0.00    -0.224 A  
HETATM   13  H2  UNL     1      -9.717  16.971  64.499  1.00  0.00     0.000 HD 
HETATM   14  N   UNL     1      -8.965  14.764  68.458  1.00  0.00    -0.177 NA 
HETATM   15  H2  UNL     1      -7.936  17.423  69.328  1.00  0.00     0.000 HD 
HETATM   16  H1  UNL     1      -7.261  16.015  69.860  1.00  0.00     0.000 HD 
HETATM   17  C   UNL     1      -8.472  15.964  68.123  1.00  0.00    -0.167 A  
HETATM   18  N   UNL     1      -7.565  16.522  69.028  1.00  0.00    -0.232 NA 
BRANCH  12  19
HETATM   19  C   UNL     1     -10.422  12.901  67.955  1.00  0.00    -0.230 A  
HETATM   20  C   UNL     1     -10.912  10.716  67.891  1.00  0.00    -0.295 A  
HETATM   21  N   UNL     1     -11.273  12.680  68.985  1.00  0.00    -0.268 NA 
HETATM   22  N   UNL     1     -11.496  11.343  68.954  1.00  0.00    -0.267 NA 
HETATM   23  C   UNL     1      -9.389   9.918  65.824  1.00  0.00    -0.259 A  
HETATM   24  N   UNL     1     -11.032   9.416  67.552  1.00  0.00    -0.139 NA 
HETATM   25  C   UNL     1     -10.140  11.682  67.262  1.00  0.00    -0.221 A  
HETATM   26  C   UNL     1     -10.254   9.070  66.503  1.00  0.00    -0.248 A  
HETATM   27  C   UNL     1      -9.328  11.262  66.193  1.00  0.00    -0.230 A  
BRANCH  22  28
HETATM   28  C   UNL     1     -12.343  10.711  69.955  1.00  0.00    -0.269 C  
BRANCH  28  29
HETATM   29  C   UNL     1     -11.626   9.687  70.802  1.00  0.00    -0.395 A  
HETATM   30  C   UNL     1     -11.740   8.007  72.566  1.00  0.00    -0.446 A  
HETATM   31  C   UNL     1     -10.351   8.009  72.674  1.00  0.00    -0.398 A  
HETATM   32  C   UNL     1     -12.362   8.834  71.632  1.00  0.00    -0.337 A  
HETATM   33  C   UNL     1      -9.594   8.812  71.822  1.00  0.00    -0.371 A  
HETATM   34  F   UNL     1     -13.701   8.828  71.569  1.00  0.00    -0.372 F  
HETATM   35  C   UNL     1     -10.225   9.646  70.891  1.00  0.00    -0.303 A  
ENDBRANCH  28  29
ENDBRANCH  22  28
ENDBRANCH  12  19
ENDBRANCH   4   7
ENDBRANCH   2   3
TORSDOF 5
ENDMDL
MODEL       33
REMARK 921   NORMALIZED FREE ENERGY PREDICTED BY IDOCK:   -6.91 KCAL/MOL
REMARK 922        TOTAL FREE ENERGY PREDICTED BY IDOCK:   -9.73 KCAL/MOL
REMARK 923 INTER-LIGAND FREE ENERGY PREDICTED BY IDOCK:   -8.81 KCAL/MOL
REMARK 924 INTRA-LIGAND FREE ENERGY PREDICTED BY IDOCK:   -0.93 KCAL/MOL
REMARK 927      BINDING AFFINITY PREDICTED BY RF-SCORE:    0.00 PKD
ROOT
HETATM    1  C   UNL     1     -10.822   6.072  68.556  1.00  0.00    -0.286 C  
HETATM    2  O   UNL     1     -11.272   7.203  69.300  1.00  0.00    -0.128 OA 
ENDROOT
BRANCH   2   3
HETATM    3  C   UNL     1     -11.006   7.143  70.634  1.00  0.00    -0.258 C  
HETATM    4  N   UNL     1     -10.454   8.315  71.129  1.00  0.00    -0.205 N  
HETATM    5  O   UNL     1     -11.222   6.152  71.324  1.00  0.00    -0.283 OA 
HETATM    6  C   UNL     1     -10.146   8.459  72.538  1.00  0.00    -0.292 C  
BRANCH   4   7
HETATM    7  C   UNL     1     -10.305   9.468  70.312  1.00  0.00    -0.269 A  
HETATM    8  C   UNL     1      -9.154   9.695  69.562  1.00  0.00    -0.199 A  
HETATM    9  N   UNL     1      -8.018   8.893  69.687  1.00  0.00    -0.089 NA 
HETATM   10  N   UNL     1      -9.029  10.736  68.733  1.00  0.00    -0.165 NA 
HETATM   11  H1  UNL     1      -7.175   9.059  69.138  1.00  0.00     0.000 HD 
HETATM   12  C   UNL     1     -10.072  11.585  68.663  1.00  0.00    -0.207 A  
HETATM   13  H2  UNL     1      -8.303   7.926  69.535  1.00  0.00     0.000 HD 
HETATM   14  N   UNL     1     -11.218  11.474  69.372  1.00  0.00    -0.260 NA 
HETATM   15  H2  UNL     1     -12.194  10.323  71.944  1.00  0.00     0.000 HD 
HETATM   16  H1  UNL     1     -13.219  11.045  70.872  1.00  0.00     0.000 HD 
HETATM   17  C   UNL     1     -11.317  10.413  70.186  1.00  0.00    -0.323 A  
HETATM   18  N   UNL     1     -12.476  10.352  70.964  1.00  0.00    -0.352 NA 
BRANCH  12  19
HETATM   19  C   UNL     1      -9.958  12.722  67.729  1.00  0.00    -0.219 A  
HETATM   20  C   UNL     1     -10.271  14.125  66.011  1.00  0.00    -0.308 A  
HETATM   21  N   UNL     1      -8.976  13.650  67.823  1.00  0.00    -0.185 NA 
HETATM   22  N   UNL     1      -9.234  14.514  66.810  1.00  0.00    -0.255 NA 
HETATM   23  C   UNL     1     -12.493  13.086  64.910  1.00  0.00    -0.512 A  
HETATM   24  N   UNL     1     -10.696  14.732  64.884  1.00  0.00    -0.421 NA 
HETATM   25  C   UNL     1     -10.817  13.006  66.622  1.00  0.00    -0.291 A  
HETATM   26  C   UNL     1     -11.809  14.166  64.367  1.00  0.00    -0.428 A  
HETATM   27  C   UNL     1     -11.991  12.473  66.058  1.00  0.00    -0.456 A  
BRANCH  22  28
HETATM   28  C   UNL     1      -8.402  15.692  66.613  1.00  0.00    -0.275 C  
BRANCH  28  29
HETATM   29  C   UNL     1      -9.019  16.968  67.133  1.00  0.00    -0.234 A  
HETATM   30  C   UNL     1      -8.899  19.394  67.345  1.00  0.00    -0.349 A  
HETATM   31  C   UNL     1      -9.874  19.368  68.339  1.00  0.00    -0.513 A  
HETATM   32  C   UNL     1      -8.487  18.204  66.749  1.00  0.00    -0.259 A  
HETATM   33  C   UNL     1     -10.456  18.154  68.702  1.00  0.00    -0.212 A  
HETATM   34  F   UNL     1      -7.529  18.259  65.813  1.00  0.00    -0.287 F  
HETATM   35  C   UNL     1     -10.033  16.961  68.105  1.00  0.00    -0.285 A  
ENDBRANCH  28  29
ENDBRANCH  22  28
ENDBRANCH  12  19
ENDBRANCH   4   7
ENDBRANCH   2   3
TORSDOF 5
ENDMDL
MODEL       34
REMARK 921   NORMALIZED FREE ENERGY PREDICTED BY IDOCK:   -6.91 KCAL/MOL
REMARK 922        TOTAL FREE ENERGY PREDICTED BY IDOCK:   -9.73 KCAL/MOL
REMARK 923 INTER-LIGAND FREE ENERGY PREDICTED BY IDOCK:   -8.85 KCAL/MOL
REMARK 924 INTRA-LIGAND FREE ENERGY PREDICTED BY IDOCK:   -0.87 KCAL/MOL
REMARK 927      BINDING AFFINITY PREDICTED BY RF-SCORE:    0.00 PKD
ROOT
HETATM    1  C   UNL     1      -8.937   7.322  73.262  1.00  0.00    -0.152 C  
HETATM    2  O   UNL     1      -8.861   7.536  71.854  1.00  0.00    -0.113 OA 
ENDROOT
BRANCH   2   3
HETATM    3  C   UNL     1      -9.477   6.580  71.103  1.00  0.00    -0.167 C  
HETATM    4  N   UNL     1     -10.518   7.081  70.337  1.00  0.00    -0.203 N  
HETATM    5  O   UNL     1      -9.150   5.398  71.112  1.00  0.00    -0.138 OA 
HETATM    6  C   UNL     1     -11.263   6.223  69.436  1.00  0.00    -0.420 C  
BRANCH   4   7
HETATM    7  C   UNL     1     -10.802   8.473  70.289  1.00  0.00    -0.238 A  
HETATM    8  C   UNL     1     -10.231   9.308  69.333  1.00  0.00    -0.210 A  
HETATM    9  N   UNL     1      -9.229   8.866  68.467  1.00  0.00    -0.137 NA 
HETATM   10  N   UNL     1     -10.544  10.604  69.229  1.00  0.00    -0.220 NA 
HETATM   11  H1  UNL     1      -8.810   9.477  67.766  1.00  0.00     0.000 HD 
HETATM   12  C   UNL     1     -11.436  11.085  70.115  1.00  0.00    -0.296 A  
HETATM   13  H2  UNL     1      -9.577   8.036  67.987  1.00  0.00     0.000 HD 
HETATM   14  N   UNL     1     -12.022  10.368  71.101  1.00  0.00    -0.366 NA 
HETATM   15  H2  UNL     1     -11.489   7.967  72.786  1.00  0.00     0.000 HD 
HETATM   16  H1  UNL     1     -12.910   8.799  72.885  1.00  0.00     0.000 HD 
HETATM   17  C   UNL     1     -11.696   9.070  71.170  1.00  0.00    -0.302 A  
HETATM   18  N   UNL     1     -12.253   8.361  72.238  1.00  0.00    -0.372 NA 
BRANCH  12  19
HETATM   19  C   UNL     1     -11.813  12.506  69.993  1.00  0.00    -0.289 A  
HETATM   20  C   UNL     1     -12.682  14.535  70.376  1.00  0.00    -0.322 A  
HETATM   21  N   UNL     1     -11.551  13.239  68.884  1.00  0.00    -0.292 NA 
HETATM   22  N   UNL     1     -12.032  14.472  69.177  1.00  0.00    -0.319 NA 
HETATM   23  C   UNL     1     -13.618  14.218  72.876  1.00  0.00    -0.400 A  
HETATM   24  N   UNL     1     -13.335  15.598  70.888  1.00  0.00    -0.545 NA 
HETATM   25  C   UNL     1     -12.492  13.297  70.972  1.00  0.00    -0.422 A  
HETATM   26  C   UNL     1     -13.793  15.383  72.141  1.00  0.00    -0.534 A  
HETATM   27  C   UNL     1     -12.964  13.135  72.286  1.00  0.00    -0.354 A  
BRANCH  22  28
HETATM   28  C   UNL     1     -11.892  15.565  68.226  1.00  0.00    -0.173 C  
BRANCH  28  29
HETATM   29  C   UNL     1     -10.460  15.978  67.978  1.00  0.00    -0.275 A  
HETATM   30  C   UNL     1      -8.610  16.213  66.407  1.00  0.00    -0.365 A  
HETATM   31  C   UNL     1      -7.718  16.379  67.463  1.00  0.00    -0.164 A  
HETATM   32  C   UNL     1      -9.966  16.022  66.670  1.00  0.00    -0.267 A  
HETATM   33  C   UNL     1      -8.195  16.391  68.773  1.00  0.00    -0.234 A  
HETATM   34  F   UNL     1     -10.796  15.840  65.634  1.00  0.00    -0.315 F  
HETATM   35  C   UNL     1      -9.556  16.192  69.032  1.00  0.00    -0.251 A  
ENDBRANCH  28  29
ENDBRANCH  22  28
ENDBRANCH  12  19
ENDBRANCH   4   7
ENDBRANCH   2   3
TORSDOF 5
ENDMDL
MODEL       35
REMARK 921   NORMALIZED FREE ENERGY PREDICTED BY IDOCK:   -6.89 KCAL/MOL
REMARK 922        TOTAL FREE ENERGY PREDICTED BY IDOCK:   -9.71 KCAL/MOL
REMARK 923 INTER-LIGAND FREE ENERGY PREDICTED BY IDOCK:   -9.04 KCAL/MOL
REMARK 924 INTRA-LIGAND FREE ENERGY PREDICTED BY IDOCK:   -0.68 KCAL/MOL
REMARK 927      BINDING AFFINITY PREDICTED BY RF-SCORE:    0.00 PKD
ROOT
HETATM    1  C   UNL     1     -12.514   6.871  71.419  1.00  0.00    -0.367 C  
HETATM    2  O   UNL     1     -12.007   6.744  70.093  1.00  0.00    -0.328 OA 
ENDROOT
BRANCH   2   3
HETATM    3  C   UNL     1     -10.803   6.113  70.007  1.00  0.00    -0.341 C  
HETATM    4  N   UNL     1      -9.831   6.881  69.385  1.00  0.00    -0.157 N  
HETATM    5  O   UNL     1     -10.602   4.977  70.427  1.00  0.00    -0.215 OA 
HETATM    6  C   UNL     1      -8.472   6.397  69.243  1.00  0.00    -0.126 C  
BRANCH   4   7
HETATM    7  C   UNL     1     -10.084   8.225  68.996  1.00  0.00    -0.202 A  
HETATM    8  C   UNL     1     -10.482   8.554  67.702  1.00  0.00    -0.241 A  
HETATM    9  N   UNL     1     -10.502   7.612  66.672  1.00  0.00    -0.504 NA 
HETATM   10  N   UNL     1     -10.794   9.803  67.341  1.00  0.00    -0.253 NA 
HETATM   11  H1  UNL     1     -10.793   7.853  65.724  1.00  0.00     0.000 HD 
HETATM   12  C   UNL     1     -10.689  10.753  68.290  1.00  0.00    -0.213 A  
HETATM   13  H2  UNL     1     -11.072   6.825  66.981  1.00  0.00     0.000 HD 
HETATM   14  N   UNL     1     -10.282  10.544  69.562  1.00  0.00    -0.223 NA 
HETATM   15  H2  UNL     1      -8.580   8.656  71.120  1.00  0.00     0.000 HD 
HETATM   16  H1  UNL     1      -9.427   9.867  71.853  1.00  0.00     0.000 HD 
HETATM   17  C   UNL     1      -9.987   9.280  69.896  1.00  0.00    -0.205 A  
HETATM   18  N   UNL     1      -9.499   9.093  71.192  1.00  0.00    -0.272 NA 
BRANCH  12  19
HETATM   19  C   UNL     1     -11.060  12.130  67.912  1.00  0.00    -0.245 A  
HETATM   20  C   UNL     1     -11.653  13.947  66.743  1.00  0.00    -0.378 A  
HETATM   21  N   UNL     1     -11.016  13.165  68.785  1.00  0.00    -0.258 NA 
HETATM   22  N   UNL     1     -11.442  14.230  68.062  1.00  0.00    -0.297 NA 
HETATM   23  C   UNL     1     -12.164  12.855  64.340  1.00  0.00    -0.484 A  
HETATM   24  N   UNL     1     -11.990  14.819  65.771  1.00  0.00    -0.224 NA 
HETATM   25  C   UNL     1     -11.491  12.574  66.623  1.00  0.00    -0.417 A  
HETATM   26  C   UNL     1     -12.227  14.221  64.583  1.00  0.00    -0.454 A  
HETATM   27  C   UNL     1     -11.777  11.999  65.372  1.00  0.00    -0.317 A  
BRANCH  22  28
HETATM   28  C   UNL     1     -11.574  15.540  68.683  1.00  0.00    -0.368 C  
BRANCH  28  29
HETATM   29  C   UNL     1     -10.458  16.496  68.334  1.00  0.00    -0.307 A  
HETATM   30  C   UNL     1      -8.202  17.305  68.783  1.00  0.00    -0.231 A  
HETATM   31  C   UNL     1      -8.445  18.443  68.018  1.00  0.00    -0.291 A  
HETATM   32  C   UNL     1      -9.201  16.343  68.928  1.00  0.00    -0.259 A  
HETATM   33  C   UNL     1      -9.672  18.592  67.374  1.00  0.00    -0.330 A  
HETATM   34  F   UNL     1      -8.946  15.271  69.691  1.00  0.00    -0.236 F  
HETATM   35  C   UNL     1     -10.674  17.627  67.530  1.00  0.00    -0.294 A  
ENDBRANCH  28  29
ENDBRANCH  22  28
ENDBRANCH  12  19
ENDBRANCH   4   7
ENDBRANCH   2   3
TORSDOF 5
ENDMDL
MODEL       36
REMARK 921   NORMALIZED FREE ENERGY PREDICTED BY IDOCK:   -6.82 KCAL/MOL
REMARK 922        TOTAL FREE ENERGY PREDICTED BY IDOCK:   -9.62 KCAL/MOL
REMARK 923 INTER-LIGAND FREE ENERGY PREDICTED BY IDOCK:   -8.67 KCAL/MOL
REMARK 924 INTRA-LIGAND FREE ENERGY PREDICTED BY IDOCK:   -0.95 KCAL/MOL
REMARK 927      BINDING AFFINITY PREDICTED BY RF-SCORE:    0.00 PKD
ROOT
HETATM    1  C   UNL     1     -10.729  20.124  65.307  1.00  0.00     0.151 C  
HETATM    2  O   UNL     1     -10.782  19.678  66.661  1.00  0.00    -0.465 OA 
ENDROOT
BRANCH   2   3
HETATM    3  C   UNL     1      -9.778  20.150  67.451  1.00  0.00    -0.426 C  
HETATM    4  N   UNL     1      -8.977  19.143  67.968  1.00  0.00    -0.302 N  
HETATM    5  O   UNL     1      -9.607  21.341  67.688  1.00  0.00    -0.187 OA 
HETATM    6  C   UNL     1      -7.827  19.453  68.794  1.00  0.00    -0.357 C  
BRANCH   4   7
HETATM    7  C   UNL     1      -9.158  17.784  67.592  1.00  0.00    -0.246 A  
HETATM    8  C   UNL     1     -10.019  16.938  68.285  1.00  0.00    -0.282 A  
HETATM    9  N   UNL     1     -10.633  17.322  69.479  1.00  0.00    -0.335 NA 
HETATM   10  N   UNL     1     -10.256  15.680  67.901  1.00  0.00    -0.236 NA 
HETATM   11  H1  UNL     1     -11.264  16.703  69.987  1.00  0.00     0.000 HD 
HETATM   12  C   UNL     1      -9.601  15.247  66.806  1.00  0.00    -0.241 A  
HETATM   13  H2  UNL     1     -11.129  18.196  69.306  1.00  0.00     0.000 HD 
HETATM   14  N   UNL     1      -8.721  15.975  66.084  1.00  0.00    -0.336 NA 
HETATM   15  H2  UNL     1      -6.834  18.257  66.435  1.00  0.00     0.000 HD 
HETATM   16  H1  UNL     1      -7.077  17.550  64.965  1.00  0.00     0.000 HD 
HETATM   17  C   UNL     1      -8.515  17.237  66.488  1.00  0.00    -0.271 A  
HETATM   18  N   UNL     1      -7.549  17.952  65.775  1.00  0.00    -0.552 NA 
BRANCH  12  19
HETATM   19  C   UNL     1      -9.876  13.869  66.354  1.00  0.00    -0.295 A  
HETATM   20  C   UNL     1     -10.710  12.094  65.271  1.00  0.00    -0.288 A  
HETATM   21  N   UNL     1      -9.355  12.780  66.968  1.00  0.00    -0.222 NA 
HETATM   22  N   UNL     1      -9.827  11.732  66.249  1.00  0.00    -0.215 NA 
HETATM   23  C   UNL     1     -12.162  13.306  63.361  1.00  0.00    -0.476 A  
HETATM   24  N   UNL     1     -11.405  11.268  64.463  1.00  0.00    -0.121 NA 
HETATM   25  C   UNL     1     -10.708  13.481  65.257  1.00  0.00    -0.328 A  
HETATM   26  C   UNL     1     -12.124  11.927  63.528  1.00  0.00    -0.470 A  
HETATM   27  C   UNL     1     -11.451  14.116  64.247  1.00  0.00    -0.287 A  
BRANCH  22  28
HETATM   28  C   UNL     1      -9.440  10.370  66.586  1.00  0.00    -0.165 C  
BRANCH  28  29
HETATM   29  C   UNL     1      -9.705   9.999  68.025  1.00  0.00    -0.158 A  
HETATM   30  C   UNL     1     -11.206  10.077  69.946  1.00  0.00    -0.327 A  
HETATM   31  C   UNL     1     -10.170   9.677  70.786  1.00  0.00    -0.330 A  
HETATM   32  C   UNL     1     -10.969  10.226  68.580  1.00  0.00    -0.244 A  
HETATM   33  C   UNL     1      -8.915   9.395  70.249  1.00  0.00    -0.277 A  
HETATM   34  F   UNL     1     -11.979  10.637  67.800  1.00  0.00    -0.243 F  
HETATM   35  C   UNL     1      -8.681   9.554  68.878  1.00  0.00    -0.133 A  
ENDBRANCH  28  29
ENDBRANCH  22  28
ENDBRANCH  12  19
ENDBRANCH   4   7
ENDBRANCH   2   3
TORSDOF 5
ENDMDL
MODEL       37
REMARK 921   NORMALIZED FREE ENERGY PREDICTED BY IDOCK:   -6.76 KCAL/MOL
REMARK 922        TOTAL FREE ENERGY PREDICTED BY IDOCK:   -9.54 KCAL/MOL
REMARK 923 INTER-LIGAND FREE ENERGY PREDICTED BY IDOCK:   -9.06 KCAL/MOL
REMARK 924 INTRA-LIGAND FREE ENERGY PREDICTED BY IDOCK:   -0.48 KCAL/MOL
REMARK 927      BINDING AFFINITY PREDICTED BY RF-SCORE:    0.00 PKD
ROOT
HETATM    1  C   UNL     1      -9.195  17.046  66.391  1.00  0.00    -0.271 C  
HETATM    2  O   UNL     1      -9.719  15.807  65.915  1.00  0.00    -0.310 OA 
ENDROOT
BRANCH   2   3
HETATM    3  C   UNL     1     -10.771  15.930  65.059  1.00  0.00    -0.404 C  
HETATM    4  N   UNL     1     -11.586  14.809  65.039  1.00  0.00    -0.373 N  
HETATM    5  O   UNL     1     -10.971  16.926  64.371  1.00  0.00    -1.016 OA 
HETATM    6  C   UNL     1     -12.784  14.770  64.223  1.00  0.00     0.193 C  
BRANCH   4   7
HETATM    7  C   UNL     1     -11.366  13.715  65.920  1.00  0.00    -0.309 A  
HETATM    8  C   UNL     1     -11.807  13.734  67.240  1.00  0.00    -0.401 A  
HETATM    9  N   UNL     1     -12.347  14.882  67.824  1.00  0.00    -0.454 NA 
HETATM   10  N   UNL     1     -11.673  12.686  68.059  1.00  0.00    -0.341 NA 
HETATM   11  H1  UNL     1     -12.669  14.896  68.792  1.00  0.00     0.000 HD 
HETATM   12  C   UNL     1     -11.066  11.595  67.553  1.00  0.00    -0.276 A  
HETATM   13  H2  UNL     1     -13.117  15.197  67.235  1.00  0.00     0.000 HD 
HETATM   14  N   UNL     1     -10.574  11.487  66.299  1.00  0.00    -0.255 NA 
HETATM   15  H2  UNL     1      -9.497  13.219  64.125  1.00  0.00     0.000 HD 
HETATM   16  H1  UNL     1      -9.692  11.594  63.922  1.00  0.00     0.000 HD 
HETATM   17  C   UNL     1     -10.734  12.551  65.499  1.00  0.00    -0.271 A  
HETATM   18  N   UNL     1     -10.156  12.449  64.231  1.00  0.00    -0.303 NA 
BRANCH  12  19
HETATM   19  C   UNL     1     -10.939  10.421  68.438  1.00  0.00    -0.264 A  
HETATM   20  C   UNL     1     -10.654   8.335  69.205  1.00  0.00    -0.181 A  
HETATM   21  N   UNL     1     -11.184  10.478  69.769  1.00  0.00    -0.276 NA 
HETATM   22  N   UNL     1     -10.940   9.218  70.208  1.00  0.00    -0.238 NA 
HETATM   23  C   UNL     1      -9.908   7.067  66.956  1.00  0.00    -0.239 A  
HETATM   24  N   UNL     1     -10.459   7.007  69.328  1.00  0.00    -0.204 NA 
HETATM   25  C   UNL     1     -10.567   9.095  68.048  1.00  0.00    -0.253 A  
HETATM   26  C   UNL     1     -10.094   6.417  68.168  1.00  0.00    -0.149 A  
HETATM   27  C   UNL     1     -10.158   8.438  66.875  1.00  0.00    -0.364 A  
BRANCH  22  28
HETATM   28  C   UNL     1     -11.056   8.893  71.622  1.00  0.00    -0.350 C  
BRANCH  28  29
HETATM   29  C   UNL     1      -9.780   8.367  72.233  1.00  0.00    -0.386 A  
HETATM   30  C   UNL     1      -8.681   7.240  74.096  1.00  0.00    -0.253 A  
HETATM   31  C   UNL     1      -7.437   7.660  73.633  1.00  0.00    -0.139 A  
HETATM   32  C   UNL     1      -9.834   7.587  73.394  1.00  0.00    -0.310 A  
HETATM   33  C   UNL     1      -7.353   8.393  72.450  1.00  0.00    -0.126 A  
HETATM   34  F   UNL     1     -11.019   7.190  73.878  1.00  0.00    -0.358 F  
HETATM   35  C   UNL     1      -8.515   8.746  71.753  1.00  0.00    -0.178 A  
ENDBRANCH  28  29
ENDBRANCH  22  28
ENDBRANCH  12  19
ENDBRANCH   4   7
ENDBRANCH   2   3
TORSDOF 5
ENDMDL
MODEL       38
REMARK 921   NORMALIZED FREE ENERGY PREDICTED BY IDOCK:   -6.69 KCAL/MOL
REMARK 922        TOTAL FREE ENERGY PREDICTED BY IDOCK:   -9.45 KCAL/MOL
REMARK 923 INTER-LIGAND FREE ENERGY PREDICTED BY IDOCK:   -8.72 KCAL/MOL
REMARK 924 INTRA-LIGAND FREE ENERGY PREDICTED BY IDOCK:   -0.74 KCAL/MOL
REMARK 927      BINDING AFFINITY PREDICTED BY RF-SCORE:    0.00 PKD
ROOT
HETATM    1  C   UNL     1      -7.201   7.682  69.253  1.00  0.00    -0.082 C  
HETATM    2  O   UNL     1      -8.302   7.963  70.115  1.00  0.00    -0.123 OA 
ENDROOT
BRANCH   2   3
HETATM    3  C   UNL     1      -9.208   6.951  70.222  1.00  0.00    -0.156 C  
HETATM    4  N   UNL     1     -10.496   7.341  69.891  1.00  0.00    -0.220 N  
HETATM    5  O   UNL     1      -8.915   5.816  70.584  1.00  0.00    -0.137 OA 
HETATM    6  C   UNL     1     -11.590   6.389  69.898  1.00  0.00    -0.353 C  
BRANCH   4   7
HETATM    7  C   UNL     1     -10.773   8.642  69.391  1.00  0.00    -0.158 A  
HETATM    8  C   UNL     1     -11.169   9.683  70.226  1.00  0.00    -0.271 A  
HETATM    9  N   UNL     1     -11.472   9.477  71.574  1.00  0.00    -0.391 NA 
HETATM   10  N   UNL     1     -11.361  10.929  69.782  1.00  0.00    -0.278 NA 
HETATM   11  H1  UNL     1     -11.762  10.239  72.186  1.00  0.00     0.000 HD 
HETATM   12  C   UNL     1     -11.172  11.140  68.465  1.00  0.00    -0.258 A  
HETATM   13  H2  UNL     1     -10.669   9.019  72.006  1.00  0.00     0.000 HD 
HETATM   14  N   UNL     1     -10.821  10.194  67.566  1.00  0.00    -0.296 NA 
HETATM   15  H2  UNL     1     -11.042   7.247  67.167  1.00  0.00     0.000 HD 
HETATM   16  H1  UNL     1     -10.225   8.208  66.104  1.00  0.00     0.000 HD 
HETATM   17  C   UNL     1     -10.625   8.957  68.045  1.00  0.00    -0.168 A  
HETATM   18  N   UNL     1     -10.334   7.977  67.092  1.00  0.00    -0.298 NA 
BRANCH  12  19
HETATM   19  C   UNL     1     -11.352  12.517  67.968  1.00  0.00    -0.289 A  
HETATM   20  C   UNL     1     -11.629  14.297  66.636  1.00  0.00    -0.383 A  
HETATM   21  N   UNL     1     -11.278  13.602  68.776  1.00  0.00    -0.265 NA 
HETATM   22  N   UNL     1     -11.514  14.651  67.950  1.00  0.00    -0.315 NA 
HETATM   23  C   UNL     1     -12.026  13.095  64.264  1.00  0.00    -0.470 A  
HETATM   24  N   UNL     1     -11.774  15.128  65.584  1.00  0.00    -0.126 NA 
HETATM   25  C   UNL     1     -11.608  12.910  66.617  1.00  0.00    -0.428 A  
HETATM   26  C   UNL     1     -11.961  14.473  64.416  1.00  0.00    -0.449 A  
HETATM   27  C   UNL     1     -11.835  12.280  65.381  1.00  0.00    -0.418 A  
BRANCH  22  28
HETATM   28  C   UNL     1     -11.560  16.008  68.473  1.00  0.00    -0.316 C  
BRANCH  28  29
HETATM   29  C   UNL     1     -10.217  16.698  68.500  1.00  0.00    -0.282 A  
HETATM   30  C   UNL     1      -8.779  18.476  67.652  1.00  0.00    -0.280 A  
HETATM   31  C   UNL     1      -7.662  17.850  68.199  1.00  0.00    -0.256 A  
HETATM   32  C   UNL     1     -10.040  17.903  67.812  1.00  0.00    -0.348 A  
HETATM   33  C   UNL     1      -7.820  16.676  68.933  1.00  0.00    -0.240 A  
HETATM   34  F   UNL     1     -11.093  18.515  67.252  1.00  0.00    -0.422 F  
HETATM   35  C   UNL     1      -9.088  16.101  69.084  1.00  0.00    -0.243 A  
ENDBRANCH  28  29
ENDBRANCH  22  28
ENDBRANCH  12  19
ENDBRANCH   4   7
ENDBRANCH   2   3
TORSDOF 5
ENDMDL
MODEL       39
REMARK 921   NORMALIZED FREE ENERGY PREDICTED BY IDOCK:   -6.69 KCAL/MOL
REMARK 922        TOTAL FREE ENERGY PREDICTED BY IDOCK:   -9.45 KCAL/MOL
REMARK 923 INTER-LIGAND FREE ENERGY PREDICTED BY IDOCK:   -8.74 KCAL/MOL
REMARK 924 INTRA-LIGAND FREE ENERGY PREDICTED BY IDOCK:   -0.71 KCAL/MOL
REMARK 927      BINDING AFFINITY PREDICTED BY RF-SCORE:    0.00 PKD
ROOT
HETATM    1  C   UNL     1     -10.367  17.203  66.195  1.00  0.00    -0.322 C  
HETATM    2  O   UNL     1     -10.199  15.969  65.499  1.00  0.00    -0.362 OA 
ENDROOT
BRANCH   2   3
HETATM    3  C   UNL     1     -11.165  15.704  64.576  1.00  0.00    -0.325 C  
HETATM    4  N   UNL     1     -11.571  14.379  64.582  1.00  0.00    -0.402 N  
HETATM    5  O   UNL     1     -11.621  16.549  63.812  1.00  0.00    -1.109 OA 
HETATM    6  C   UNL     1     -12.626  13.916  63.702  1.00  0.00     0.170 C  
BRANCH   4   7
HETATM    7  C   UNL     1     -11.080  13.456  65.546  1.00  0.00    -0.282 A  
HETATM    8  C   UNL     1     -10.128  12.493  65.225  1.00  0.00    -0.257 A  
HETATM    9  N   UNL     1      -9.714  12.270  63.910  1.00  0.00    -0.588 NA 
HETATM   10  N   UNL     1      -9.602  11.668  66.136  1.00  0.00    -0.226 NA 
HETATM   11  H1  UNL     1      -9.016  11.565  63.674  1.00  0.00     0.000 HD 
HETATM   12  C   UNL     1     -10.054  11.792  67.399  1.00  0.00    -0.195 A  
HETATM   13  H2  UNL     1      -9.397  13.161  63.528  1.00  0.00     0.000 HD 
HETATM   14  N   UNL     1     -10.998  12.669  67.807  1.00  0.00    -0.225 NA 
HETATM   15  H2  UNL     1     -13.340  14.157  66.715  1.00  0.00     0.000 HD 
HETATM   16  H1  UNL     1     -12.827  14.366  68.269  1.00  0.00     0.000 HD 
HETATM   17  C   UNL     1     -11.496  13.491  66.872  1.00  0.00    -0.344 A  
HETATM   18  N   UNL     1     -12.522  14.340  67.296  1.00  0.00    -0.098 NA 
BRANCH  12  19
HETATM   19  C   UNL     1      -9.460  10.907  68.419  1.00  0.00    -0.178 A  
HETATM   20  C   UNL     1      -8.046   9.960  69.876  1.00  0.00    -0.188 A  
HETATM   21  N   UNL     1     -10.084   9.794  68.873  1.00  0.00    -0.175 NA 
HETATM   22  N   UNL     1      -9.230   9.285  69.796  1.00  0.00    -0.168 NA 
HETATM   23  C   UNL     1      -6.026  11.733  69.842  1.00  0.00    -0.146 A  
HETATM   24  N   UNL     1      -6.978   9.634  70.631  1.00  0.00    -0.174 NA 
HETATM   25  C   UNL     1      -8.188  11.067  69.052  1.00  0.00    -0.101 A  
HETATM   26  C   UNL     1      -5.988  10.553  70.572  1.00  0.00    -0.117 A  
HETATM   27  C   UNL     1      -7.141  12.006  69.049  1.00  0.00    -0.077 A  
BRANCH  22  28
HETATM   28  C   UNL     1      -9.581   8.088  70.547  1.00  0.00    -0.170 C  
BRANCH  28  29
HETATM   29  C   UNL     1     -10.946   8.151  71.191  1.00  0.00    -0.271 A  
HETATM   30  C   UNL     1     -13.139   7.135  71.508  1.00  0.00    -0.427 A  
HETATM   31  C   UNL     1     -13.627   8.325  72.043  1.00  0.00    -0.360 A  
HETATM   32  C   UNL     1     -11.810   7.055  71.097  1.00  0.00    -0.338 A  
HETATM   33  C   UNL     1     -12.771   9.414  72.195  1.00  0.00    -0.460 A  
HETATM   34  F   UNL     1     -11.376   5.904  70.563  1.00  0.00    -0.375 F  
HETATM   35  C   UNL     1     -11.439   9.331  71.772  1.00  0.00    -0.448 A  
ENDBRANCH  28  29
ENDBRANCH  22  28
ENDBRANCH  12  19
ENDBRANCH   4   7
ENDBRANCH   2   3
TORSDOF 5
ENDMDL
MODEL       40
REMARK 921   NORMALIZED FREE ENERGY PREDICTED BY IDOCK:   -6.68 KCAL/MOL
REMARK 922        TOTAL FREE ENERGY PREDICTED BY IDOCK:   -9.44 KCAL/MOL
REMARK 923 INTER-LIGAND FREE ENERGY PREDICTED BY IDOCK:   -8.41 KCAL/MOL
REMARK 924 INTRA-LIGAND FREE ENERGY PREDICTED BY IDOCK:   -1.02 KCAL/MOL
REMARK 927      BINDING AFFINITY PREDICTED BY RF-SCORE:    0.00 PKD
ROOT
HETATM    1  C   UNL     1      -8.779  16.266  66.804  1.00  0.00    -0.231 C  
HETATM    2  O   UNL     1      -9.322  15.109  66.172  1.00  0.00    -0.291 OA 
ENDROOT
BRANCH   2   3
HETATM    3  C   UNL     1     -10.439  15.343  65.428  1.00  0.00    -0.402 C  
HETATM    4  N   UNL     1     -11.441  14.410  65.646  1.00  0.00    -0.331 N  
HETATM    5  O   UNL     1     -10.543  16.277  64.639  1.00  0.00    -0.621 OA 
HETATM    6  C   UNL     1     -12.723  14.521  64.979  1.00  0.00    -0.144 C  
BRANCH   4   7
HETATM    7  C   UNL     1     -11.310  13.398  66.635  1.00  0.00    -0.323 A  
HETATM    8  C   UNL     1     -10.926  12.099  66.313  1.00  0.00    -0.295 A  
HETATM    9  N   UNL     1     -10.801  11.671  64.990  1.00  0.00    -0.294 NA 
HETATM   10  N   UNL     1     -10.728  11.156  67.240  1.00  0.00    -0.243 NA 
HETATM   11  H1  UNL     1     -10.520  10.719  64.753  1.00  0.00     0.000 HD 
HETATM   12  C   UNL     1     -10.936  11.513  68.521  1.00  0.00    -0.223 A  
HETATM   13  H2  UNL     1     -10.164  12.310  64.515  1.00  0.00     0.000 HD 
HETATM   14  N   UNL     1     -11.341  12.734  68.936  1.00  0.00    -0.278 NA 
HETATM   15  H2  UNL     1     -12.880  15.080  67.927  1.00  0.00     0.000 HD 
HETATM   16  H1  UNL     1     -12.162  15.086  69.412  1.00  0.00     0.000 HD 
HETATM   17  C   UNL     1     -11.520  13.660  67.984  1.00  0.00    -0.310 A  
HETATM   18  N   UNL     1     -12.008  14.894  68.422  1.00  0.00    -0.268 NA 
BRANCH  12  19
HETATM   19  C   UNL     1     -10.692  10.489  69.556  1.00  0.00    -0.255 A  
HETATM   20  C   UNL     1     -10.928   9.108  71.305  1.00  0.00    -0.330 A  
HETATM   21  N   UNL     1      -9.487   9.893  69.725  1.00  0.00    -0.222 NA 
HETATM   22  N   UNL     1      -9.686   9.022  70.745  1.00  0.00    -0.224 NA 
HETATM   23  C   UNL     1     -13.527   9.472  71.886  1.00  0.00    -0.502 A  
HETATM   24  N   UNL     1     -11.379   8.436  72.383  1.00  0.00    -0.380 NA 
HETATM   25  C   UNL     1     -11.638   9.996  70.509  1.00  0.00    -0.403 A  
HETATM   26  C   UNL     1     -12.687   8.661  72.637  1.00  0.00    -0.204 A  
HETATM   27  C   UNL     1     -13.002  10.173  70.800  1.00  0.00    -0.380 A  
BRANCH  22  28
HETATM   28  C   UNL     1      -8.609   8.151  71.193  1.00  0.00    -0.133 C  
BRANCH  28  29
HETATM   29  C   UNL     1      -8.751   6.719  70.734  1.00  0.00    -0.146 A  
HETATM   30  C   UNL     1      -8.780   5.124  68.890  1.00  0.00    -0.096 A  
HETATM   31  C   UNL     1      -9.344   4.158  69.719  1.00  0.00    -0.237 A  
HETATM   32  C   UNL     1      -8.483   6.386  69.402  1.00  0.00    -0.126 A  
HETATM   33  C   UNL     1      -9.572   4.449  71.063  1.00  0.00    -0.249 A  
HETATM   34  F   UNL     1      -7.965   7.304  68.573  1.00  0.00    -0.113 F  
HETATM   35  C   UNL     1      -9.279   5.721  71.570  1.00  0.00    -0.159 A  
ENDBRANCH  28  29
ENDBRANCH  22  28
ENDBRANCH  12  19
ENDBRANCH   4   7
ENDBRANCH   2   3
TORSDOF 5
ENDMDL
MODEL       41
REMARK 921   NORMALIZED FREE ENERGY PREDICTED BY IDOCK:   -6.68 KCAL/MOL
REMARK 922        TOTAL FREE ENERGY PREDICTED BY IDOCK:   -9.43 KCAL/MOL
REMARK 923 INTER-LIGAND FREE ENERGY PREDICTED BY IDOCK:   -8.44 KCAL/MOL
REMARK 924 INTRA-LIGAND FREE ENERGY PREDICTED BY IDOCK:   -0.99 KCAL/MOL
REMARK 927      BINDING AFFINITY PREDICTED BY RF-SCORE:    0.00 PKD
ROOT
HETATM    1  C   UNL     1      -8.270  16.055  66.526  1.00  0.00    -0.299 C  
HETATM    2  O   UNL     1      -9.156  14.997  66.163  1.00  0.00    -0.280 OA 
ENDROOT
BRANCH   2   3
HETATM    3  C   UNL     1     -10.249  15.394  65.455  1.00  0.00    -0.382 C  
HETATM    4  N   UNL     1     -11.074  14.340  65.095  1.00  0.00    -0.333 N  
HETATM    5  O   UNL     1     -10.476  16.563  65.159  1.00  0.00    -0.637 OA 
HETATM    6  C   UNL     1     -12.312  14.570  64.377  1.00  0.00    -0.413 C  
BRANCH   4   7
HETATM    7  C   UNL     1     -10.819  13.013  65.538  1.00  0.00    -0.278 A  
HETATM    8  C   UNL     1     -10.123  12.097  64.755  1.00  0.00    -0.251 A  
HETATM    9  N   UNL     1      -9.772  12.369  63.431  1.00  0.00    -0.627 NA 
HETATM   10  N   UNL     1      -9.811  10.871  65.188  1.00  0.00    -0.254 NA 
HETATM   11  H1  UNL     1      -9.262  11.698  62.858  1.00  0.00     0.000 HD 
HETATM   12  C   UNL     1     -10.222  10.542  66.427  1.00  0.00    -0.237 A  
HETATM   13  H2  UNL     1      -9.250  13.246  63.422  1.00  0.00     0.000 HD 
HETATM   14  N   UNL     1     -10.931  11.344  67.253  1.00  0.00    -0.265 NA 
HETATM   15  H2  UNL     1     -12.849  13.623  67.111  1.00  0.00     0.000 HD 
HETATM   16  H1  UNL     1     -12.304  13.036  68.553  1.00  0.00     0.000 HD 
HETATM   17  C   UNL     1     -11.217  12.571  66.795  1.00  0.00    -0.296 A  
HETATM   18  N   UNL     1     -12.011  13.361  67.630  1.00  0.00    -0.344 NA 
BRANCH  12  19
HETATM   19  C   UNL     1      -9.859   9.202  66.927  1.00  0.00    -0.217 A  
HETATM   20  C   UNL     1      -8.708   7.373  67.518  1.00  0.00    -0.124 A  
HETATM   21  N   UNL     1     -10.785   8.280  67.286  1.00  0.00    -0.249 NA 
HETATM   22  N   UNL     1     -10.053   7.215  67.697  1.00  0.00    -0.167 NA 
HETATM   23  C   UNL     1      -6.184   8.245  67.211  1.00  0.00    -0.056 A  
HETATM   24  N   UNL     1      -7.748   6.456  67.749  1.00  0.00    -0.102 NA 
HETATM   25  C   UNL     1      -8.537   8.682  67.093  1.00  0.00    -0.123 A  
HETATM   26  C   UNL     1      -6.499   6.942  67.572  1.00  0.00    -0.050 A  
HETATM   27  C   UNL     1      -7.217   9.146  66.951  1.00  0.00    -0.086 A  
BRANCH  22  28
HETATM   28  C   UNL     1     -10.709   6.021  68.209  1.00  0.00    -0.279 C  
BRANCH  28  29
HETATM   29  C   UNL     1     -10.951   6.049  69.699  1.00  0.00    -0.470 A  
HETATM   30  C   UNL     1     -10.589   5.019  71.880  1.00  0.00    -0.224 A  
HETATM   31  C   UNL     1     -11.611   5.789  72.427  1.00  0.00    -0.320 A  
HETATM   32  C   UNL     1     -10.263   5.159  70.531  1.00  0.00    -0.260 A  
HETATM   33  C   UNL     1     -12.275   6.720  71.630  1.00  0.00    -0.410 A  
HETATM   34  F   UNL     1      -9.292   4.385  70.027  1.00  0.00    -0.154 F  
HETATM   35  C   UNL     1     -11.950   6.851  70.275  1.00  0.00    -0.257 A  
ENDBRANCH  28  29
ENDBRANCH  22  28
ENDBRANCH  12  19
ENDBRANCH   4   7
ENDBRANCH   2   3
TORSDOF 5
ENDMDL
MODEL       42
REMARK 921   NORMALIZED FREE ENERGY PREDICTED BY IDOCK:   -6.66 KCAL/MOL
REMARK 922        TOTAL FREE ENERGY PREDICTED BY IDOCK:   -9.41 KCAL/MOL
REMARK 923 INTER-LIGAND FREE ENERGY PREDICTED BY IDOCK:   -8.46 KCAL/MOL
REMARK 924 INTRA-LIGAND FREE ENERGY PREDICTED BY IDOCK:   -0.95 KCAL/MOL
REMARK 927      BINDING AFFINITY PREDICTED BY RF-SCORE:    0.00 PKD
ROOT
HETATM    1  C   UNL     1     -11.009   6.390  71.875  1.00  0.00    -0.253 C  
HETATM    2  O   UNL     1     -11.214   6.141  70.486  1.00  0.00    -0.320 OA 
ENDROOT
BRANCH   2   3
HETATM    3  C   UNL     1     -10.252   5.375  69.901  1.00  0.00    -0.281 C  
HETATM    4  N   UNL     1      -9.435   6.093  69.042  1.00  0.00    -0.127 N  
HETATM    5  O   UNL     1     -10.128   4.171  70.106  1.00  0.00    -0.163 OA 
HETATM    6  C   UNL     1      -8.323   5.459  68.363  1.00  0.00    -0.094 C  
BRANCH   4   7
HETATM    7  C   UNL     1      -9.559   7.503  68.906  1.00  0.00    -0.149 A  
HETATM    8  C   UNL     1     -10.385   8.080  67.946  1.00  0.00    -0.222 A  
HETATM    9  N   UNL     1     -11.017   7.319  66.959  1.00  0.00    -0.584 NA 
HETATM   10  N   UNL     1     -10.569   9.401  67.853  1.00  0.00    -0.245 NA 
HETATM   11  H1  UNL     1     -11.623   7.741  66.256  1.00  0.00     0.000 HD 
HETATM   12  C   UNL     1      -9.895  10.169  68.730  1.00  0.00    -0.175 A  
HETATM   13  H2  UNL     1     -11.549   6.585  67.426  1.00  0.00     0.000 HD 
HETATM   14  N   UNL     1      -9.045   9.712  69.676  1.00  0.00    -0.195 NA 
HETATM   15  H2  UNL     1      -7.254   7.383  70.186  1.00  0.00     0.000 HD 
HETATM   16  H1  UNL     1      -7.465   8.577  71.304  1.00  0.00     0.000 HD 
HETATM   17  C   UNL     1      -8.891   8.383  69.750  1.00  0.00    -0.134 A  
HETATM   18  N   UNL     1      -7.955   7.932  70.684  1.00  0.00    -0.095 NA 
BRANCH  12  19
HETATM   19  C   UNL     1     -10.112  11.627  68.657  1.00  0.00    -0.198 A  
HETATM   20  C   UNL     1      -9.801  13.832  68.406  1.00  0.00    -0.227 A  
HETATM   21  N   UNL     1     -11.283  12.210  69.009  1.00  0.00    -0.248 NA 
HETATM   22  N   UNL     1     -11.079  13.532  68.784  1.00  0.00    -0.255 NA 
HETATM   23  C   UNL     1      -7.284  13.881  67.465  1.00  0.00    -0.178 A  
HETATM   24  N   UNL     1      -9.284  15.060  68.203  1.00  0.00    -0.180 NA 
HETATM   25  C   UNL     1      -9.163  12.612  68.237  1.00  0.00    -0.184 A  
HETATM   26  C   UNL     1      -8.015  15.029  67.739  1.00  0.00    -0.143 A  
HETATM   27  C   UNL     1      -7.853  12.635  67.726  1.00  0.00    -0.154 A  
BRANCH  22  28
HETATM   28  C   UNL     1     -12.148  14.494  69.008  1.00  0.00    -0.251 C  
BRANCH  28  29
HETATM   29  C   UNL     1     -12.449  14.742  70.467  1.00  0.00    -0.411 A  
HETATM   30  C   UNL     1     -11.897  15.921  72.528  1.00  0.00    -0.613 A  
HETATM   31  C   UNL     1     -12.680  15.033  73.261  1.00  0.00    -0.635 A  
HETATM   32  C   UNL     1     -11.794  15.775  71.146  1.00  0.00    -0.425 A  
HETATM   33  C   UNL     1     -13.384  14.028  72.600  1.00  0.00    -0.643 A  
HETATM   34  F   UNL     1     -11.013  16.629  70.471  1.00  0.00    -0.328 F  
HETATM   35  C   UNL     1     -13.271  13.880  71.212  1.00  0.00    -0.352 A  
ENDBRANCH  28  29
ENDBRANCH  22  28
ENDBRANCH  12  19
ENDBRANCH   4   7
ENDBRANCH   2   3
TORSDOF 5
ENDMDL
MODEL       43
REMARK 921   NORMALIZED FREE ENERGY PREDICTED BY IDOCK:   -6.64 KCAL/MOL
REMARK 922        TOTAL FREE ENERGY PREDICTED BY IDOCK:   -9.39 KCAL/MOL
REMARK 923 INTER-LIGAND FREE ENERGY PREDICTED BY IDOCK:   -8.32 KCAL/MOL
REMARK 924 INTRA-LIGAND FREE ENERGY PREDICTED BY IDOCK:   -1.06 KCAL/MOL
REMARK 927      BINDING AFFINITY PREDICTED BY RF-SCORE:    0.00 PKD
ROOT
HETATM    1  C   UNL     1     -10.369   6.919  67.423  1.00  0.00    -0.231 C  
HETATM    2  O   UNL     1     -10.779   7.880  68.395  1.00  0.00    -0.141 OA 
ENDROOT
BRANCH   2   3
HETATM    3  C   UNL     1     -10.148   7.772  69.597  1.00  0.00    -0.196 C  
HETATM    4  N   UNL     1      -9.480   8.930  69.964  1.00  0.00    -0.171 N  
HETATM    5  O   UNL     1     -10.163   6.753  70.280  1.00  0.00    -0.191 OA 
HETATM    6  C   UNL     1      -8.788   9.023  71.234  1.00  0.00    -0.189 C  
BRANCH   4   7
HETATM    7  C   UNL     1      -9.566  10.116  69.184  1.00  0.00    -0.212 A  
HETATM    8  C   UNL     1     -10.563  11.065  69.397  1.00  0.00    -0.174 A  
HETATM    9  N   UNL     1     -11.626  10.839  70.274  1.00  0.00    -0.316 NA 
HETATM   10  N   UNL     1     -10.614  12.218  68.722  1.00  0.00    -0.221 NA 
HETATM   11  H1  UNL     1     -12.356  11.534  70.430  1.00  0.00     0.000 HD 
HETATM   12  C   UNL     1      -9.657  12.423  67.797  1.00  0.00    -0.202 A  
HETATM   13  H2  UNL     1     -11.232  10.593  71.182  1.00  0.00     0.000 HD 
HETATM   14  N   UNL     1      -8.668  11.553  67.492  1.00  0.00    -0.142 NA 
HETATM   15  H2  UNL     1      -8.119   8.624  67.559  1.00  0.00     0.000 HD 
HETATM   16  H1  UNL     1      -6.971   9.711  67.088  1.00  0.00     0.000 HD 
HETATM   17  C   UNL     1      -8.637  10.412  68.194  1.00  0.00    -0.125 A  
HETATM   18  N   UNL     1      -7.653   9.494  67.816  1.00  0.00    -0.087 NA 
BRANCH  12  19
HETATM   19  C   UNL     1      -9.686  13.705  67.067  1.00  0.00    -0.251 A  
HETATM   20  C   UNL     1     -10.244  15.365  65.670  1.00  0.00    -0.376 A  
HETATM   21  N   UNL     1      -8.715  14.641  67.195  1.00  0.00    -0.211 NA 
HETATM   22  N   UNL     1      -9.118  15.653  66.388  1.00  0.00    -0.293 NA 
HETATM   23  C   UNL     1     -12.572  14.441  64.695  1.00  0.00    -0.256 A  
HETATM   24  N   UNL     1     -10.822  16.137  64.728  1.00  0.00    -0.669 NA 
HETATM   25  C   UNL     1     -10.686  14.138  66.142  1.00  0.00    -0.297 A  
HETATM   26  C   UNL     1     -11.983  15.623  64.265  1.00  0.00    -0.115 A  
HETATM   27  C   UNL     1     -11.914  13.663  65.647  1.00  0.00    -0.422 A  
BRANCH  22  28
HETATM   28  C   UNL     1      -8.339  16.879  66.295  1.00  0.00    -0.296 C  
BRANCH  28  29
HETATM   29  C   UNL     1      -8.982  18.064  66.974  1.00  0.00    -0.261 A  
HETATM   30  C   UNL     1      -9.615  19.174  69.051  1.00  0.00    -0.387 A  
HETATM   31  C   UNL     1     -10.456  20.034  68.349  1.00  0.00    -0.369 A  
HETATM   32  C   UNL     1      -8.884  18.207  68.362  1.00  0.00    -0.293 A  
HETATM   33  C   UNL     1     -10.530  19.945  66.960  1.00  0.00    -0.570 A  
HETATM   34  F   UNL     1      -8.103  17.377  69.068  1.00  0.00    -0.259 F  
HETATM   35  C   UNL     1      -9.800  18.967  66.274  1.00  0.00    -0.401 A  
ENDBRANCH  28  29
ENDBRANCH  22  28
ENDBRANCH  12  19
ENDBRANCH   4   7
ENDBRANCH   2   3
TORSDOF 5
ENDMDL
MODEL       44
REMARK 921   NORMALIZED FREE ENERGY PREDICTED BY IDOCK:   -6.64 KCAL/MOL
REMARK 922        TOTAL FREE ENERGY PREDICTED BY IDOCK:   -9.38 KCAL/MOL
REMARK 923 INTER-LIGAND FREE ENERGY PREDICTED BY IDOCK:   -8.53 KCAL/MOL
REMARK 924 INTRA-LIGAND FREE ENERGY PREDICTED BY IDOCK:   -0.86 KCAL/MOL
REMARK 927      BINDING AFFINITY PREDICTED BY RF-SCORE:    0.00 PKD
ROOT
HETATM    1  C   UNL     1      -8.943  15.348  67.548  1.00  0.00    -0.183 C  
HETATM    2  O   UNL     1      -9.092  14.871  66.212  1.00  0.00    -0.282 OA 
ENDROOT
BRANCH   2   3
HETATM    3  C   UNL     1     -10.149  15.402  65.537  1.00  0.00    -0.373 C  
HETATM    4  N   UNL     1     -11.064  14.446  65.124  1.00  0.00    -0.342 N  
HETATM    5  O   UNL     1     -10.274  16.601  65.310  1.00  0.00    -0.600 OA 
HETATM    6  C   UNL     1     -12.280  14.824  64.431  1.00  0.00    -0.428 C  
BRANCH   4   7
HETATM    7  C   UNL     1     -10.925  13.079  65.489  1.00  0.00    -0.274 A  
HETATM    8  C   UNL     1     -10.288  12.158  64.661  1.00  0.00    -0.297 A  
HETATM    9  N   UNL     1      -9.890  12.480  63.362  1.00  0.00    -0.637 NA 
HETATM   10  N   UNL     1     -10.084  10.887  65.022  1.00  0.00    -0.279 NA 
HETATM   11  H1  UNL     1      -9.424  11.806  62.756  1.00  0.00     0.000 HD 
HETATM   12  C   UNL     1     -10.545  10.518  66.232  1.00  0.00    -0.133 A  
HETATM   13  H2  UNL     1      -9.300  13.311  63.415  1.00  0.00     0.000 HD 
HETATM   14  N   UNL     1     -11.204  11.324  67.095  1.00  0.00    -0.361 NA 
HETATM   15  H2  UNL     1     -12.930  13.754  67.064  1.00  0.00     0.000 HD 
HETATM   16  H1  UNL     1     -12.463  13.040  68.476  1.00  0.00     0.000 HD 
HETATM   17  C   UNL     1     -11.382  12.595  66.709  1.00  0.00    -0.320 A  
HETATM   18  N   UNL     1     -12.127  13.395  67.580  1.00  0.00    -0.323 NA 
BRANCH  12  19
HETATM   19  C   UNL     1     -10.300   9.126  66.654  1.00  0.00    -0.218 A  
HETATM   20  C   UNL     1      -9.535   7.023  66.770  1.00  0.00    -0.163 A  
HETATM   21  N   UNL     1     -10.996   8.531  67.652  1.00  0.00     0.013 NA 
HETATM   22  N   UNL     1     -10.464   7.286  67.736  1.00  0.00    -0.216 NA 
HETATM   23  C   UNL     1      -7.630   7.075  64.873  1.00  0.00    -0.106 A  
HETATM   24  N   UNL     1      -8.907   5.850  66.549  1.00  0.00    -0.124 NA 
HETATM   25  C   UNL     1      -9.344   8.220  66.095  1.00  0.00    -0.254 A  
HETATM   26  C   UNL     1      -7.967   5.929  65.581  1.00  0.00    -0.118 A  
HETATM   27  C   UNL     1      -8.335   8.255  65.117  1.00  0.00    -0.167 A  
BRANCH  22  28
HETATM   28  C   UNL     1     -10.933   6.348  68.744  1.00  0.00    -0.334 C  
BRANCH  28  29
HETATM   29  C   UNL     1     -10.713   6.817  70.163  1.00  0.00    -0.274 A  
HETATM   30  C   UNL     1     -11.664   7.700  72.228  1.00  0.00    -0.371 A  
HETATM   31  C   UNL     1     -10.392   8.037  72.683  1.00  0.00    -0.398 A  
HETATM   32  C   UNL     1     -11.813   7.089  70.983  1.00  0.00    -0.351 A  
HETATM   33  C   UNL     1      -9.277   7.728  71.906  1.00  0.00    -0.182 A  
HETATM   34  F   UNL     1     -13.052   6.800  70.561  1.00  0.00    -0.269 F  
HETATM   35  C   UNL     1      -9.433   7.122  70.654  1.00  0.00    -0.161 A  
ENDBRANCH  28  29
ENDBRANCH  22  28
ENDBRANCH  12  19
ENDBRANCH   4   7
ENDBRANCH   2   3
TORSDOF 5
ENDMDL
MODEL       45
REMARK 921   NORMALIZED FREE ENERGY PREDICTED BY IDOCK:   -6.60 KCAL/MOL
REMARK 922        TOTAL FREE ENERGY PREDICTED BY IDOCK:   -9.33 KCAL/MOL
REMARK 923 INTER-LIGAND FREE ENERGY PREDICTED BY IDOCK:   -8.57 KCAL/MOL
REMARK 924 INTRA-LIGAND FREE ENERGY PREDICTED BY IDOCK:   -0.76 KCAL/MOL
REMARK 927      BINDING AFFINITY PREDICTED BY RF-SCORE:    0.00 PKD
ROOT
HETATM    1  C   UNL     1     -10.083  17.517  65.865  1.00  0.00    -0.185 C  
HETATM    2  O   UNL     1     -10.276  16.118  65.662  1.00  0.00    -0.349 OA 
ENDROOT
BRANCH   2   3
HETATM    3  C   UNL     1     -11.198  15.807  64.709  1.00  0.00    -0.366 C  
HETATM    4  N   UNL     1     -11.580  14.475  64.739  1.00  0.00    -0.395 N  
HETATM    5  O   UNL     1     -11.636  16.620  63.901  1.00  0.00    -1.204 OA 
HETATM    6  C   UNL     1     -12.589  13.966  63.830  1.00  0.00     0.003 C  
BRANCH   4   7
HETATM    7  C   UNL     1     -11.114  13.591  65.750  1.00  0.00    -0.286 A  
HETATM    8  C   UNL     1     -11.591  13.651  67.057  1.00  0.00    -0.359 A  
HETATM    9  N   UNL     1     -12.433  14.677  67.491  1.00  0.00    -0.452 NA 
HETATM   10  N   UNL     1     -11.217  12.781  68.000  1.00  0.00    -0.253 NA 
HETATM   11  H1  UNL     1     -12.783  14.721  68.448  1.00  0.00     0.000 HD 
HETATM   12  C   UNL     1     -10.328  11.837  67.637  1.00  0.00    -0.200 A  
HETATM   13  H2  UNL     1     -13.237  14.705  66.865  1.00  0.00     0.000 HD 
HETATM   14  N   UNL     1      -9.780  11.713  66.407  1.00  0.00    -0.208 NA 
HETATM   15  H2  UNL     1      -9.117  13.396  64.037  1.00  0.00     0.000 HD 
HETATM   16  H1  UNL     1      -8.873  11.765  64.039  1.00  0.00     0.000 HD 
HETATM   17  C   UNL     1     -10.185  12.594  65.481  1.00  0.00    -0.281 A  
HETATM   18  N   UNL     1      -9.555  12.497  64.237  1.00  0.00     0.097 NA 
BRANCH  12  19
HETATM   19  C   UNL     1      -9.930  10.852  68.661  1.00  0.00    -0.189 A  
HETATM   20  C   UNL     1      -8.900   9.186  69.748  1.00  0.00    -0.160 A  
HETATM   21  N   UNL     1     -10.612  10.687  69.820  1.00  0.00    -0.220 NA 
HETATM   22  N   UNL     1      -9.925   9.719  70.477  1.00  0.00    -0.248 NA 
HETATM   23  C   UNL     1      -6.885   8.648  68.052  1.00  0.00    -0.070 A  
HETATM   24  N   UNL     1      -8.106   8.155  70.102  1.00  0.00    -0.111 NA 
HETATM   25  C   UNL     1      -8.823   9.950  68.593  1.00  0.00    -0.128 A  
HETATM   26  C   UNL     1      -7.116   7.922  69.212  1.00  0.00    -0.071 A  
HETATM   27  C   UNL     1      -7.758   9.683  67.714  1.00  0.00    -0.094 A  
BRANCH  22  28
HETATM   28  C   UNL     1     -10.337   9.292  71.805  1.00  0.00    -0.134 C  
BRANCH  28  29
HETATM   29  C   UNL     1     -11.753   8.769  71.866  1.00  0.00    -0.429 A  
HETATM   30  C   UNL     1     -13.338   7.003  71.306  1.00  0.00    -0.282 A  
HETATM   31  C   UNL     1     -14.404   7.849  71.603  1.00  0.00    -0.595 A  
HETATM   32  C   UNL     1     -12.030   7.464  71.445  1.00  0.00    -0.310 A  
HETATM   33  C   UNL     1     -14.152   9.136  72.074  1.00  0.00    -0.380 A  
HETATM   34  F   UNL     1     -11.025   6.635  71.127  1.00  0.00    -0.254 F  
HETATM   35  C   UNL     1     -12.836   9.596  72.205  1.00  0.00    -0.460 A  
ENDBRANCH  28  29
ENDBRANCH  22  28
ENDBRANCH  12  19
ENDBRANCH   4   7
ENDBRANCH   2   3
TORSDOF 5
ENDMDL
MODEL       46
REMARK 921   NORMALIZED FREE ENERGY PREDICTED BY IDOCK:   -6.59 KCAL/MOL
REMARK 922        TOTAL FREE ENERGY PREDICTED BY IDOCK:   -9.32 KCAL/MOL
REMARK 923 INTER-LIGAND FREE ENERGY PREDICTED BY IDOCK:   -9.07 KCAL/MOL
REMARK 924 INTRA-LIGAND FREE ENERGY PREDICTED BY IDOCK:   -0.25 KCAL/MOL
REMARK 927      BINDING AFFINITY PREDICTED BY RF-SCORE:    0.00 PKD
ROOT
HETATM    1  C   UNL     1     -12.533  13.407  63.565  1.00  0.00    -0.210 C  
HETATM    2  O   UNL     1     -12.548  14.289  64.686  1.00  0.00    -0.627 OA 
ENDROOT
BRANCH   2   3
HETATM    3  C   UNL     1     -11.530  15.193  64.708  1.00  0.00    -0.383 C  
HETATM    4  N   UNL     1     -10.616  14.956  65.723  1.00  0.00    -0.312 N  
HETATM    5  O   UNL     1     -11.437  16.127  63.917  1.00  0.00    -0.774 OA 
HETATM    6  C   UNL     1      -9.437  15.786  65.877  1.00  0.00    -0.342 C  
BRANCH   4   7
HETATM    7  C   UNL     1     -10.715  13.809  66.558  1.00  0.00    -0.284 A  
HETATM    8  C   UNL     1     -10.154  12.587  66.199  1.00  0.00    -0.251 A  
HETATM    9  N   UNL     1      -9.601  12.369  64.935  1.00  0.00    -0.465 NA 
HETATM   10  N   UNL     1     -10.175  11.521  67.005  1.00  0.00    -0.209 NA 
HETATM   11  H1  UNL     1      -9.190  11.473  64.672  1.00  0.00     0.000 HD 
HETATM   12  C   UNL     1     -10.789  11.672  68.194  1.00  0.00    -0.217 A  
HETATM   13  H2  UNL     1      -8.901  13.092  64.773  1.00  0.00     0.000 HD 
HETATM   14  N   UNL     1     -11.392  12.802  68.623  1.00  0.00    -0.271 NA 
HETATM   15  H2  UNL     1     -12.726  15.226  67.512  1.00  0.00     0.000 HD 
HETATM   16  H1  UNL     1     -12.496  15.029  69.133  1.00  0.00     0.000 HD 
HETATM   17  C   UNL     1     -11.344  13.857  67.797  1.00  0.00    -0.308 A  
HETATM   18  N   UNL     1     -12.034  14.994  68.224  1.00  0.00    -0.252 NA 
BRANCH  12  19
HETATM   19  C   UNL     1     -10.793  10.511  69.105  1.00  0.00    -0.237 A  
HETATM   20  C   UNL     1     -11.255   9.110  70.791  1.00  0.00    -0.277 A  
HETATM   21  N   UNL     1      -9.901   9.497  69.001  1.00  0.00    -0.170 NA 
HETATM   22  N   UNL     1     -10.251   8.641  69.993  1.00  0.00    -0.190 NA 
HETATM   23  C   UNL     1     -13.380  10.332  71.894  1.00  0.00    -0.487 A  
HETATM   24  N   UNL     1     -11.747   8.524  71.901  1.00  0.00    -0.316 NA 
HETATM   25  C   UNL     1     -11.687  10.288  70.199  1.00  0.00    -0.364 A  
HETATM   26  C   UNL     1     -12.808   9.182  72.420  1.00  0.00    -0.367 A  
HETATM   27  C   UNL     1     -12.811  10.917  70.763  1.00  0.00    -0.378 A  
BRANCH  22  28
HETATM   28  C   UNL     1      -9.535   7.386  70.173  1.00  0.00    -0.165 C  
BRANCH  28  29
HETATM   29  C   UNL     1      -9.010   7.180  71.574  1.00  0.00    -0.135 A  
HETATM   30  C   UNL     1      -9.196   6.018  73.710  1.00  0.00    -0.128 A  
HETATM   31  C   UNL     1      -8.353   6.953  74.305  1.00  0.00    -0.167 A  
HETATM   32  C   UNL     1      -9.510   6.133  72.357  1.00  0.00    -0.148 A  
HETATM   33  C   UNL     1      -7.800   7.974  73.534  1.00  0.00    -0.231 A  
HETATM   34  F   UNL     1     -10.344   5.233  71.818  1.00  0.00    -0.236 F  
HETATM   35  C   UNL     1      -8.126   8.089  72.177  1.00  0.00    -0.172 A  
ENDBRANCH  28  29
ENDBRANCH  22  28
ENDBRANCH  12  19
ENDBRANCH   4   7
ENDBRANCH   2   3
TORSDOF 5
ENDMDL
MODEL       47
REMARK 921   NORMALIZED FREE ENERGY PREDICTED BY IDOCK:   -6.57 KCAL/MOL
REMARK 922        TOTAL FREE ENERGY PREDICTED BY IDOCK:   -9.30 KCAL/MOL
REMARK 923 INTER-LIGAND FREE ENERGY PREDICTED BY IDOCK:   -8.91 KCAL/MOL
REMARK 924 INTRA-LIGAND FREE ENERGY PREDICTED BY IDOCK:   -0.40 KCAL/MOL
REMARK 927      BINDING AFFINITY PREDICTED BY RF-SCORE:    0.00 PKD
ROOT
HETATM    1  C   UNL     1      -8.389   7.859  74.072  1.00  0.00    -0.255 C  
HETATM    2  O   UNL     1      -9.688   8.066  73.522  1.00  0.00    -0.263 OA 
ENDROOT
BRANCH   2   3
HETATM    3  C   UNL     1     -10.501   6.975  73.567  1.00  0.00    -0.375 C  
HETATM    4  N   UNL     1     -11.543   7.037  72.654  1.00  0.00    -0.211 N  
HETATM    5  O   UNL     1     -10.335   6.038  74.342  1.00  0.00    -0.287 OA 
HETATM    6  C   UNL     1     -12.486   5.945  72.520  1.00  0.00     0.213 C  
BRANCH   4   7
HETATM    7  C   UNL     1     -11.643   8.100  71.715  1.00  0.00    -0.291 A  
HETATM    8  C   UNL     1     -12.435   9.220  71.953  1.00  0.00    -0.382 A  
HETATM    9  N   UNL     1     -13.298   9.298  73.048  1.00  0.00    -0.762 NA 
HETATM   10  N   UNL     1     -12.483  10.259  71.113  1.00  0.00    -0.356 NA 
HETATM   11  H1  UNL     1     -13.878  10.118  73.222  1.00  0.00     0.000 HD 
HETATM   12  C   UNL     1     -11.735  10.171  69.996  1.00  0.00    -0.223 A  
HETATM   13  H2  UNL     1     -12.749   9.121  73.889  1.00  0.00     0.000 HD 
HETATM   14  N   UNL     1     -10.961   9.117  69.656  1.00  0.00    -0.198 NA 
HETATM   15  H2  UNL     1     -10.799   6.176  70.118  1.00  0.00     0.000 HD 
HETATM   16  H1  UNL     1      -9.652   6.982  69.250  1.00  0.00     0.000 HD 
HETATM   17  C   UNL     1     -10.926   8.096  70.524  1.00  0.00    -0.243 A  
HETATM   18  N   UNL     1     -10.179   6.985  70.124  1.00  0.00    -0.191 NA 
BRANCH  12  19
HETATM   19  C   UNL     1     -11.756  11.325  69.076  1.00  0.00    -0.342 A  
HETATM   20  C   UNL     1     -11.910  13.397  68.238  1.00  0.00    -0.358 A  
HETATM   21  N   UNL     1     -11.683  11.188  67.730  1.00  0.00    -0.602 NA 
HETATM   22  N   UNL     1     -11.715  12.460  67.263  1.00  0.00    -0.451 NA 
HETATM   23  C   UNL     1     -12.051  14.845  70.498  1.00  0.00    -0.378 A  
HETATM   24  N   UNL     1     -12.073  14.724  68.064  1.00  0.00    -0.216 NA 
HETATM   25  C   UNL     1     -11.864  12.704  69.439  1.00  0.00    -0.356 A  
HETATM   26  C   UNL     1     -12.148  15.404  69.230  1.00  0.00    -0.255 A  
HETATM   27  C   UNL     1     -11.917  13.462  70.622  1.00  0.00    -0.290 A  
BRANCH  22  28
HETATM   28  C   UNL     1     -11.610  12.726  65.836  1.00  0.00    -0.382 C  
BRANCH  28  29
HETATM   29  C   UNL     1     -10.617  11.841  65.122  1.00  0.00    -0.332 A  
HETATM   30  C   UNL     1      -8.324  11.033  64.925  1.00  0.00     0.169 A  
HETATM   31  C   UNL     1      -8.604  10.511  63.664  1.00  0.00    -0.156 A  
HETATM   32  C   UNL     1      -9.328  11.683  65.642  1.00  0.00    -0.180 A  
HETATM   33  C   UNL     1      -9.894  10.611  63.147  1.00  0.00    -0.351 A  
HETATM   34  F   UNL     1      -9.022  12.196  66.842  1.00  0.00    -0.175 F  
HETATM   35  C   UNL     1     -10.896  11.272  63.869  1.00  0.00    -0.427 A  
ENDBRANCH  28  29
ENDBRANCH  22  28
ENDBRANCH  12  19
ENDBRANCH   4   7
ENDBRANCH   2   3
TORSDOF 5
ENDMDL
MODEL       48
REMARK 921   NORMALIZED FREE ENERGY PREDICTED BY IDOCK:   -6.57 KCAL/MOL
REMARK 922        TOTAL FREE ENERGY PREDICTED BY IDOCK:   -9.29 KCAL/MOL
REMARK 923 INTER-LIGAND FREE ENERGY PREDICTED BY IDOCK:   -8.33 KCAL/MOL
REMARK 924 INTRA-LIGAND FREE ENERGY PREDICTED BY IDOCK:   -0.96 KCAL/MOL
REMARK 927      BINDING AFFINITY PREDICTED BY RF-SCORE:    0.00 PKD
ROOT
HETATM    1  C   UNL     1     -10.932   6.575  67.051  1.00  0.00    -0.396 C  
HETATM    2  O   UNL     1     -10.100   7.662  66.652  1.00  0.00    -0.244 OA 
ENDROOT
BRANCH   2   3
HETATM    3  C   UNL     1      -8.942   7.292  66.038  1.00  0.00    -0.116 C  
HETATM    4  N   UNL     1      -8.212   8.371  65.562  1.00  0.00    -0.131 N  
HETATM    5  O   UNL     1      -8.586   6.125  65.911  1.00  0.00    -0.139 OA 
HETATM    6  C   UNL     1      -6.927   8.179  64.921  1.00  0.00    -0.074 C  
BRANCH   4   7
HETATM    7  C   UNL     1      -8.619   9.710  65.812  1.00  0.00    -0.136 A  
HETATM    8  C   UNL     1      -9.476  10.391  64.953  1.00  0.00    -0.265 A  
HETATM    9  N   UNL     1      -9.862   9.863  63.719  1.00  0.00    -0.467 NA 
HETATM   10  N   UNL     1      -9.925  11.624  65.212  1.00  0.00    -0.248 NA 
HETATM   11  H1  UNL     1     -10.490  10.362  63.089  1.00  0.00     0.000 HD 
HETATM   12  C   UNL     1      -9.492  12.200  66.349  1.00  0.00    -0.233 A  
HETATM   13  H2  UNL     1     -10.259   8.940  63.887  1.00  0.00     0.000 HD 
HETATM   14  N   UNL     1      -8.636  11.639  67.231  1.00  0.00    -0.148 NA 
HETATM   15  H2  UNL     1      -6.439   9.624  67.297  1.00  0.00     0.000 HD 
HETATM   16  H1  UNL     1      -6.975  10.368  68.668  1.00  0.00     0.000 HD 
HETATM   17  C   UNL     1      -8.213  10.399  66.949  1.00  0.00    -0.124 A  
HETATM   18  N   UNL     1      -7.273   9.862  67.833  1.00  0.00    -0.086 NA 
BRANCH  12  19
HETATM   19  C   UNL     1     -10.004  13.549  66.661  1.00  0.00    -0.282 A  
HETATM   20  C   UNL     1     -11.030  15.277  67.651  1.00  0.00    -0.311 A  
HETATM   21  N   UNL     1      -9.878  14.594  65.809  1.00  0.00    -0.331 NA 
HETATM   22  N   UNL     1     -10.451  15.632  66.466  1.00  0.00    -0.297 NA 
HETATM   23  C   UNL     1     -11.781  14.153  69.975  1.00  0.00    -0.358 A  
HETATM   24  N   UNL     1     -11.746  16.071  68.472  1.00  0.00    -0.333 NA 
HETATM   25  C   UNL     1     -10.693  13.946  67.850  1.00  0.00    -0.248 A  
HETATM   26  C   UNL     1     -12.106  15.456  69.621  1.00  0.00    -0.327 A  
HETATM   27  C   UNL     1     -11.068  13.362  69.073  1.00  0.00    -0.293 A  
BRANCH  22  28
HETATM   28  C   UNL     1     -10.469  16.962  65.875  1.00  0.00    -0.285 C  
BRANCH  28  29
HETATM   29  C   UNL     1      -9.531  17.939  66.542  1.00  0.00    -0.307 A  
HETATM   30  C   UNL     1      -9.227  20.062  67.702  1.00  0.00    -0.457 A  
HETATM   31  C   UNL     1      -7.851  19.993  67.494  1.00  0.00    -0.337 A  
HETATM   32  C   UNL     1     -10.049  19.038  67.235  1.00  0.00    -0.364 A  
HETATM   33  C   UNL     1      -7.306  18.882  66.852  1.00  0.00    -0.224 A  
HETATM   34  F   UNL     1     -11.371  19.145  67.428  1.00  0.00    -0.473 F  
HETATM   35  C   UNL     1      -8.138  17.860  66.377  1.00  0.00    -0.296 A  
ENDBRANCH  28  29
ENDBRANCH  22  28
ENDBRANCH  12  19
ENDBRANCH   4   7
ENDBRANCH   2   3
TORSDOF 5
ENDMDL
MODEL       49
REMARK 921   NORMALIZED FREE ENERGY PREDICTED BY IDOCK:   -6.55 KCAL/MOL
REMARK 922        TOTAL FREE ENERGY PREDICTED BY IDOCK:   -9.26 KCAL/MOL
REMARK 923 INTER-LIGAND FREE ENERGY PREDICTED BY IDOCK:   -8.29 KCAL/MOL
REMARK 924 INTRA-LIGAND FREE ENERGY PREDICTED BY IDOCK:   -0.98 KCAL/MOL
REMARK 927      BINDING AFFINITY PREDICTED BY RF-SCORE:    0.00 PKD
ROOT
HETATM    1  C   UNL     1     -10.993   7.019  67.043  1.00  0.00    -0.287 C  
HETATM    2  O   UNL     1     -10.488   8.095  67.833  1.00  0.00    -0.222 OA 
ENDROOT
BRANCH   2   3
HETATM    3  C   UNL     1     -10.301   7.791  69.147  1.00  0.00    -0.215 C  
HETATM    4  N   UNL     1     -10.088   8.911  69.936  1.00  0.00    -0.189 N  
HETATM    5  O   UNL     1     -10.310   6.645  69.585  1.00  0.00    -0.180 OA 
HETATM    6  C   UNL     1      -9.916   8.792  71.371  1.00  0.00    -0.283 C  
BRANCH   4   7
HETATM    7  C   UNL     1     -10.177  10.225  69.400  1.00  0.00    -0.235 A  
HETATM    8  C   UNL     1     -11.375  10.932  69.381  1.00  0.00    -0.280 A  
HETATM    9  N   UNL     1     -12.590  10.342  69.738  1.00  0.00    -0.545 NA 
HETATM   10  N   UNL     1     -11.460  12.194  68.948  1.00  0.00    -0.272 NA 
HETATM   11  H1  UNL     1     -13.468  10.859  69.723  1.00  0.00     0.000 HD 
HETATM   12  C   UNL     1     -10.321  12.760  68.505  1.00  0.00    -0.221 A  
HETATM   13  H2  UNL     1     -12.479   9.943  70.669  1.00  0.00     0.000 HD 
HETATM   14  N   UNL     1      -9.116  12.151  68.451  1.00  0.00    -0.180 NA 
HETATM   15  H2  UNL     1      -7.966   9.410  68.212  1.00  0.00     0.000 HD 
HETATM   16  H1  UNL     1      -7.008  10.739  68.406  1.00  0.00     0.000 HD 
HETATM   17  C   UNL     1      -9.062  10.890  68.903  1.00  0.00    -0.144 A  
HETATM   18  N   UNL     1      -7.826  10.251  68.772  1.00  0.00    -0.099 NA 
BRANCH  12  19
HETATM   19  C   UNL     1     -10.395  14.163  68.052  1.00  0.00    -0.231 A  
HETATM   20  C   UNL     1     -10.589  16.000  66.784  1.00  0.00    -0.297 A  
HETATM   21  N   UNL     1     -10.144  15.210  68.874  1.00  0.00    -0.230 NA 
HETATM   22  N   UNL     1     -10.333  16.302  68.092  1.00  0.00    -0.267 NA 
HETATM   23  C   UNL     1     -11.298  14.914  64.430  1.00  0.00    -0.211 A  
HETATM   24  N   UNL     1     -10.730  16.871  65.765  1.00  0.00    -0.284 NA 
HETATM   25  C   UNL     1     -10.715  14.619  66.735  1.00  0.00    -0.301 A  
HETATM   26  C   UNL     1     -11.077  16.274  64.604  1.00  0.00    -0.246 A  
HETATM   27  C   UNL     1     -11.105  14.051  65.509  1.00  0.00    -0.309 A  
BRANCH  22  28
HETATM   28  C   UNL     1     -10.195  17.641  68.645  1.00  0.00    -0.377 C  
BRANCH  28  29
HETATM   29  C   UNL     1      -8.961  18.372  68.173  1.00  0.00    -0.325 A  
HETATM   30  C   UNL     1      -7.996  20.157  66.821  1.00  0.00    -0.343 A  
HETATM   31  C   UNL     1      -6.732  19.588  66.951  1.00  0.00    -0.202 A  
HETATM   32  C   UNL     1      -9.092  19.553  67.435  1.00  0.00    -0.309 A  
HETATM   33  C   UNL     1      -6.568  18.440  67.724  1.00  0.00    -0.213 A  
HETATM   34  F   UNL     1     -10.300  20.110  67.272  1.00  0.00    -0.515 F  
HETATM   35  C   UNL     1      -7.673  17.833  68.332  1.00  0.00    -0.278 A  
ENDBRANCH  28  29
ENDBRANCH  22  28
ENDBRANCH  12  19
ENDBRANCH   4   7
ENDBRANCH   2   3
TORSDOF 5
ENDMDL
MODEL       50
REMARK 921   NORMALIZED FREE ENERGY PREDICTED BY IDOCK:   -6.51 KCAL/MOL
REMARK 922        TOTAL FREE ENERGY PREDICTED BY IDOCK:   -9.22 KCAL/MOL
REMARK 923 INTER-LIGAND FREE ENERGY PREDICTED BY IDOCK:   -8.56 KCAL/MOL
REMARK 924 INTRA-LIGAND FREE ENERGY PREDICTED BY IDOCK:   -0.66 KCAL/MOL
REMARK 927      BINDING AFFINITY PREDICTED BY RF-SCORE:    0.00 PKD
ROOT
HETATM    1  C   UNL     1      -8.520  16.638  66.446  1.00  0.00    -0.313 C  
HETATM    2  O   UNL     1      -9.492  15.599  66.344  1.00  0.00    -0.245 OA 
ENDROOT
BRANCH   2   3
HETATM    3  C   UNL     1     -10.462  15.822  65.415  1.00  0.00    -0.414 C  
HETATM    4  N   UNL     1     -11.236  14.700  65.160  1.00  0.00    -0.355 N  
HETATM    5  O   UNL     1     -10.628  16.900  64.854  1.00  0.00    -0.702 OA 
HETATM    6  C   UNL     1     -12.351  14.755  64.234  1.00  0.00    -0.320 C  
BRANCH   4   7
HETATM    7  C   UNL     1     -11.066  13.498  65.899  1.00  0.00    -0.284 A  
HETATM    8  C   UNL     1     -10.354  12.415  65.390  1.00  0.00    -0.277 A  
HETATM    9  N   UNL     1      -9.901  12.382  64.070  1.00  0.00    -0.594 NA 
HETATM   10  N   UNL     1     -10.123  11.307  66.101  1.00  0.00    -0.228 NA 
HETATM   11  H1  UNL     1      -9.379  11.590  63.696  1.00  0.00     0.000 HD 
HETATM   12  C   UNL     1     -10.633  11.269  67.347  1.00  0.00    -0.224 A  
HETATM   13  H2  UNL     1      -9.345  13.222  63.911  1.00  0.00     0.000 HD 
HETATM   14  N   UNL     1     -11.365  12.249  67.921  1.00  0.00    -0.276 NA 
HETATM   15  H2  UNL     1     -13.175  14.485  67.140  1.00  0.00     0.000 HD 
HETATM   16  H1  UNL     1     -12.757  14.217  68.713  1.00  0.00     0.000 HD 
HETATM   17  C   UNL     1     -11.569  13.352  67.187  1.00  0.00    -0.358 A  
HETATM   18  N   UNL     1     -12.388  14.324  67.767  1.00  0.00    -0.146 NA 
BRANCH  12  19
HETATM   19  C   UNL     1     -10.360  10.063  68.153  1.00  0.00    -0.194 A  
HETATM   20  C   UNL     1     -10.303   8.562  69.815  1.00  0.00    -0.212 A  
HETATM   21  N   UNL     1      -9.518   9.084  67.742  1.00  0.00    -0.140 NA 
HETATM   22  N   UNL     1      -9.559   8.167  68.740  1.00  0.00    -0.148 NA 
HETATM   23  C   UNL     1     -12.047   9.658  71.543  1.00  0.00    -0.482 A  
HETATM   24  N   UNL     1     -10.451   7.904  70.983  1.00  0.00    -0.203 NA 
HETATM   25  C   UNL     1     -10.903   9.755  69.439  1.00  0.00    -0.256 A  
HETATM   26  C   UNL     1     -11.330   8.501  71.818  1.00  0.00    -0.307 A  
HETATM   27  C   UNL     1     -11.831  10.319  70.333  1.00  0.00    -0.396 A  
BRANCH  22  28
HETATM   28  C   UNL     1      -8.802   6.928  68.637  1.00  0.00    -0.124 C  
BRANCH  28  29
HETATM   29  C   UNL     1      -9.022   6.186  67.341  1.00  0.00    -0.112 A  
HETATM   30  C   UNL     1     -10.446   4.731  65.999  1.00  0.00    -0.332 A  
HETATM   31  C   UNL     1      -9.390   4.482  65.126  1.00  0.00    -0.160 A  
HETATM   32  C   UNL     1     -10.257   5.581  67.088  1.00  0.00    -0.218 A  
HETATM   33  C   UNL     1      -8.164   5.115  65.328  1.00  0.00    -0.126 A  
HETATM   34  F   UNL     1     -11.285   5.781  67.924  1.00  0.00    -0.314 F  
HETATM   35  C   UNL     1      -7.978   5.961  66.428  1.00  0.00    -0.102 A  
ENDBRANCH  28  29
ENDBRANCH  22  28
ENDBRANCH  12  19
ENDBRANCH   4   7
ENDBRANCH   2   3
TORSDOF 5
ENDMDL
MODEL       51
REMARK 921   NORMALIZED FREE ENERGY PREDICTED BY IDOCK:   -6.50 KCAL/MOL
REMARK 922        TOTAL FREE ENERGY PREDICTED BY IDOCK:   -9.21 KCAL/MOL
REMARK 923 INTER-LIGAND FREE ENERGY PREDICTED BY IDOCK:   -8.17 KCAL/MOL
REMARK 924 INTRA-LIGAND FREE ENERGY PREDICTED BY IDOCK:   -1.04 KCAL/MOL
REMARK 927      BINDING AFFINITY PREDICTED BY RF-SCORE:    0.00 PKD
ROOT
HETATM    1  C   UNL     1      -6.863   5.269  70.601  1.00  0.00    -0.051 C  
HETATM    2  O   UNL     1      -7.825   6.253  70.978  1.00  0.00    -0.106 OA 
ENDROOT
BRANCH   2   3
HETATM    3  C   UNL     1      -8.871   5.771  71.705  1.00  0.00    -0.136 C  
HETATM    4  N   UNL     1     -10.075   6.386  71.396  1.00  0.00    -0.188 N  
HETATM    5  O   UNL     1      -8.758   4.891  72.553  1.00  0.00    -0.118 OA 
HETATM    6  C   UNL     1     -11.310   5.973  72.033  1.00  0.00    -0.290 C  
BRANCH   4   7
HETATM    7  C   UNL     1     -10.174   7.336  70.344  1.00  0.00    -0.194 A  
HETATM    8  C   UNL     1     -10.442   6.956  69.032  1.00  0.00    -0.208 A  
HETATM    9  N   UNL     1     -10.474   5.616  68.641  1.00  0.00    -0.211 NA 
HETATM   10  N   UNL     1     -10.611   7.843  68.045  1.00  0.00    -0.174 NA 
HETATM   11  H1  UNL     1     -10.671   5.337  67.680  1.00  0.00     0.000 HD 
HETATM   12  C   UNL     1     -10.489   9.144  68.372  1.00  0.00    -0.199 A  
HETATM   13  H2  UNL     1     -11.135   5.131  69.246  1.00  0.00     0.000 HD 
HETATM   14  N   UNL     1     -10.198   9.615  69.605  1.00  0.00    -0.206 NA 
HETATM   15  H2  UNL     1      -8.797   8.754  72.092  1.00  0.00     0.000 HD 
HETATM   16  H1  UNL     1      -9.581  10.202  71.995  1.00  0.00     0.000 HD 
HETATM   17  C   UNL     1     -10.046   8.701  70.574  1.00  0.00    -0.196 A  
HETATM   18  N   UNL     1      -9.674   9.200  71.825  1.00  0.00    -0.289 NA 
BRANCH  12  19
HETATM   19  C   UNL     1     -10.703  10.133  67.299  1.00  0.00    -0.254 A  
HETATM   20  C   UNL     1     -10.536  11.300  65.393  1.00  0.00    -0.268 A  
HETATM   21  N   UNL     1     -11.550  11.182  67.429  1.00  0.00    -0.537 NA 
HETATM   22  N   UNL     1     -11.471  11.826  66.238  1.00  0.00    -0.411 NA 
HETATM   23  C   UNL     1      -8.794   9.778  64.022  1.00  0.00    -0.258 A  
HETATM   24  N   UNL     1     -10.174  11.780  64.186  1.00  0.00    -0.296 NA 
HETATM   25  C   UNL     1     -10.070  10.151  66.016  1.00  0.00    -0.317 A  
HETATM   26  C   UNL     1      -9.291  10.984  63.544  1.00  0.00    -0.260 A  
HETATM   27  C   UNL     1      -9.175   9.344  65.292  1.00  0.00    -0.299 A  
BRANCH  22  28
HETATM   28  C   UNL     1     -12.289  13.001  65.978  1.00  0.00    -0.319 C  
BRANCH  28  29
HETATM   29  C   UNL     1     -11.779  14.258  66.641  1.00  0.00    -0.417 A  
HETATM   30  C   UNL     1     -10.216  16.130  66.617  1.00  0.00    -0.291 A  
HETATM   31  C   UNL     1     -10.509  16.408  67.950  1.00  0.00    -0.307 A  
HETATM   32  C   UNL     1     -10.854  15.070  65.976  1.00  0.00    -0.334 A  
HETATM   33  C   UNL     1     -11.466  15.646  68.619  1.00  0.00    -0.381 A  
HETATM   34  F   UNL     1     -10.532  14.811  64.700  1.00  0.00    -0.421 F  
HETATM   35  C   UNL     1     -12.098  14.577  67.972  1.00  0.00    -0.233 A  
ENDBRANCH  28  29
ENDBRANCH  22  28
ENDBRANCH  12  19
ENDBRANCH   4   7
ENDBRANCH   2   3
TORSDOF 5
ENDMDL
MODEL       52
REMARK 921   NORMALIZED FREE ENERGY PREDICTED BY IDOCK:   -6.48 KCAL/MOL
REMARK 922        TOTAL FREE ENERGY PREDICTED BY IDOCK:   -9.18 KCAL/MOL
REMARK 923 INTER-LIGAND FREE ENERGY PREDICTED BY IDOCK:   -8.18 KCAL/MOL
REMARK 924 INTRA-LIGAND FREE ENERGY PREDICTED BY IDOCK:   -1.00 KCAL/MOL
REMARK 927      BINDING AFFINITY PREDICTED BY RF-SCORE:    0.00 PKD
ROOT
HETATM    1  C   UNL     1     -10.254  17.775  68.652  1.00  0.00    -0.377 C  
HETATM    2  O   UNL     1     -10.636  16.551  68.027  1.00  0.00    -0.302 OA 
ENDROOT
BRANCH   2   3
HETATM    3  C   UNL     1     -10.441  16.519  66.680  1.00  0.00    -0.266 C  
HETATM    4  N   UNL     1     -10.233  15.237  66.193  1.00  0.00    -0.286 N  
HETATM    5  O   UNL     1     -10.439  17.521  65.972  1.00  0.00    -0.367 OA 
HETATM    6  C   UNL     1     -10.053  14.996  64.775  1.00  0.00     0.026 C  
BRANCH   4   7
HETATM    7  C   UNL     1     -10.334  14.097  67.037  1.00  0.00    -0.267 A  
HETATM    8  C   UNL     1     -11.554  13.480  67.297  1.00  0.00    -0.362 A  
HETATM    9  N   UNL     1     -12.767  14.032  66.877  1.00  0.00    -0.378 NA 
HETATM   10  N   UNL     1     -11.657  12.365  68.027  1.00  0.00    -0.327 NA 
HETATM   11  H1  UNL     1     -13.661  13.580  67.067  1.00  0.00     0.000 HD 
HETATM   12  C   UNL     1     -10.512  11.863  68.529  1.00  0.00    -0.224 A  
HETATM   13  H2  UNL     1     -12.706  14.189  65.872  1.00  0.00     0.000 HD 
HETATM   14  N   UNL     1      -9.284  12.402  68.364  1.00  0.00    -0.180 NA 
HETATM   15  H2  UNL     1      -8.018  15.055  67.863  1.00  0.00     0.000 HD 
HETATM   16  H1  UNL     1      -7.127  13.669  67.942  1.00  0.00     0.000 HD 
HETATM   17  C   UNL     1      -9.214  13.513  67.617  1.00  0.00    -0.214 A  
HETATM   18  N   UNL     1      -7.949  14.098  67.517  1.00  0.00    -0.176 NA 
BRANCH  12  19
HETATM   19  C   UNL     1     -10.608  10.616  69.312  1.00  0.00    -0.233 A  
HETATM   20  C   UNL     1     -11.190   9.080  70.836  1.00  0.00    -0.287 A  
HETATM   21  N   UNL     1      -9.782   9.561  69.112  1.00  0.00    -0.171 NA 
HETATM   22  N   UNL     1     -10.204   8.631  70.004  1.00  0.00    -0.190 NA 
HETATM   23  C   UNL     1     -13.251  10.319  72.038  1.00  0.00    -0.516 A  
HETATM   24  N   UNL     1     -11.739   8.415  71.872  1.00  0.00    -0.310 NA 
HETATM   25  C   UNL     1     -11.534  10.339  70.367  1.00  0.00    -0.415 A  
HETATM   26  C   UNL     1     -12.764   9.084  72.446  1.00  0.00    -0.363 A  
HETATM   27  C   UNL     1     -12.624  10.980  70.982  1.00  0.00    -0.512 A  
BRANCH  22  28
HETATM   28  C   UNL     1      -9.575   7.320  70.058  1.00  0.00    -0.167 C  
BRANCH  28  29
HETATM   29  C   UNL     1      -9.516   6.616  68.723  1.00  0.00    -0.129 A  
HETATM   30  C   UNL     1      -8.223   6.034  66.740  1.00  0.00    -0.106 A  
HETATM   31  C   UNL     1      -9.387   5.649  66.079  1.00  0.00    -0.150 A  
HETATM   32  C   UNL     1      -8.295   6.504  68.050  1.00  0.00    -0.116 A  
HETATM   33  C   UNL     1     -10.609   5.703  66.747  1.00  0.00    -0.372 A  
HETATM   34  F   UNL     1      -7.161   6.890  68.651  1.00  0.00    -0.073 F  
HETATM   35  C   UNL     1     -10.676   6.183  68.060  1.00  0.00    -0.370 A  
ENDBRANCH  28  29
ENDBRANCH  22  28
ENDBRANCH  12  19
ENDBRANCH   4   7
ENDBRANCH   2   3
TORSDOF 5
ENDMDL
MODEL       53
REMARK 921   NORMALIZED FREE ENERGY PREDICTED BY IDOCK:   -6.46 KCAL/MOL
REMARK 922        TOTAL FREE ENERGY PREDICTED BY IDOCK:   -9.15 KCAL/MOL
REMARK 923 INTER-LIGAND FREE ENERGY PREDICTED BY IDOCK:   -8.04 KCAL/MOL
REMARK 924 INTRA-LIGAND FREE ENERGY PREDICTED BY IDOCK:   -1.11 KCAL/MOL
REMARK 927      BINDING AFFINITY PREDICTED BY RF-SCORE:    0.00 PKD
ROOT
HETATM    1  C   UNL     1      -6.698   8.345  65.019  1.00  0.00    -0.063 C  
HETATM    2  O   UNL     1      -7.462   8.333  66.223  1.00  0.00    -0.077 OA 
ENDROOT
BRANCH   2   3
HETATM    3  C   UNL     1      -8.415   7.362  66.278  1.00  0.00    -0.137 C  
HETATM    4  N   UNL     1      -9.626   7.820  66.773  1.00  0.00    -0.197 N  
HETATM    5  O   UNL     1      -8.219   6.201  65.935  1.00  0.00    -0.118 OA 
HETATM    6  C   UNL     1     -10.777   6.943  66.862  1.00  0.00    -0.316 C  
BRANCH   4   7
HETATM    7  C   UNL     1      -9.834   9.194  67.073  1.00  0.00    -0.207 A  
HETATM    8  C   UNL     1     -10.078  10.136  66.078  1.00  0.00    -0.248 A  
HETATM    9  N   UNL     1      -9.977   9.822  64.720  1.00  0.00    -0.376 NA 
HETATM   10  N   UNL     1     -10.348  11.417  66.349  1.00  0.00    -0.234 NA 
HETATM   11  H1  UNL     1     -10.156  10.511  63.991  1.00  0.00     0.000 HD 
HETATM   12  C   UNL     1     -10.355  11.773  67.647  1.00  0.00    -0.200 A  
HETATM   13  H2  UNL     1     -10.579   9.018  64.542  1.00  0.00     0.000 HD 
HETATM   14  N   UNL     1     -10.099  10.946  68.685  1.00  0.00    -0.183 NA 
HETATM   15  H2  UNL     1      -8.588   8.444  69.275  1.00  0.00     0.000 HD 
HETATM   16  H1  UNL     1      -9.517   9.187  70.418  1.00  0.00     0.000 HD 
HETATM   17  C   UNL     1      -9.844   9.666  68.381  1.00  0.00    -0.153 A  
HETATM   18  N   UNL     1      -9.510   8.841  69.459  1.00  0.00    -0.164 NA 
BRANCH  12  19
HETATM   19  C   UNL     1     -10.681  13.178  67.961  1.00  0.00    -0.233 A  
HETATM   20  C   UNL     1     -10.630  15.414  68.089  1.00  0.00    -0.263 A  
HETATM   21  N   UNL     1     -11.682  13.525  68.806  1.00  0.00    -0.316 NA 
HETATM   22  N   UNL     1     -11.662  14.881  68.808  1.00  0.00    -0.322 NA 
HETATM   23  C   UNL     1      -8.634  15.971  66.377  1.00  0.00    -0.369 A  
HETATM   24  N   UNL     1     -10.306  16.718  67.984  1.00  0.00    -0.302 NA 
HETATM   25  C   UNL     1     -10.017  14.341  67.460  1.00  0.00    -0.235 A  
HETATM   26  C   UNL     1      -9.292  16.943  67.119  1.00  0.00    -0.234 A  
HETATM   27  C   UNL     1      -8.985  14.631  66.549  1.00  0.00    -0.236 A  
BRANCH  22  28
HETATM   28  C   UNL     1     -12.640  15.633  69.580  1.00  0.00     0.066 C  
BRANCH  28  29
HETATM   29  C   UNL     1     -12.474  15.494  71.075  1.00  0.00    -0.492 A  
HETATM   30  C   UNL     1     -13.260  14.521  73.168  1.00  0.00    -0.484 A  
HETATM   31  C   UNL     1     -12.489  15.427  73.892  1.00  0.00    -0.763 A  
HETATM   32  C   UNL     1     -13.240  14.556  71.774  1.00  0.00    -0.351 A  
HETATM   33  C   UNL     1     -11.677  16.337  73.217  1.00  0.00    -0.241 A  
HETATM   34  F   UNL     1     -14.012  13.688  71.105  1.00  0.00    -0.203 F  
HETATM   35  C   UNL     1     -11.668  16.373  71.817  1.00  0.00    -0.395 A  
ENDBRANCH  28  29
ENDBRANCH  22  28
ENDBRANCH  12  19
ENDBRANCH   4   7
ENDBRANCH   2   3
TORSDOF 5
ENDMDL
MODEL       54
REMARK 921   NORMALIZED FREE ENERGY PREDICTED BY IDOCK:   -6.46 KCAL/MOL
REMARK 922        TOTAL FREE ENERGY PREDICTED BY IDOCK:   -9.15 KCAL/MOL
REMARK 923 INTER-LIGAND FREE ENERGY PREDICTED BY IDOCK:   -8.52 KCAL/MOL
REMARK 924 INTRA-LIGAND FREE ENERGY PREDICTED BY IDOCK:   -0.63 KCAL/MOL
REMARK 927      BINDING AFFINITY PREDICTED BY RF-SCORE:    0.00 PKD
ROOT
HETATM    1  C   UNL     1      -9.519  16.913  66.957  1.00  0.00    -0.244 C  
HETATM    2  O   UNL     1      -9.590  15.930  65.925  1.00  0.00    -0.315 OA 
ENDROOT
BRANCH   2   3
HETATM    3  C   UNL     1     -10.700  16.015  65.140  1.00  0.00    -0.409 C  
HETATM    4  N   UNL     1     -11.388  14.816  65.044  1.00  0.00    -0.374 N  
HETATM    5  O   UNL     1     -11.048  17.044  64.569  1.00  0.00    -1.098 OA 
HETATM    6  C   UNL     1     -12.622  14.721  64.289  1.00  0.00    -0.029 C  
BRANCH   4   7
HETATM    7  C   UNL     1     -10.998  13.674  65.795  1.00  0.00    -0.278 A  
HETATM    8  C   UNL     1     -10.200  12.672  65.250  1.00  0.00    -0.284 A  
HETATM    9  N   UNL     1      -9.865  12.647  63.894  1.00  0.00    -0.675 NA 
HETATM   10  N   UNL     1      -9.764  11.630  65.965  1.00  0.00    -0.226 NA 
HETATM   11  H1  UNL     1      -9.280  11.913  63.495  1.00  0.00     0.000 HD 
HETATM   12  C   UNL     1     -10.152  11.574  67.254  1.00  0.00    -0.199 A  
HETATM   13  H2  UNL     1      -9.440  13.544  63.662  1.00  0.00     0.000 HD 
HETATM   14  N   UNL     1     -10.951  12.475  67.868  1.00  0.00    -0.218 NA 
HETATM   15  H2  UNL     1     -13.099  14.432  67.201  1.00  0.00     0.000 HD 
HETATM   16  H1  UNL     1     -12.510  14.279  68.734  1.00  0.00     0.000 HD 
HETATM   17  C   UNL     1     -11.361  13.514  67.127  1.00  0.00    -0.321 A  
HETATM   18  N   UNL     1     -12.244  14.396  67.756  1.00  0.00    -0.255 NA 
BRANCH  12  19
HETATM   19  C   UNL     1      -9.654  10.444  68.061  1.00  0.00    -0.143 A  
HETATM   20  C   UNL     1      -9.124   8.388  68.776  1.00  0.00    -0.143 A  
HETATM   21  N   UNL     1      -9.190  10.597  69.325  1.00  0.00    -0.150 NA 
HETATM   22  N   UNL     1      -8.820   9.347  69.699  1.00  0.00    -0.158 NA 
HETATM   23  C   UNL     1      -9.681   6.934  66.584  1.00  0.00    -0.221 A  
HETATM   24  N   UNL     1      -8.960   7.056  68.908  1.00  0.00    -0.130 NA 
HETATM   25  C   UNL     1      -9.596   9.071  67.665  1.00  0.00    -0.183 A  
HETATM   26  C   UNL     1      -9.261   6.372  67.782  1.00  0.00    -0.112 A  
HETATM   27  C   UNL     1      -9.869   8.315  66.511  1.00  0.00    -0.323 A  
BRANCH  22  28
HETATM   28  C   UNL     1      -8.222   9.113  71.005  1.00  0.00    -0.137 C  
BRANCH  28  29
HETATM   29  C   UNL     1      -8.996   8.142  71.865  1.00  0.00    -0.225 A  
HETATM   30  C   UNL     1     -10.959   7.698  73.242  1.00  0.00    -0.331 A  
HETATM   31  C   UNL     1     -10.351   6.558  73.761  1.00  0.00    -0.346 A  
HETATM   32  C   UNL     1     -10.284   8.472  72.299  1.00  0.00    -0.325 A  
HETATM   33  C   UNL     1      -9.090   6.180  73.306  1.00  0.00    -0.129 A  
HETATM   34  F   UNL     1     -10.884   9.578  71.836  1.00  0.00    -0.420 F  
HETATM   35  C   UNL     1      -8.413   6.966  72.364  1.00  0.00    -0.120 A  
ENDBRANCH  28  29
ENDBRANCH  22  28
ENDBRANCH  12  19
ENDBRANCH   4   7
ENDBRANCH   2   3
TORSDOF 5
ENDMDL
MODEL       55
REMARK 921   NORMALIZED FREE ENERGY PREDICTED BY IDOCK:   -6.43 KCAL/MOL
REMARK 922        TOTAL FREE ENERGY PREDICTED BY IDOCK:   -9.11 KCAL/MOL
REMARK 923 INTER-LIGAND FREE ENERGY PREDICTED BY IDOCK:   -8.72 KCAL/MOL
REMARK 924 INTRA-LIGAND FREE ENERGY PREDICTED BY IDOCK:   -0.39 KCAL/MOL
REMARK 927      BINDING AFFINITY PREDICTED BY RF-SCORE:    0.00 PKD
ROOT
HETATM    1  C   UNL     1     -10.551  16.898  68.847  1.00  0.00    -0.353 C  
HETATM    2  O   UNL     1     -10.924  15.726  68.124  1.00  0.00    -0.303 OA 
ENDROOT
BRANCH   2   3
HETATM    3  C   UNL     1     -10.736  15.809  66.778  1.00  0.00    -0.293 C  
HETATM    4  N   UNL     1     -10.514  14.576  66.185  1.00  0.00    -0.289 N  
HETATM    5  O   UNL     1     -10.753  16.867  66.156  1.00  0.00    -0.239 OA 
HETATM    6  C   UNL     1     -10.340  14.457  64.750  1.00  0.00    -0.320 C  
BRANCH   4   7
HETATM    7  C   UNL     1     -10.594  13.369  66.930  1.00  0.00    -0.273 A  
HETATM    8  C   UNL     1      -9.587  12.978  67.809  1.00  0.00    -0.208 A  
HETATM    9  N   UNL     1      -8.372  13.662  67.894  1.00  0.00    -0.160 NA 
HETATM   10  N   UNL     1      -9.681  11.884  68.571  1.00  0.00    -0.196 NA 
HETATM   11  H1  UNL     1      -7.634  13.376  68.538  1.00  0.00     0.000 HD 
HETATM   12  C   UNL     1     -10.801  11.148  68.440  1.00  0.00    -0.205 A  
HETATM   13  H2  UNL     1      -8.580  14.643  68.076  1.00  0.00     0.000 HD 
HETATM   14  N   UNL     1     -11.820  11.421  67.594  1.00  0.00    -0.636 NA 
HETATM   15  H2  UNL     1     -12.309  12.813  65.003  1.00  0.00     0.000 HD 
HETATM   16  H1  UNL     1     -13.539  12.144  65.875  1.00  0.00     0.000 HD 
HETATM   17  C   UNL     1     -11.700  12.531  66.852  1.00  0.00    -0.377 A  
HETATM   18  N   UNL     1     -12.727  12.759  65.932  1.00  0.00    -0.315 NA 
BRANCH  12  19
HETATM   19  C   UNL     1     -10.931   9.954  69.297  1.00  0.00    -0.211 A  
HETATM   20  C   UNL     1     -11.546   8.533  70.916  1.00  0.00    -0.263 A  
HETATM   21  N   UNL     1     -10.145   8.860  69.150  1.00  0.00    -0.191 NA 
HETATM   22  N   UNL     1     -10.589   8.000  70.101  1.00  0.00    -0.233 NA 
HETATM   23  C   UNL     1     -13.545   9.914  72.065  1.00  0.00    -0.399 A  
HETATM   24  N   UNL     1     -12.105   7.951  71.996  1.00  0.00    -0.306 NA 
HETATM   25  C   UNL     1     -11.851   9.774  70.377  1.00  0.00    -0.264 A  
HETATM   26  C   UNL     1     -13.097   8.689  72.541  1.00  0.00    -0.289 A  
HETATM   27  C   UNL     1     -12.910  10.489  70.964  1.00  0.00    -0.502 A  
BRANCH  22  28
HETATM   28  C   UNL     1     -10.006   6.672  70.226  1.00  0.00    -0.174 C  
BRANCH  28  29
HETATM   29  C   UNL     1     -10.135   5.830  68.979  1.00  0.00    -0.249 A  
HETATM   30  C   UNL     1      -9.398   3.888  67.702  1.00  0.00    -0.232 A  
HETATM   31  C   UNL     1     -10.029   4.383  66.563  1.00  0.00    -0.245 A  
HETATM   32  C   UNL     1      -9.462   4.606  68.895  1.00  0.00    -0.153 A  
HETATM   33  C   UNL     1     -10.750   5.574  66.636  1.00  0.00    -0.332 A  
HETATM   34  F   UNL     1      -8.824   4.117  69.967  1.00  0.00    -0.092 F  
HETATM   35  C   UNL     1     -10.803   6.295  67.835  1.00  0.00    -0.417 A  
ENDBRANCH  28  29
ENDBRANCH  22  28
ENDBRANCH  12  19
ENDBRANCH   4   7
ENDBRANCH   2   3
TORSDOF 5
ENDMDL
MODEL       56
REMARK 921   NORMALIZED FREE ENERGY PREDICTED BY IDOCK:   -6.42 KCAL/MOL
REMARK 922        TOTAL FREE ENERGY PREDICTED BY IDOCK:   -9.10 KCAL/MOL
REMARK 923 INTER-LIGAND FREE ENERGY PREDICTED BY IDOCK:   -8.28 KCAL/MOL
REMARK 924 INTRA-LIGAND FREE ENERGY PREDICTED BY IDOCK:   -0.83 KCAL/MOL
REMARK 927      BINDING AFFINITY PREDICTED BY RF-SCORE:    0.00 PKD
ROOT
HETATM    1  C   UNL     1      -9.351  16.967  66.415  1.00  0.00    -0.270 C  
HETATM    2  O   UNL     1      -9.829  15.696  65.978  1.00  0.00    -0.282 OA 
ENDROOT
BRANCH   2   3
HETATM    3  C   UNL     1     -10.848  15.755  65.077  1.00  0.00    -0.443 C  
HETATM    4  N   UNL     1     -11.619  14.603  65.055  1.00  0.00    -0.371 N  
HETATM    5  O   UNL     1     -11.057  16.723  64.353  1.00  0.00    -1.072 OA 
HETATM    6  C   UNL     1     -12.780  14.496  64.193  1.00  0.00     0.206 C  
BRANCH   4   7
HETATM    7  C   UNL     1     -11.396  13.543  65.976  1.00  0.00    -0.312 A  
HETATM    8  C   UNL     1     -11.817  13.618  67.301  1.00  0.00    -0.391 A  
HETATM    9  N   UNL     1     -12.339  14.793  67.846  1.00  0.00    -0.539 NA 
HETATM   10  N   UNL     1     -11.680  12.602  68.159  1.00  0.00    -0.335 NA 
HETATM   11  H1  UNL     1     -12.648  14.848  68.817  1.00  0.00     0.000 HD 
HETATM   12  C   UNL     1     -11.090  11.487  67.688  1.00  0.00    -0.266 A  
HETATM   13  H2  UNL     1     -13.115  15.091  67.256  1.00  0.00     0.000 HD 
HETATM   14  N   UNL     1     -10.616  11.324  66.433  1.00  0.00    -0.258 NA 
HETATM   15  H2  UNL     1      -9.556  12.960  64.176  1.00  0.00     0.000 HD 
HETATM   16  H1  UNL     1      -9.768  11.330  64.042  1.00  0.00     0.000 HD 
HETATM   17  C   UNL     1     -10.780  12.357  65.594  1.00  0.00    -0.264 A  
HETATM   18  N   UNL     1     -10.220  12.200  64.322  1.00  0.00    -0.315 NA 
BRANCH  12  19
HETATM   19  C   UNL     1     -10.960  10.347  68.617  1.00  0.00    -0.243 A  
HETATM   20  C   UNL     1     -11.146   8.999  70.396  1.00  0.00    -0.244 A  
HETATM   21  N   UNL     1     -10.129   9.303  68.381  1.00  0.00    -0.183 NA 
HETATM   22  N   UNL     1     -10.316   8.481  69.443  1.00  0.00    -0.213 NA 
HETATM   23  C   UNL     1     -13.003  10.311  71.830  1.00  0.00    -0.554 A  
HETATM   24  N   UNL     1     -11.445   8.453  71.593  1.00  0.00    -0.270 NA 
HETATM   25  C   UNL     1     -11.646  10.176  69.860  1.00  0.00    -0.290 A  
HETATM   26  C   UNL     1     -12.375   9.156  72.276  1.00  0.00    -0.309 A  
HETATM   27  C   UNL     1     -12.632  10.854  70.599  1.00  0.00    -0.435 A  
BRANCH  22  28
HETATM   28  C   UNL     1      -9.614   7.209  69.526  1.00  0.00    -0.154 C  
BRANCH  28  29
HETATM   29  C   UNL     1      -8.136   7.345  69.805  1.00  0.00    -0.127 A  
HETATM   30  C   UNL     1      -5.847   6.760  69.200  1.00  0.00    -0.018 A  
HETATM   31  C   UNL     1      -5.390   7.233  70.427  1.00  0.00    -0.023 A  
HETATM   32  C   UNL     1      -7.207   6.826  68.898  1.00  0.00    -0.091 A  
HETATM   33  C   UNL     1      -6.290   7.803  71.327  1.00  0.00    -0.034 A  
HETATM   34  F   UNL     1      -7.621   6.339  67.719  1.00  0.00    -0.092 F  
HETATM   35  C   UNL     1      -7.655   7.859  71.020  1.00  0.00    -0.082 A  
ENDBRANCH  28  29
ENDBRANCH  22  28
ENDBRANCH  12  19
ENDBRANCH   4   7
ENDBRANCH   2   3
TORSDOF 5
ENDMDL
MODEL       57
REMARK 921   NORMALIZED FREE ENERGY PREDICTED BY IDOCK:   -6.40 KCAL/MOL
REMARK 922        TOTAL FREE ENERGY PREDICTED BY IDOCK:   -9.08 KCAL/MOL
REMARK 923 INTER-LIGAND FREE ENERGY PREDICTED BY IDOCK:   -8.12 KCAL/MOL
REMARK 924 INTRA-LIGAND FREE ENERGY PREDICTED BY IDOCK:   -0.96 KCAL/MOL
REMARK 927      BINDING AFFINITY PREDICTED BY RF-SCORE:    0.00 PKD
ROOT
HETATM    1  C   UNL     1     -10.490   7.453  67.214  1.00  0.00    -0.315 C  
HETATM    2  O   UNL     1      -9.764   8.664  67.010  1.00  0.00    -0.168 OA 
ENDROOT
BRANCH   2   3
HETATM    3  C   UNL     1      -8.966   8.666  65.907  1.00  0.00    -0.200 C  
HETATM    4  N   UNL     1      -8.650   9.943  65.469  1.00  0.00    -0.138 N  
HETATM    5  O   UNL     1      -8.576   7.644  65.352  1.00  0.00    -0.129 OA 
HETATM    6  C   UNL     1      -7.770  10.148  64.335  1.00  0.00    -0.134 C  
BRANCH   4   7
HETATM    7  C   UNL     1      -9.050  11.097  66.196  1.00  0.00    -0.201 A  
HETATM    8  C   UNL     1     -10.225  11.783  65.901  1.00  0.00    -0.237 A  
HETATM    9  N   UNL     1     -10.998  11.477  64.778  1.00  0.00    -0.298 NA 
HETATM   10  N   UNL     1     -10.651  12.825  66.622  1.00  0.00    -0.255 NA 
HETATM   11  H1  UNL     1     -11.859  11.979  64.562  1.00  0.00     0.000 HD 
HETATM   12  C   UNL     1      -9.875  13.206  67.654  1.00  0.00    -0.219 A  
HETATM   13  H2  UNL     1     -11.219  10.482  64.815  1.00  0.00     0.000 HD 
HETATM   14  N   UNL     1      -8.703  12.631  68.003  1.00  0.00    -0.183 NA 
HETATM   15  H2  UNL     1      -6.473  11.087  66.765  1.00  0.00     0.000 HD 
HETATM   16  H1  UNL     1      -6.517  11.400  68.384  1.00  0.00     0.000 HD 
HETATM   17  C   UNL     1      -8.309  11.581  67.268  1.00  0.00    -0.154 A  
HETATM   18  N   UNL     1      -7.061  11.045  67.597  1.00  0.00    -0.085 NA 
BRANCH  12  19
HETATM   19  C   UNL     1     -10.350  14.336  68.476  1.00  0.00    -0.244 A  
HETATM   20  C   UNL     1     -11.484  15.593  69.943  1.00  0.00    -0.338 A  
HETATM   21  N   UNL     1      -9.900  15.603  68.306  1.00  0.00    -0.208 NA 
HETATM   22  N   UNL     1     -10.558  16.320  69.251  1.00  0.00    -0.271 NA 
HETATM   23  C   UNL     1     -12.966  13.717  71.173  1.00  0.00    -0.353 A  
HETATM   24  N   UNL     1     -12.345  16.054  70.873  1.00  0.00    -0.311 NA 
HETATM   25  C   UNL     1     -11.323  14.281  69.522  1.00  0.00    -0.315 A  
HETATM   26  C   UNL     1     -13.071  15.073  71.453  1.00  0.00    -0.389 A  
HETATM   27  C   UNL     1     -12.083  13.296  70.178  1.00  0.00    -0.403 A  
BRANCH  22  28
HETATM   28  C   UNL     1     -10.300  17.743  69.411  1.00  0.00     0.054 C  
BRANCH  28  29
HETATM   29  C   UNL     1      -9.858  18.429  68.141  1.00  0.00    -0.365 A  
HETATM   30  C   UNL     1      -8.071  19.506  66.878  1.00  0.00    -0.306 A  
HETATM   31  C   UNL     1      -9.001  20.024  65.981  1.00  0.00    -0.267 A  
HETATM   32  C   UNL     1      -8.502  18.712  67.939  1.00  0.00    -0.276 A  
HETATM   33  C   UNL     1     -10.352  19.714  66.131  1.00  0.00    -0.627 A  
HETATM   34  F   UNL     1      -7.586  18.248  68.801  1.00  0.00    -0.280 F  
HETATM   35  C   UNL     1     -10.780  18.922  67.203  1.00  0.00    -0.506 A  
ENDBRANCH  28  29
ENDBRANCH  22  28
ENDBRANCH  12  19
ENDBRANCH   4   7
ENDBRANCH   2   3
TORSDOF 5
ENDMDL
MODEL       58
REMARK 921   NORMALIZED FREE ENERGY PREDICTED BY IDOCK:   -6.36 KCAL/MOL
REMARK 922        TOTAL FREE ENERGY PREDICTED BY IDOCK:   -9.03 KCAL/MOL
REMARK 923 INTER-LIGAND FREE ENERGY PREDICTED BY IDOCK:   -8.20 KCAL/MOL
REMARK 924 INTRA-LIGAND FREE ENERGY PREDICTED BY IDOCK:   -0.83 KCAL/MOL
REMARK 927      BINDING AFFINITY PREDICTED BY RF-SCORE:    0.00 PKD
ROOT
HETATM    1  C   UNL     1     -10.900   6.523  68.042  1.00  0.00    -0.295 C  
HETATM    2  O   UNL     1     -10.681   7.410  66.946  1.00  0.00    -0.346 OA 
ENDROOT
BRANCH   2   3
HETATM    3  C   UNL     1      -9.478   7.258  66.328  1.00  0.00    -0.073 C  
HETATM    4  N   UNL     1      -8.817   8.459  66.124  1.00  0.00    -0.156 N  
HETATM    5  O   UNL     1      -9.029   6.170  65.979  1.00  0.00    -0.155 OA 
HETATM    6  C   UNL     1      -7.499   8.495  65.522  1.00  0.00    -0.085 C  
BRANCH   4   7
HETATM    7  C   UNL     1      -9.334   9.685  66.627  1.00  0.00    -0.156 A  
HETATM    8  C   UNL     1      -9.201  10.046  67.964  1.00  0.00    -0.134 A  
HETATM    9  N   UNL     1      -8.697   9.164  68.923  1.00  0.00    -0.130 NA 
HETATM   10  N   UNL     1      -9.616  11.226  68.437  1.00  0.00    -0.189 NA 
HETATM   11  H1  UNL     1      -8.600   9.428  69.903  1.00  0.00     0.000 HD 
HETATM   12  C   UNL     1     -10.197  12.061  67.554  1.00  0.00    -0.198 A  
HETATM   13  H2  UNL     1      -7.788   8.838  68.597  1.00  0.00     0.000 HD 
HETATM   14  N   UNL     1     -10.404  11.794  66.246  1.00  0.00    -0.218 NA 
HETATM   15  H2  UNL     1     -10.793   9.453  64.440  1.00  0.00     0.000 HD 
HETATM   16  H1  UNL     1     -10.716  10.995  63.858  1.00  0.00     0.000 HD 
HETATM   17  C   UNL     1      -9.966  10.607  65.801  1.00  0.00    -0.257 A  
HETATM   18  N   UNL     1     -10.252  10.318  64.464  1.00  0.00    -0.239 NA 
BRANCH  12  19
HETATM   19  C   UNL     1     -10.633  13.379  68.056  1.00  0.00    -0.243 A  
HETATM   20  C   UNL     1     -11.644  15.001  69.225  1.00  0.00    -0.315 A  
HETATM   21  N   UNL     1     -10.292  14.541  67.451  1.00  0.00    -0.251 NA 
HETATM   22  N   UNL     1     -10.866  15.500  68.219  1.00  0.00    -0.280 NA 
HETATM   23  C   UNL     1     -12.828  13.563  71.163  1.00  0.00    -0.387 A  
HETATM   24  N   UNL     1     -12.405  15.707  70.086  1.00  0.00    -0.384 NA 
HETATM   25  C   UNL     1     -11.456  13.627  69.200  1.00  0.00    -0.346 A  
HETATM   26  C   UNL     1     -12.984  14.937  71.033  1.00  0.00    -0.377 A  
HETATM   27  C   UNL     1     -12.058  12.875  70.224  1.00  0.00    -0.377 A  
BRANCH  22  28
HETATM   28  C   UNL     1     -10.682  16.909  67.904  1.00  0.00    -0.344 C  
BRANCH  28  29
HETATM   29  C   UNL     1      -9.390  17.487  68.430  1.00  0.00    -0.287 A  
HETATM   30  C   UNL     1      -8.028  19.461  68.874  1.00  0.00    -0.360 A  
HETATM   31  C   UNL     1      -6.903  18.660  69.052  1.00  0.00    -0.302 A  
HETATM   32  C   UNL     1      -9.256  18.872  68.574  1.00  0.00    -0.361 A  
HETATM   33  C   UNL     1      -7.023  17.274  68.965  1.00  0.00    -0.235 A  
HETATM   34  F   UNL     1     -10.315  19.671  68.383  1.00  0.00    -0.477 F  
HETATM   35  C   UNL     1      -8.256  16.688  68.656  1.00  0.00    -0.245 A  
ENDBRANCH  28  29
ENDBRANCH  22  28
ENDBRANCH  12  19
ENDBRANCH   4   7
ENDBRANCH   2   3
TORSDOF 5
ENDMDL
MODEL       59
REMARK 921   NORMALIZED FREE ENERGY PREDICTED BY IDOCK:   -6.32 KCAL/MOL
REMARK 922        TOTAL FREE ENERGY PREDICTED BY IDOCK:   -8.98 KCAL/MOL
REMARK 923 INTER-LIGAND FREE ENERGY PREDICTED BY IDOCK:   -8.22 KCAL/MOL
REMARK 924 INTRA-LIGAND FREE ENERGY PREDICTED BY IDOCK:   -0.76 KCAL/MOL
REMARK 927      BINDING AFFINITY PREDICTED BY RF-SCORE:    0.00 PKD
ROOT
HETATM    1  C   UNL     1      -7.346   5.569  63.712  1.00  0.00    -0.054 C  
HETATM    2  O   UNL     1      -7.726   5.768  65.073  1.00  0.00    -0.085 OA 
ENDROOT
BRANCH   2   3
HETATM    3  C   UNL     1      -7.893   4.621  65.786  1.00  0.00    -0.095 C  
HETATM    4  N   UNL     1      -8.492   4.831  67.019  1.00  0.00    -0.106 N  
HETATM    5  O   UNL     1      -7.542   3.516  65.385  1.00  0.00    -0.076 OA 
HETATM    6  C   UNL     1      -8.797   3.723  67.902  1.00  0.00    -0.114 C  
BRANCH   4   7
HETATM    7  C   UNL     1      -8.965   6.116  67.404  1.00  0.00    -0.112 A  
HETATM    8  C   UNL     1     -10.267   6.531  67.137  1.00  0.00    -0.198 A  
HETATM    9  N   UNL     1     -11.135   5.781  66.339  1.00  0.00    -0.767 NA 
HETATM   10  N   UNL     1     -10.749   7.705  67.557  1.00  0.00    -0.240 NA 
HETATM   11  H1  UNL     1     -12.088   6.085  66.143  1.00  0.00     0.000 HD 
HETATM   12  C   UNL     1      -9.904   8.496  68.246  1.00  0.00    -0.169 A  
HETATM   13  H2  UNL     1     -11.183   4.841  66.731  1.00  0.00     0.000 HD 
HETATM   14  N   UNL     1      -8.615   8.201  68.528  1.00  0.00    -0.130 NA 
HETATM   15  H2  UNL     1      -6.367   6.572  67.442  1.00  0.00     0.000 HD 
HETATM   16  H1  UNL     1      -6.226   7.412  68.855  1.00  0.00     0.000 HD 
HETATM   17  C   UNL     1      -8.166   7.012  68.104  1.00  0.00    -0.120 A  
HETATM   18  N   UNL     1      -6.813   6.754  68.341  1.00  0.00    -0.071 NA 
BRANCH  12  19
HETATM   19  C   UNL     1     -10.432   9.782  68.740  1.00  0.00    -0.218 A  
HETATM   20  C   UNL     1     -11.562  11.334  69.895  1.00  0.00    -0.334 A  
HETATM   21  N   UNL     1     -10.165  10.963  68.135  1.00  0.00    -0.170 NA 
HETATM   22  N   UNL     1     -10.810  11.882  68.896  1.00  0.00    -0.227 NA 
HETATM   23  C   UNL     1     -12.664   9.822  71.826  1.00  0.00    -0.519 A  
HETATM   24  N   UNL     1     -12.377  11.988  70.747  1.00  0.00    -0.362 NA 
HETATM   25  C   UNL     1     -11.281   9.975  69.875  1.00  0.00    -0.327 A  
HETATM   26  C   UNL     1     -12.911  11.182  71.691  1.00  0.00    -0.443 A  
HETATM   27  C   UNL     1     -11.840   9.187  70.896  1.00  0.00    -0.327 A  
BRANCH  22  28
HETATM   28  C   UNL     1     -10.718  13.300  68.579  1.00  0.00    -0.262 C  
BRANCH  28  29
HETATM   29  C   UNL     1     -11.068  13.628  67.147  1.00  0.00    -0.311 A  
HETATM   30  C   UNL     1     -11.028  15.242  65.320  1.00  0.00    -0.403 A  
HETATM   31  C   UNL     1     -11.968  14.490  64.619  1.00  0.00    -0.478 A  
HETATM   32  C   UNL     1     -10.582  14.805  66.566  1.00  0.00    -0.299 A  
HETATM   33  C   UNL     1     -12.427  13.288  65.155  1.00  0.00    -0.525 A  
HETATM   34  F   UNL     1      -9.696  15.563  67.227  1.00  0.00    -0.214 F  
HETATM   35  C   UNL     1     -11.982  12.858  66.411  1.00  0.00    -0.462 A  
ENDBRANCH  28  29
ENDBRANCH  22  28
ENDBRANCH  12  19
ENDBRANCH   4   7
ENDBRANCH   2   3
TORSDOF 5
ENDMDL
MODEL       60
REMARK 921   NORMALIZED FREE ENERGY PREDICTED BY IDOCK:   -6.29 KCAL/MOL
REMARK 922        TOTAL FREE ENERGY PREDICTED BY IDOCK:   -8.94 KCAL/MOL
REMARK 923 INTER-LIGAND FREE ENERGY PREDICTED BY IDOCK:   -8.24 KCAL/MOL
REMARK 924 INTRA-LIGAND FREE ENERGY PREDICTED BY IDOCK:   -0.69 KCAL/MOL
REMARK 927      BINDING AFFINITY PREDICTED BY RF-SCORE:    0.00 PKD
ROOT
HETATM    1  C   UNL     1     -10.589   5.046  66.295  1.00  0.00    -0.276 C  
HETATM    2  O   UNL     1      -9.669   5.697  67.169  1.00  0.00    -0.124 OA 
ENDROOT
BRANCH   2   3
HETATM    3  C   UNL     1      -8.358   5.443  66.901  1.00  0.00    -0.108 C  
HETATM    4  N   UNL     1      -7.613   6.594  66.699  1.00  0.00    -0.092 N  
HETATM    5  O   UNL     1      -7.888   4.311  66.835  1.00  0.00    -0.095 OA 
HETATM    6  C   UNL     1      -6.186   6.527  66.448  1.00  0.00    -0.037 C  
BRANCH   4   7
HETATM    7  C   UNL     1      -8.180   7.886  66.875  1.00  0.00    -0.116 A  
HETATM    8  C   UNL     1      -8.726   8.600  65.812  1.00  0.00    -0.181 A  
HETATM    9  N   UNL     1      -8.609   8.167  64.490  1.00  0.00    -0.394 NA 
HETATM   10  N   UNL     1      -9.328   9.783  65.974  1.00  0.00    -0.180 NA 
HETATM   11  H1  UNL     1      -9.009   8.690  63.711  1.00  0.00     0.000 HD 
HETATM   12  C   UNL     1      -9.370  10.276  67.226  1.00  0.00    -0.149 A  
HETATM   13  H2  UNL     1      -8.970   7.214  64.442  1.00  0.00     0.000 HD 
HETATM   14  N   UNL     1      -8.842   9.679  68.318  1.00  0.00    -0.120 NA 
HETATM   15  H2  UNL     1      -6.667   7.769  69.034  1.00  0.00     0.000 HD 
HETATM   16  H1  UNL     1      -7.708   8.363  70.167  1.00  0.00     0.000 HD 
HETATM   17  C   UNL     1      -8.256   8.489  68.125  1.00  0.00    -0.120 A  
HETATM   18  N   UNL     1      -7.652   7.920  69.250  1.00  0.00    -0.095 NA 
BRANCH  12  19
HETATM   19  C   UNL     1     -10.058  11.566  67.423  1.00  0.00    -0.191 A  
HETATM   20  C   UNL     1     -11.316  13.394  67.115  1.00  0.00    -0.315 A  
HETATM   21  N   UNL     1      -9.841  12.354  68.503  1.00  0.00    -0.191 NA 
HETATM   22  N   UNL     1     -10.664  13.415  68.314  1.00  0.00    -0.250 NA 
HETATM   23  C   UNL     1     -12.534  12.783  64.797  1.00  0.00    -0.539 A  
HETATM   24  N   UNL     1     -12.124  14.352  66.616  1.00  0.00    -0.407 NA 
HETATM   25  C   UNL     1     -11.009  12.169  66.541  1.00  0.00    -0.325 A  
HETATM   26  C   UNL     1     -12.703  13.999  65.447  1.00  0.00    -0.471 A  
HETATM   27  C   UNL     1     -11.660  11.840  65.339  1.00  0.00    -0.190 A  
BRANCH  22  28
HETATM   28  C   UNL     1     -10.743  14.475  69.309  1.00  0.00    -0.226 C  
BRANCH  28  29
HETATM   29  C   UNL     1     -11.798  14.242  70.364  1.00  0.00    -0.375 A  
HETATM   30  C   UNL     1     -12.949  15.042  72.359  1.00  0.00    -0.444 A  
HETATM   31  C   UNL     1     -13.479  13.773  72.578  1.00  0.00    -0.682 A  
HETATM   32  C   UNL     1     -12.125  15.267  71.258  1.00  0.00    -0.349 A  
HETATM   33  C   UNL     1     -13.210  12.748  71.672  1.00  0.00    -0.410 A  
HETATM   34  F   UNL     1     -11.610  16.493  71.089  1.00  0.00    -0.427 F  
HETATM   35  C   UNL     1     -12.375  12.978  70.571  1.00  0.00    -0.365 A  
ENDBRANCH  28  29
ENDBRANCH  22  28
ENDBRANCH  12  19
ENDBRANCH   4   7
ENDBRANCH   2   3
TORSDOF 5
ENDMDL
MODEL       61
REMARK 921   NORMALIZED FREE ENERGY PREDICTED BY IDOCK:   -6.28 KCAL/MOL
REMARK 922        TOTAL FREE ENERGY PREDICTED BY IDOCK:   -8.92 KCAL/MOL
REMARK 923 INTER-LIGAND FREE ENERGY PREDICTED BY IDOCK:   -8.35 KCAL/MOL
REMARK 924 INTRA-LIGAND FREE ENERGY PREDICTED BY IDOCK:   -0.57 KCAL/MOL
REMARK 927      BINDING AFFINITY PREDICTED BY RF-SCORE:    0.00 PKD
ROOT
HETATM    1  C   UNL     1      -9.342   6.713  71.308  1.00  0.00    -0.158 C  
HETATM    2  O   UNL     1      -8.874   7.287  70.088  1.00  0.00    -0.143 OA 
ENDROOT
BRANCH   2   3
HETATM    3  C   UNL     1      -8.354   6.391  69.205  1.00  0.00    -0.122 C  
HETATM    4  N   UNL     1      -8.432   6.820  67.889  1.00  0.00    -0.119 N  
HETATM    5  O   UNL     1      -7.876   5.311  69.538  1.00  0.00    -0.081 OA 
HETATM    6  C   UNL     1      -7.887   6.021  66.809  1.00  0.00    -0.101 C  
BRANCH   4   7
HETATM    7  C   UNL     1      -8.912   8.117  67.558  1.00  0.00    -0.137 A  
HETATM    8  C   UNL     1     -10.260   8.362  67.313  1.00  0.00    -0.279 A  
HETATM    9  N   UNL     1     -11.196   7.329  67.220  1.00  0.00    -0.545 NA 
HETATM   10  N   UNL     1     -10.737   9.588  67.073  1.00  0.00    -0.199 NA 
HETATM   11  H1  UNL     1     -12.184   7.508  67.041  1.00  0.00     0.000 HD 
HETATM   12  C   UNL     1      -9.842  10.594  67.058  1.00  0.00    -0.185 A  
HETATM   13  H2  UNL     1     -11.131   6.774  68.073  1.00  0.00     0.000 HD 
HETATM   14  N   UNL     1      -8.511  10.458  67.251  1.00  0.00    -0.122 NA 
HETATM   15  H2  UNL     1      -6.367   8.412  66.925  1.00  0.00     0.000 HD 
HETATM   16  H1  UNL     1      -6.060   9.893  67.582  1.00  0.00     0.000 HD 
HETATM   17  C   UNL     1      -8.067   9.218  67.500  1.00  0.00    -0.107 A  
HETATM   18  N   UNL     1      -6.681   9.085  67.624  1.00  0.00    -0.065 NA 
BRANCH  12  19
HETATM   19  C   UNL     1     -10.360  11.956  66.825  1.00  0.00    -0.209 A  
HETATM   20  C   UNL     1     -11.274  13.769  65.879  1.00  0.00    -0.302 A  
HETATM   21  N   UNL     1     -10.211  12.959  67.723  1.00  0.00    -0.219 NA 
HETATM   22  N   UNL     1     -10.830  14.019  67.146  1.00  0.00    -0.283 NA 
HETATM   23  C   UNL     1     -12.171  12.733  63.566  1.00  0.00    -0.613 A  
HETATM   24  N   UNL     1     -11.842  14.652  65.032  1.00  0.00    -0.381 NA 
HETATM   25  C   UNL     1     -11.057  12.416  65.663  1.00  0.00    -0.343 A  
HETATM   26  C   UNL     1     -12.267  14.082  63.882  1.00  0.00    -0.293 A  
HETATM   27  C   UNL     1     -11.543  11.869  64.463  1.00  0.00    -0.344 A  
BRANCH  22  28
HETATM   28  C   UNL     1     -10.918  15.293  67.844  1.00  0.00    -0.306 C  
BRANCH  28  29
HETATM   29  C   UNL     1     -11.448  15.180  69.254  1.00  0.00    -0.327 A  
HETATM   30  C   UNL     1     -11.415  15.991  71.553  1.00  0.00    -0.459 A  
HETATM   31  C   UNL     1     -12.088  14.848  71.978  1.00  0.00    -0.436 A  
HETATM   32  C   UNL     1     -11.108  16.150  70.203  1.00  0.00    -0.371 A  
HETATM   33  C   UNL     1     -12.483  13.892  71.044  1.00  0.00    -0.452 A  
HETATM   34  F   UNL     1     -10.437  17.249  69.828  1.00  0.00    -0.269 F  
HETATM   35  C   UNL     1     -12.165  14.054  69.690  1.00  0.00    -0.383 A  
ENDBRANCH  28  29
ENDBRANCH  22  28
ENDBRANCH  12  19
ENDBRANCH   4   7
ENDBRANCH   2   3
TORSDOF 5
ENDMDL
MODEL       62
REMARK 921   NORMALIZED FREE ENERGY PREDICTED BY IDOCK:   -6.25 KCAL/MOL
REMARK 922        TOTAL FREE ENERGY PREDICTED BY IDOCK:   -8.89 KCAL/MOL
REMARK 923 INTER-LIGAND FREE ENERGY PREDICTED BY IDOCK:   -7.80 KCAL/MOL
REMARK 924 INTRA-LIGAND FREE ENERGY PREDICTED BY IDOCK:   -1.09 KCAL/MOL
REMARK 927      BINDING AFFINITY PREDICTED BY RF-SCORE:    0.00 PKD
ROOT
HETATM    1  C   UNL     1      -7.028   5.400  72.827  1.00  0.00    -0.083 C  
HETATM    2  O   UNL     1      -8.150   5.243  71.959  1.00  0.00    -0.110 OA 
ENDROOT
BRANCH   2   3
HETATM    3  C   UNL     1      -9.244   4.685  72.547  1.00  0.00    -0.128 C  
HETATM    4  N   UNL     1     -10.360   5.506  72.504  1.00  0.00    -0.196 N  
HETATM    5  O   UNL     1      -9.240   3.575  73.069  1.00  0.00    -0.097 OA 
HETATM    6  C   UNL     1     -11.634   5.065  73.037  1.00  0.00    -0.216 C  
BRANCH   4   7
HETATM    7  C   UNL     1     -10.343   6.746  71.808  1.00  0.00    -0.199 A  
HETATM    8  C   UNL     1     -10.678   6.838  70.460  1.00  0.00    -0.238 A  
HETATM    9  N   UNL     1     -10.897   5.706  69.672  1.00  0.00    -0.337 NA 
HETATM   10  N   UNL     1     -10.738   8.005  69.811  1.00  0.00    -0.245 NA 
HETATM   11  H1  UNL     1     -11.143   5.773  68.685  1.00  0.00     0.000 HD 
HETATM   12  C   UNL     1     -10.436   9.109  70.521  1.00  0.00    -0.236 A  
HETATM   13  H2  UNL     1     -11.610   5.140  70.132  1.00  0.00     0.000 HD 
HETATM   14  N   UNL     1     -10.067   9.125  71.821  1.00  0.00    -0.299 NA 
HETATM   15  H2  UNL     1      -8.763   7.352  73.833  1.00  0.00     0.000 HD 
HETATM   16  H1  UNL     1      -9.344   8.843  74.236  1.00  0.00     0.000 HD 
HETATM   17  C   UNL     1     -10.028   7.940  72.446  1.00  0.00    -0.229 A  
HETATM   18  N   UNL     1      -9.575   7.966  73.768  1.00  0.00    -0.156 NA 
BRANCH  12  19
HETATM   19  C   UNL     1     -10.527  10.407  69.824  1.00  0.00    -0.240 A  
HETATM   20  C   UNL     1     -10.077  12.190  68.545  1.00  0.00    -0.187 A  
HETATM   21  N   UNL     1     -11.529  11.290  70.051  1.00  0.00    -0.293 NA 
HETATM   22  N   UNL     1     -11.259  12.324  69.215  1.00  0.00    -0.237 NA 
HETATM   23  C   UNL     1      -7.843  11.364  67.297  1.00  0.00    -0.149 A  
HETATM   24  N   UNL     1      -9.507  13.093  67.721  1.00  0.00    -0.201 NA 
HETATM   25  C   UNL     1      -9.610  10.921  68.854  1.00  0.00    -0.192 A  
HETATM   26  C   UNL     1      -8.384  12.632  67.127  1.00  0.00    -0.172 A  
HETATM   27  C   UNL     1      -8.453  10.480  68.188  1.00  0.00    -0.123 A  
BRANCH  22  28
HETATM   28  C   UNL     1     -12.156  13.467  69.141  1.00  0.00    -0.288 C  
BRANCH  28  29
HETATM   29  C   UNL     1     -12.463  14.089  70.482  1.00  0.00    -0.429 A  
HETATM   30  C   UNL     1     -11.720  15.473  72.347  1.00  0.00    -0.570 A  
HETATM   31  C   UNL     1     -12.777  15.012  73.127  1.00  0.00    -0.595 A  
HETATM   32  C   UNL     1     -11.576  15.017  71.038  1.00  0.00    -0.322 A  
HETATM   33  C   UNL     1     -13.704  14.127  72.578  1.00  0.00    -0.626 A  
HETATM   34  F   UNL     1     -10.533  15.460  70.321  1.00  0.00    -0.284 F  
HETATM   35  C   UNL     1     -13.550  13.667  71.265  1.00  0.00    -0.123 A  
ENDBRANCH  28  29
ENDBRANCH  22  28
ENDBRANCH  12  19
ENDBRANCH   4   7
ENDBRANCH   2   3
TORSDOF 5
ENDMDL
MODEL       63
REMARK 921   NORMALIZED FREE ENERGY PREDICTED BY IDOCK:   -6.25 KCAL/MOL
REMARK 922        TOTAL FREE ENERGY PREDICTED BY IDOCK:   -8.88 KCAL/MOL
REMARK 923 INTER-LIGAND FREE ENERGY PREDICTED BY IDOCK:   -7.99 KCAL/MOL
REMARK 924 INTRA-LIGAND FREE ENERGY PREDICTED BY IDOCK:   -0.89 KCAL/MOL
REMARK 927      BINDING AFFINITY PREDICTED BY RF-SCORE:    0.00 PKD
ROOT
HETATM    1  C   UNL     1     -11.906  15.632  70.512  1.00  0.00    -0.373 C  
HETATM    2  O   UNL     1     -11.508  14.899  69.354  1.00  0.00    -0.266 OA 
ENDROOT
BRANCH   2   3
HETATM    3  C   UNL     1     -11.131  15.671  68.298  1.00  0.00    -0.336 C  
HETATM    4  N   UNL     1     -10.553  14.941  67.272  1.00  0.00    -0.268 N  
HETATM    5  O   UNL     1     -11.277  16.889  68.264  1.00  0.00    -0.303 OA 
HETATM    6  C   UNL     1     -10.130  15.583  66.043  1.00  0.00    -0.332 C  
BRANCH   4   7
HETATM    7  C   UNL     1     -10.487  13.521  67.317  1.00  0.00    -0.248 A  
HETATM    8  C   UNL     1      -9.501  12.853  68.037  1.00  0.00    -0.213 A  
HETATM    9  N   UNL     1      -8.428  13.527  68.625  1.00  0.00    -0.337 NA 
HETATM   10  N   UNL     1      -9.468  11.521  68.150  1.00  0.00    -0.178 NA 
HETATM   11  H1  UNL     1      -7.705  13.038  69.152  1.00  0.00     0.000 HD 
HETATM   12  C   UNL     1     -10.436  10.836  67.511  1.00  0.00    -0.220 A  
HETATM   13  H2  UNL     1      -8.811  14.257  69.225  1.00  0.00     0.000 HD 
HETATM   14  N   UNL     1     -11.416  11.385  66.760  1.00  0.00    -0.436 NA 
HETATM   15  H2  UNL     1     -11.930  13.827  65.129  1.00  0.00     0.000 HD 
HETATM   16  H1  UNL     1     -13.094  12.684  65.370  1.00  0.00     0.000 HD 
HETATM   17  C   UNL     1     -11.428  12.723  66.677  1.00  0.00    -0.350 A  
HETATM   18  N   UNL     1     -12.404  13.270  65.840  1.00  0.00    -0.433 NA 
BRANCH  12  19
HETATM   19  C   UNL     1     -10.429   9.367  67.652  1.00  0.00    -0.268 A  
HETATM   20  C   UNL     1     -10.080   7.181  67.305  1.00  0.00    -0.215 A  
HETATM   21  N   UNL     1     -11.133   8.721  68.612  1.00  0.00     0.165 NA 
HETATM   22  N   UNL     1     -10.848   7.410  68.411  1.00  0.00    -0.082 NA 
HETATM   23  C   UNL     1      -8.383   7.265  65.222  1.00  0.00    -0.110 A  
HETATM   24  N   UNL     1      -9.715   5.982  66.808  1.00  0.00    -0.147 NA 
HETATM   25  C   UNL     1      -9.722   8.434  66.829  1.00  0.00    -0.309 A  
HETATM   26  C   UNL     1      -8.870   6.080  65.758  1.00  0.00    -0.135 A  
HETATM   27  C   UNL     1      -8.819   8.480  65.752  1.00  0.00    -0.229 A  
BRANCH  22  28
HETATM   28  C   UNL     1     -11.397   6.391  69.294  1.00  0.00    -0.338 C  
BRANCH  28  29
HETATM   29  C   UNL     1     -10.992   6.554  70.739  1.00  0.00    -0.328 A  
HETATM   30  C   UNL     1     -11.369   7.637  72.891  1.00  0.00    -0.394 A  
HETATM   31  C   UNL     1     -10.124   7.206  73.340  1.00  0.00    -0.345 A  
HETATM   32  C   UNL     1     -11.794   7.304  71.606  1.00  0.00    -0.298 A  
HETATM   33  C   UNL     1      -9.329   6.414  72.514  1.00  0.00    -0.145 A  
HETATM   34  F   UNL     1     -12.987   7.754  71.193  1.00  0.00    -0.320 F  
HETATM   35  C   UNL     1      -9.757   6.089  71.221  1.00  0.00    -0.200 A  
ENDBRANCH  28  29
ENDBRANCH  22  28
ENDBRANCH  12  19
ENDBRANCH   4   7
ENDBRANCH   2   3
TORSDOF 5
ENDMDL
MODEL       64
REMARK 921   NORMALIZED FREE ENERGY PREDICTED BY IDOCK:   -6.24 KCAL/MOL
REMARK 922        TOTAL FREE ENERGY PREDICTED BY IDOCK:   -8.87 KCAL/MOL
REMARK 923 INTER-LIGAND FREE ENERGY PREDICTED BY IDOCK:   -8.13 KCAL/MOL
REMARK 924 INTRA-LIGAND FREE ENERGY PREDICTED BY IDOCK:   -0.74 KCAL/MOL
REMARK 927      BINDING AFFINITY PREDICTED BY RF-SCORE:    0.00 PKD
ROOT
HETATM    1  C   UNL     1      -6.638   7.060  68.064  1.00  0.00    -0.056 C  
HETATM    2  O   UNL     1      -7.683   7.527  67.212  1.00  0.00    -0.111 OA 
ENDROOT
BRANCH   2   3
HETATM    3  C   UNL     1      -8.684   6.629  67.001  1.00  0.00    -0.113 C  
HETATM    4  N   UNL     1      -9.941   7.213  66.979  1.00  0.00    -0.198 N  
HETATM    5  O   UNL     1      -8.494   5.425  66.855  1.00  0.00    -0.108 OA 
HETATM    6  C   UNL     1     -11.128   6.423  66.719  1.00  0.00    -0.170 C  
BRANCH   4   7
HETATM    7  C   UNL     1     -10.105   8.623  67.062  1.00  0.00    -0.272 A  
HETATM    8  C   UNL     1      -9.910   9.452  65.962  1.00  0.00    -0.296 A  
HETATM    9  N   UNL     1      -9.390   8.975  64.757  1.00  0.00    -0.413 NA 
HETATM   10  N   UNL     1     -10.133  10.770  66.005  1.00  0.00    -0.240 NA 
HETATM   11  H1  UNL     1      -9.248   9.582  63.950  1.00  0.00     0.000 HD 
HETATM   12  C   UNL     1     -10.542  11.277  67.183  1.00  0.00    -0.235 A  
HETATM   13  H2  UNL     1      -9.970   8.191  64.457  1.00  0.00     0.000 HD 
HETATM   14  N   UNL     1     -10.728  10.566  68.317  1.00  0.00    -0.212 NA 
HETATM   15  H2  UNL     1      -9.748   8.068  69.617  1.00  0.00     0.000 HD 
HETATM   16  H1  UNL     1     -10.931   8.994  70.298  1.00  0.00     0.000 HD 
HETATM   17  C   UNL     1     -10.509   9.246  68.238  1.00  0.00    -0.215 A  
HETATM   18  N   UNL     1     -10.635   8.537  69.435  1.00  0.00    -0.217 NA 
BRANCH  12  19
HETATM   19  C   UNL     1     -10.819  12.726  67.236  1.00  0.00    -0.251 A  
HETATM   20  C   UNL     1     -11.487  14.758  67.901  1.00  0.00    -0.342 A  
HETATM   21  N   UNL     1     -10.616  13.548  66.179  1.00  0.00    -0.286 NA 
HETATM   22  N   UNL     1     -10.969  14.775  66.637  1.00  0.00    -0.321 NA 
HETATM   23  C   UNL     1     -12.187  14.251  70.446  1.00  0.00    -0.411 A  
HETATM   24  N   UNL     1     -12.002  15.804  68.578  1.00  0.00    -0.228 NA 
HETATM   25  C   UNL     1     -11.334  13.456  68.353  1.00  0.00    -0.329 A  
HETATM   26  C   UNL     1     -12.346  15.494  69.848  1.00  0.00    -0.277 A  
HETATM   27  C   UNL     1     -11.681  13.194  69.690  1.00  0.00    -0.370 A  
BRANCH  22  28
HETATM   28  C   UNL     1     -10.842  15.947  65.784  1.00  0.00    -0.254 C  
BRANCH  28  29
HETATM   29  C   UNL     1      -9.667  16.830  66.131  1.00  0.00    -0.315 A  
HETATM   30  C   UNL     1      -8.710  19.071  66.218  1.00  0.00    -0.281 A  
HETATM   31  C   UNL     1      -7.439  18.534  66.404  1.00  0.00    -0.279 A  
HETATM   32  C   UNL     1      -9.808  18.221  66.091  1.00  0.00    -0.260 A  
HETATM   33  C   UNL     1      -7.281  17.152  66.499  1.00  0.00    -0.308 A  
HETATM   34  F   UNL     1     -11.015  18.767  65.887  1.00  0.00    -0.400 F  
HETATM   35  C   UNL     1      -8.386  16.304  66.363  1.00  0.00    -0.365 A  
ENDBRANCH  28  29
ENDBRANCH  22  28
ENDBRANCH  12  19
ENDBRANCH   4   7
ENDBRANCH   2   3
TORSDOF 5
ENDMDL
MODEL       65
REMARK 921   NORMALIZED FREE ENERGY PREDICTED BY IDOCK:   -6.23 KCAL/MOL
REMARK 922        TOTAL FREE ENERGY PREDICTED BY IDOCK:   -8.86 KCAL/MOL
REMARK 923 INTER-LIGAND FREE ENERGY PREDICTED BY IDOCK:   -7.77 KCAL/MOL
REMARK 924 INTRA-LIGAND FREE ENERGY PREDICTED BY IDOCK:   -1.08 KCAL/MOL
REMARK 927      BINDING AFFINITY PREDICTED BY RF-SCORE:    0.00 PKD
ROOT
HETATM    1  C   UNL     1      -9.703   3.536  71.023  1.00  0.00    -0.155 C  
HETATM    2  O   UNL     1      -9.881   4.259  69.806  1.00  0.00    -0.214 OA 
ENDROOT
BRANCH   2   3
HETATM    3  C   UNL     1      -8.912   4.043  68.873  1.00  0.00    -0.116 C  
HETATM    4  N   UNL     1      -8.584   5.185  68.159  1.00  0.00    -0.103 N  
HETATM    5  O   UNL     1      -8.391   2.949  68.679  1.00  0.00    -0.062 OA 
HETATM    6  C   UNL     1      -7.539   5.163  67.154  1.00  0.00    -0.092 C  
BRANCH   4   7
HETATM    7  C   UNL     1      -9.149   6.449  68.480  1.00  0.00    -0.126 A  
HETATM    8  C   UNL     1      -8.670   7.222  69.534  1.00  0.00    -0.134 A  
HETATM    9  N   UNL     1      -7.719   6.739  70.435  1.00  0.00    -0.098 NA 
HETATM   10  N   UNL     1      -9.141   8.445  69.802  1.00  0.00    -0.152 NA 
HETATM   11  H1  UNL     1      -7.368   7.305  71.207  1.00  0.00     0.000 HD 
HETATM   12  C   UNL     1     -10.130   8.900  69.010  1.00  0.00    -0.197 A  
HETATM   13  H2  UNL     1      -6.916   6.418  69.895  1.00  0.00     0.000 HD 
HETATM   14  N   UNL     1     -10.686   8.218  67.985  1.00  0.00    -0.112 NA 
HETATM   15  H2  UNL     1     -11.152   5.403  67.118  1.00  0.00     0.000 HD 
HETATM   16  H1  UNL     1     -11.578   6.685  66.171  1.00  0.00     0.000 HD 
HETATM   17  C   UNL     1     -10.184   7.001  67.734  1.00  0.00    -0.180 A  
HETATM   18  N   UNL     1     -10.818   6.280  66.718  1.00  0.00    -0.330 NA 
BRANCH  12  19
HETATM   19  C   UNL     1     -10.638  10.260  69.277  1.00  0.00    -0.230 A  
HETATM   20  C   UNL     1     -11.797  11.994  70.097  1.00  0.00    -0.301 A  
HETATM   21  N   UNL     1     -10.252  11.340  68.557  1.00  0.00    -0.198 NA 
HETATM   22  N   UNL     1     -10.921  12.375  69.121  1.00  0.00    -0.196 NA 
HETATM   23  C   UNL     1     -13.162  10.795  72.078  1.00  0.00    -0.466 A  
HETATM   24  N   UNL     1     -12.657  12.786  70.768  1.00  0.00    -0.276 NA 
HETATM   25  C   UNL     1     -11.585  10.635  70.282  1.00  0.00    -0.424 A  
HETATM   26  C   UNL     1     -13.324  12.133  71.745  1.00  0.00    -0.242 A  
HETATM   27  C   UNL     1     -12.284  10.011  71.330  1.00  0.00    -0.510 A  
BRANCH  22  28
HETATM   28  C   UNL     1     -10.725  13.734  68.637  1.00  0.00    -0.256 C  
BRANCH  28  29
HETATM   29  C   UNL     1     -11.112  13.927  67.190  1.00  0.00    -0.312 A  
HETATM   30  C   UNL     1     -10.803  15.153  65.105  1.00  0.00    -0.437 A  
HETATM   31  C   UNL     1     -11.985  14.617  64.600  1.00  0.00    -0.472 A  
HETATM   32  C   UNL     1     -10.375  14.801  66.384  1.00  0.00    -0.293 A  
HETATM   33  C   UNL     1     -12.709  13.703  65.364  1.00  0.00    -0.500 A  
HETATM   34  F   UNL     1      -9.247  15.353  66.852  1.00  0.00    -0.201 F  
HETATM   35  C   UNL     1     -12.278  13.359  66.651  1.00  0.00    -0.391 A  
ENDBRANCH  28  29
ENDBRANCH  22  28
ENDBRANCH  12  19
ENDBRANCH   4   7
ENDBRANCH   2   3
TORSDOF 5
ENDMDL
MODEL       66
REMARK 921   NORMALIZED FREE ENERGY PREDICTED BY IDOCK:   -6.19 KCAL/MOL
REMARK 922        TOTAL FREE ENERGY PREDICTED BY IDOCK:   -8.80 KCAL/MOL
REMARK 923 INTER-LIGAND FREE ENERGY PREDICTED BY IDOCK:   -7.93 KCAL/MOL
REMARK 924 INTRA-LIGAND FREE ENERGY PREDICTED BY IDOCK:   -0.88 KCAL/MOL
REMARK 927      BINDING AFFINITY PREDICTED BY RF-SCORE:    0.00 PKD
ROOT
HETATM    1  C   UNL     1      -9.948  20.206  67.880  1.00  0.00    -0.398 C  
HETATM    2  O   UNL     1      -9.954  19.264  66.809  1.00  0.00    -0.315 OA 
ENDROOT
BRANCH   2   3
HETATM    3  C   UNL     1      -8.748  19.092  66.201  1.00  0.00    -0.219 C  
HETATM    4  N   UNL     1      -8.222  17.823  66.390  1.00  0.00    -0.262 N  
HETATM    5  O   UNL     1      -8.181  19.972  65.561  1.00  0.00    -0.258 OA 
HETATM    6  C   UNL     1      -6.966  17.436  65.778  1.00  0.00     0.064 C  
BRANCH   4   7
HETATM    7  C   UNL     1      -8.957  16.808  67.062  1.00  0.00    -0.206 A  
HETATM    8  C   UNL     1      -9.963  16.086  66.427  1.00  0.00    -0.295 A  
HETATM    9  N   UNL     1     -10.421  16.419  65.150  1.00  0.00    -0.657 NA 
HETATM   10  N   UNL     1     -10.612  15.080  67.021  1.00  0.00    -0.287 NA 
HETATM   11  H1  UNL     1     -11.158  15.890  64.684  1.00  0.00     0.000 HD 
HETATM   12  C   UNL     1     -10.261  14.798  68.291  1.00  0.00    -0.227 A  
HETATM   13  H2  UNL     1      -9.614  16.440  64.527  1.00  0.00     0.000 HD 
HETATM   14  N   UNL     1      -9.323  15.458  69.006  1.00  0.00    -0.216 NA 
HETATM   15  H2  UNL     1      -8.052  18.152  69.145  1.00  0.00     0.000 HD 
HETATM   16  H1  UNL     1      -7.567  16.912  70.119  1.00  0.00     0.000 HD 
HETATM   17  C   UNL     1      -8.682  16.454  68.377  1.00  0.00    -0.213 A  
HETATM   18  N   UNL     1      -7.768  17.172  69.153  1.00  0.00    -0.162 NA 
BRANCH  12  19
HETATM   19  C   UNL     1     -10.948  13.670  68.948  1.00  0.00    -0.249 A  
HETATM   20  C   UNL     1     -12.139  12.426  70.382  1.00  0.00    -0.297 A  
HETATM   21  N   UNL     1     -10.841  12.393  68.510  1.00  0.00    -0.234 NA 
HETATM   22  N   UNL     1     -11.623  11.681  69.360  1.00  0.00    -0.299 NA 
HETATM   23  C   UNL     1     -13.099  14.328  72.021  1.00  0.00    -0.456 A  
HETATM   24  N   UNL     1     -12.872  11.977  71.420  1.00  0.00    -0.350 NA 
HETATM   25  C   UNL     1     -11.787  13.739  70.105  1.00  0.00    -0.360 A  
HETATM   26  C   UNL     1     -13.323  12.971  72.218  1.00  0.00    -0.506 A  
HETATM   27  C   UNL     1     -12.304  14.737  70.950  1.00  0.00    -0.388 A  
BRANCH  22  28
HETATM   28  C   UNL     1     -11.798  10.248  69.178  1.00  0.00     0.033 C  
BRANCH  28  29
HETATM   29  C   UNL     1     -10.618   9.567  68.527  1.00  0.00    -0.247 A  
HETATM   30  C   UNL     1      -9.559   8.751  66.488  1.00  0.00    -0.302 A  
HETATM   31  C   UNL     1      -8.652   8.009  67.241  1.00  0.00    -0.124 A  
HETATM   32  C   UNL     1     -10.523   9.525  67.132  1.00  0.00    -0.253 A  
HETATM   33  C   UNL     1      -8.694   8.077  68.633  1.00  0.00    -0.131 A  
HETATM   34  F   UNL     1     -11.398  10.207  66.379  1.00  0.00     0.053 F  
HETATM   35  C   UNL     1      -9.670   8.850  69.274  1.00  0.00    -0.165 A  
ENDBRANCH  28  29
ENDBRANCH  22  28
ENDBRANCH  12  19
ENDBRANCH   4   7
ENDBRANCH   2   3
TORSDOF 5
ENDMDL
MODEL       67
REMARK 921   NORMALIZED FREE ENERGY PREDICTED BY IDOCK:   -6.19 KCAL/MOL
REMARK 922        TOTAL FREE ENERGY PREDICTED BY IDOCK:   -8.80 KCAL/MOL
REMARK 923 INTER-LIGAND FREE ENERGY PREDICTED BY IDOCK:   -7.98 KCAL/MOL
REMARK 924 INTRA-LIGAND FREE ENERGY PREDICTED BY IDOCK:   -0.82 KCAL/MOL
REMARK 927      BINDING AFFINITY PREDICTED BY RF-SCORE:    0.00 PKD
ROOT
HETATM    1  C   UNL     1     -11.868  14.854  69.516  1.00  0.00    -0.325 C  
HETATM    2  O   UNL     1     -10.655  14.981  68.776  1.00  0.00    -0.226 OA 
ENDROOT
BRANCH   2   3
HETATM    3  C   UNL     1     -10.740  15.794  67.687  1.00  0.00    -0.310 C  
HETATM    4  N   UNL     1     -10.539  15.120  66.491  1.00  0.00    -0.298 N  
HETATM    5  O   UNL     1     -10.961  16.998  67.756  1.00  0.00    -0.316 OA 
HETATM    6  C   UNL     1     -10.638  15.809  65.220  1.00  0.00    -0.423 C  
BRANCH   4   7
HETATM    7  C   UNL     1     -10.376  13.709  66.453  1.00  0.00    -0.286 A  
HETATM    8  C   UNL     1      -9.163  13.099  66.760  1.00  0.00    -0.230 A  
HETATM    9  N   UNL     1      -7.995  13.837  66.968  1.00  0.00    -0.377 NA 
HETATM   10  N   UNL     1      -9.014  11.771  66.800  1.00  0.00    -0.191 NA 
HETATM   11  H1  UNL     1      -7.106  13.391  67.193  1.00  0.00     0.000 HD 
HETATM   12  C   UNL     1     -10.099  11.030  66.507  1.00  0.00    -0.226 A  
HETATM   13  H2  UNL     1      -8.189  14.527  67.693  1.00  0.00     0.000 HD 
HETATM   14  N   UNL     1     -11.311  11.522  66.165  1.00  0.00    -0.280 NA 
HETATM   15  H2  UNL     1     -12.505  13.950  64.912  1.00  0.00     0.000 HD 
HETATM   16  H1  UNL     1     -13.442  12.724  65.493  1.00  0.00     0.000 HD 
HETATM   17  C   UNL     1     -11.431  12.857  66.145  1.00  0.00    -0.348 A  
HETATM   18  N   UNL     1     -12.668  13.349  65.719  1.00  0.00    -0.396 NA 
BRANCH  12  19
HETATM   19  C   UNL     1      -9.956   9.563  66.577  1.00  0.00    -0.261 A  
HETATM   20  C   UNL     1      -9.218   7.466  66.305  1.00  0.00    -0.135 A  
HETATM   21  N   UNL     1     -10.887   8.764  67.150  1.00  0.00    -0.119 NA 
HETATM   22  N   UNL     1     -10.378   7.513  67.024  1.00  0.00    -0.299 NA 
HETATM   23  C   UNL     1      -6.871   7.913  65.072  1.00  0.00    -0.051 A  
HETATM   24  N   UNL     1      -8.535   6.361  65.943  1.00  0.00    -0.142 NA 
HETATM   25  C   UNL     1      -8.870   8.787  66.063  1.00  0.00    -0.210 A  
HETATM   26  C   UNL     1      -7.369   6.641  65.320  1.00  0.00    -0.080 A  
HETATM   27  C   UNL     1      -7.634   9.023  65.437  1.00  0.00    -0.090 A  
BRANCH  22  28
HETATM   28  C   UNL     1     -11.088   6.367  67.571  1.00  0.00    -0.306 C  
BRANCH  28  29
HETATM   29  C   UNL     1     -10.831   6.136  69.041  1.00  0.00    -0.416 A  
HETATM   30  C   UNL     1      -9.713   4.832  70.773  1.00  0.00    -0.267 A  
HETATM   31  C   UNL     1     -10.548   5.382  71.742  1.00  0.00    -0.286 A  
HETATM   32  C   UNL     1      -9.855   5.216  69.440  1.00  0.00    -0.199 A  
HETATM   33  C   UNL     1     -11.493   6.339  71.377  1.00  0.00    -0.352 A  
HETATM   34  F   UNL     1      -9.055   4.651  68.526  1.00  0.00    -0.113 F  
HETATM   35  C   UNL     1     -11.636   6.715  70.036  1.00  0.00    -0.423 A  
ENDBRANCH  28  29
ENDBRANCH  22  28
ENDBRANCH  12  19
ENDBRANCH   4   7
ENDBRANCH   2   3
TORSDOF 5
ENDMDL
MODEL       68
REMARK 921   NORMALIZED FREE ENERGY PREDICTED BY IDOCK:   -6.18 KCAL/MOL
REMARK 922        TOTAL FREE ENERGY PREDICTED BY IDOCK:   -8.78 KCAL/MOL
REMARK 923 INTER-LIGAND FREE ENERGY PREDICTED BY IDOCK:   -7.83 KCAL/MOL
REMARK 924 INTRA-LIGAND FREE ENERGY PREDICTED BY IDOCK:   -0.96 KCAL/MOL
REMARK 927      BINDING AFFINITY PREDICTED BY RF-SCORE:    0.00 PKD
ROOT
HETATM    1  C   UNL     1      -8.756  15.678  67.446  1.00  0.00    -0.179 C  
HETATM    2  O   UNL     1      -9.124  14.747  66.430  1.00  0.00    -0.271 OA 
ENDROOT
BRANCH   2   3
HETATM    3  C   UNL     1     -10.087  15.194  65.577  1.00  0.00    -0.370 C  
HETATM    4  N   UNL     1     -11.005  14.213  65.235  1.00  0.00    -0.319 N  
HETATM    5  O   UNL     1     -10.132  16.343  65.148  1.00  0.00    -0.529 OA 
HETATM    6  C   UNL     1     -12.132  14.512  64.373  1.00  0.00    -0.472 C  
BRANCH   4   7
HETATM    7  C   UNL     1     -10.966  12.921  65.827  1.00  0.00    -0.278 A  
HETATM    8  C   UNL     1     -10.295  11.858  65.229  1.00  0.00    -0.276 A  
HETATM    9  N   UNL     1      -9.757  11.950  63.943  1.00  0.00    -0.505 NA 
HETATM   10  N   UNL     1     -10.187  10.658  65.808  1.00  0.00    -0.260 NA 
HETATM   11  H1  UNL     1      -9.265  11.172  63.505  1.00  0.00     0.000 HD 
HETATM   12  C   UNL     1     -10.781  10.508  67.007  1.00  0.00    -0.250 A  
HETATM   13  H2  UNL     1      -9.137  12.760  63.924  1.00  0.00     0.000 HD 
HETATM   14  N   UNL     1     -11.483  11.464  67.656  1.00  0.00    -0.460 NA 
HETATM   15  H2  UNL     1     -13.083  13.907  67.055  1.00  0.00     0.000 HD 
HETATM   16  H1  UNL     1     -12.790  13.421  68.604  1.00  0.00     0.000 HD 
HETATM   17  C   UNL     1     -11.562  12.659  67.054  1.00  0.00    -0.365 A  
HETATM   18  N   UNL     1     -12.352  13.613  67.703  1.00  0.00    -0.163 NA 
BRANCH  12  19
HETATM   19  C   UNL     1     -10.644   9.197  67.671  1.00  0.00    -0.242 A  
HETATM   20  C   UNL     1     -10.282   7.589  69.188  1.00  0.00    -0.202 A  
HETATM   21  N   UNL     1     -10.728   8.025  66.998  1.00  0.00    -0.286 NA 
HETATM   22  N   UNL     1     -10.569   7.077  67.955  1.00  0.00    -0.206 NA 
HETATM   23  C   UNL     1      -9.999   9.058  71.422  1.00  0.00    -0.388 A  
HETATM   24  N   UNL     1      -9.986   6.893  70.305  1.00  0.00    -0.179 NA 
HETATM   25  C   UNL     1     -10.399   8.965  69.061  1.00  0.00    -0.226 A  
HETATM   26  C   UNL     1      -9.846   7.678  71.395  1.00  0.00    -0.174 A  
HETATM   27  C   UNL     1     -10.271   9.734  70.231  1.00  0.00    -0.346 A  
BRANCH  22  28
HETATM   28  C   UNL     1     -10.644   5.664  67.616  1.00  0.00    -0.204 C  
BRANCH  28  29
HETATM   29  C   UNL     1      -9.450   5.159  66.840  1.00  0.00    -0.142 A  
HETATM   30  C   UNL     1      -7.112   4.466  66.849  1.00  0.00    -0.068 A  
HETATM   31  C   UNL     1      -7.068   4.556  65.460  1.00  0.00    -0.067 A  
HETATM   32  C   UNL     1      -8.297   4.759  67.523  1.00  0.00    -0.104 A  
HETATM   33  C   UNL     1      -8.219   4.902  64.754  1.00  0.00    -0.126 A  
HETATM   34  F   UNL     1      -8.301   4.688  68.862  1.00  0.00    -0.080 F  
HETATM   35  C   UNL     1      -9.404   5.202  65.437  1.00  0.00    -0.090 A  
ENDBRANCH  28  29
ENDBRANCH  22  28
ENDBRANCH  12  19
ENDBRANCH   4   7
ENDBRANCH   2   3
TORSDOF 5
ENDMDL
MODEL       69
REMARK 921   NORMALIZED FREE ENERGY PREDICTED BY IDOCK:   -6.13 KCAL/MOL
REMARK 922        TOTAL FREE ENERGY PREDICTED BY IDOCK:   -8.72 KCAL/MOL
REMARK 923 INTER-LIGAND FREE ENERGY PREDICTED BY IDOCK:   -8.24 KCAL/MOL
REMARK 924 INTRA-LIGAND FREE ENERGY PREDICTED BY IDOCK:   -0.49 KCAL/MOL
REMARK 927      BINDING AFFINITY PREDICTED BY RF-SCORE:    0.00 PKD
ROOT
HETATM    1  C   UNL     1     -10.547  16.311  65.283  1.00  0.00    -0.336 C  
HETATM    2  O   UNL     1     -10.855  14.937  65.514  1.00  0.00    -0.317 OA 
ENDROOT
BRANCH   2   3
HETATM    3  C   UNL     1     -11.769  14.411  64.653  1.00  0.00    -0.430 C  
HETATM    4  N   UNL     1     -12.043  13.075  64.903  1.00  0.00    -0.387 N  
HETATM    5  O   UNL     1     -12.290  15.050  63.744  1.00  0.00    -0.647 OA 
HETATM    6  C   UNL     1     -13.028  12.354  64.121  1.00  0.00    -0.163 C  
BRANCH   4   7
HETATM    7  C   UNL     1     -11.484  12.401  66.023  1.00  0.00    -0.382 A  
HETATM    8  C   UNL     1     -11.812  12.749  67.331  1.00  0.00    -0.342 A  
HETATM    9  N   UNL     1     -12.581  13.877  67.626  1.00  0.00    -0.264 NA 
HETATM   10  N   UNL     1     -11.353  12.077  68.391  1.00  0.00    -0.254 NA 
HETATM   11  H1  UNL     1     -12.821  14.132  68.584  1.00  0.00     0.000 HD 
HETATM   12  C   UNL     1     -10.528  11.042  68.142  1.00  0.00    -0.189 A  
HETATM   13  H2  UNL     1     -13.449  13.809  67.096  1.00  0.00     0.000 HD 
HETATM   14  N   UNL     1     -10.123  10.644  66.916  1.00  0.00    -0.206 NA 
HETATM   15  H2  UNL     1      -9.694  11.772  64.190  1.00  0.00     0.000 HD 
HETATM   16  H1  UNL     1      -9.483  10.167  64.508  1.00  0.00     0.000 HD 
HETATM   17  C   UNL     1     -10.610  11.330  65.873  1.00  0.00    -0.253 A  
HETATM   18  N   UNL     1     -10.125  10.953  64.618  1.00  0.00    -0.303 NA 
BRANCH  12  19
HETATM   19  C   UNL     1     -10.038  10.273  69.303  1.00  0.00    -0.227 A  
HETATM   20  C   UNL     1      -8.714   9.253  70.795  1.00  0.00    -0.217 A  
HETATM   21  N   UNL     1     -10.867   9.609  70.144  1.00  0.00    -0.259 NA 
HETATM   22  N   UNL     1     -10.039   9.060  71.066  1.00  0.00    -0.256 NA 
HETATM   23  C   UNL     1      -6.295  10.101  69.985  1.00  0.00    -0.088 A  
HETATM   24  N   UNL     1      -7.667   8.751  71.480  1.00  0.00    -0.222 NA 
HETATM   25  C   UNL     1      -8.674  10.104  69.700  1.00  0.00    -0.176 A  
HETATM   26  C   UNL     1      -6.475   9.201  71.027  1.00  0.00    -0.081 A  
HETATM   27  C   UNL     1      -7.411  10.564  69.287  1.00  0.00    -0.122 A  
BRANCH  22  28
HETATM   28  C   UNL     1     -10.577   8.293  72.180  1.00  0.00    -0.310 C  
BRANCH  28  29
HETATM   29  C   UNL     1     -10.474   6.798  71.997  1.00  0.00    -0.226 A  
HETATM   30  C   UNL     1     -10.139   4.602  73.003  1.00  0.00    -0.207 A  
HETATM   31  C   UNL     1      -9.915   4.047  71.746  1.00  0.00    -0.240 A  
HETATM   32  C   UNL     1     -10.423   5.962  73.117  1.00  0.00    -0.228 A  
HETATM   33  C   UNL     1     -10.012   4.849  70.610  1.00  0.00    -0.305 A  
HETATM   34  F   UNL     1     -10.609   6.473  74.343  1.00  0.00    -0.334 F  
HETATM   35  C   UNL     1     -10.289   6.216  70.732  1.00  0.00    -0.266 A  
ENDBRANCH  28  29
ENDBRANCH  22  28
ENDBRANCH  12  19
ENDBRANCH   4   7
ENDBRANCH   2   3
TORSDOF 5
ENDMDL
MODEL       70
REMARK 921   NORMALIZED FREE ENERGY PREDICTED BY IDOCK:   -6.13 KCAL/MOL
REMARK 922        TOTAL FREE ENERGY PREDICTED BY IDOCK:   -8.72 KCAL/MOL
REMARK 923 INTER-LIGAND FREE ENERGY PREDICTED BY IDOCK:   -8.30 KCAL/MOL
REMARK 924 INTRA-LIGAND FREE ENERGY PREDICTED BY IDOCK:   -0.43 KCAL/MOL
REMARK 927      BINDING AFFINITY PREDICTED BY RF-SCORE:    0.00 PKD
ROOT
HETATM    1  C   UNL     1      -5.589  18.031  70.004  1.00  0.00    -0.242 C  
HETATM    2  O   UNL     1      -6.701  17.895  69.121  1.00  0.00    -0.245 OA 
ENDROOT
BRANCH   2   3
HETATM    3  C   UNL     1      -7.355  19.059  68.853  1.00  0.00    -0.325 C  
HETATM    4  N   UNL     1      -8.446  18.887  68.015  1.00  0.00    -0.286 N  
HETATM    5  O   UNL     1      -7.008  20.149  69.298  1.00  0.00    -0.246 OA 
HETATM    6  C   UNL     1      -9.296  20.005  67.654  1.00  0.00    -0.360 C  
BRANCH   4   7
HETATM    7  C   UNL     1      -8.864  17.594  67.597  1.00  0.00    -0.236 A  
HETATM    8  C   UNL     1      -8.357  16.992  66.450  1.00  0.00    -0.284 A  
HETATM    9  N   UNL     1      -7.531  17.678  65.557  1.00  0.00    -0.299 NA 
HETATM   10  N   UNL     1      -8.684  15.748  66.084  1.00  0.00    -0.319 NA 
HETATM   11  H1  UNL     1      -7.159  17.237  64.716  1.00  0.00     0.000 HD 
HETATM   12  C   UNL     1      -9.557  15.094  66.874  1.00  0.00    -0.239 A  
HETATM   13  H2  UNL     1      -6.743  18.051  66.086  1.00  0.00     0.000 HD 
HETATM   14  N   UNL     1     -10.132  15.599  67.988  1.00  0.00    -0.223 NA 
HETATM   15  H2  UNL     1     -10.898  18.235  69.152  1.00  0.00     0.000 HD 
HETATM   16  H1  UNL     1     -11.099  16.827  69.986  1.00  0.00     0.000 HD 
HETATM   17  C   UNL     1      -9.774  16.844  68.334  1.00  0.00    -0.263 A  
HETATM   18  N   UNL     1     -10.432  17.377  69.446  1.00  0.00    -0.216 NA 
BRANCH  12  19
HETATM   19  C   UNL     1      -9.904  13.710  66.498  1.00  0.00    -0.293 A  
HETATM   20  C   UNL     1     -10.805  11.923  65.490  1.00  0.00    -0.295 A  
HETATM   21  N   UNL     1      -9.485  12.633  67.205  1.00  0.00    -0.193 NA 
HETATM   22  N   UNL     1      -9.994  11.572  66.531  1.00  0.00    -0.205 NA 
HETATM   23  C   UNL     1     -12.084  13.095  63.436  1.00  0.00    -0.558 A  
HETATM   24  N   UNL     1     -11.517  11.092  64.702  1.00  0.00     0.090 NA 
HETATM   25  C   UNL     1     -10.709  13.303  65.388  1.00  0.00    -0.308 A  
HETATM   26  C   UNL     1     -12.147  11.732  63.692  1.00  0.00    -0.381 A  
HETATM   27  C   UNL     1     -11.361  13.916  64.303  1.00  0.00    -0.309 A  
BRANCH  22  28
HETATM   28  C   UNL     1      -9.716  10.213  66.973  1.00  0.00    -0.180 C  
BRANCH  28  29
HETATM   29  C   UNL     1     -10.092   9.951  68.412  1.00  0.00    -0.189 A  
HETATM   30  C   UNL     1     -11.503  10.505  70.322  1.00  0.00    -0.416 A  
HETATM   31  C   UNL     1     -10.651   9.803  71.170  1.00  0.00    -0.215 A  
HETATM   32  C   UNL     1     -11.224  10.566  68.957  1.00  0.00    -0.259 A  
HETATM   33  C   UNL     1      -9.546   9.138  70.642  1.00  0.00    -0.312 A  
HETATM   34  F   UNL     1     -12.049  11.270  68.170  1.00  0.00    -0.342 F  
HETATM   35  C   UNL     1      -9.266   9.210  69.272  1.00  0.00    -0.146 A  
ENDBRANCH  28  29
ENDBRANCH  22  28
ENDBRANCH  12  19
ENDBRANCH   4   7
ENDBRANCH   2   3
TORSDOF 5
ENDMDL
MODEL       71
REMARK 921   NORMALIZED FREE ENERGY PREDICTED BY IDOCK:   -6.13 KCAL/MOL
REMARK 922        TOTAL FREE ENERGY PREDICTED BY IDOCK:   -8.72 KCAL/MOL
REMARK 923 INTER-LIGAND FREE ENERGY PREDICTED BY IDOCK:   -7.93 KCAL/MOL
REMARK 924 INTRA-LIGAND FREE ENERGY PREDICTED BY IDOCK:   -0.79 KCAL/MOL
REMARK 927      BINDING AFFINITY PREDICTED BY RF-SCORE:    0.00 PKD
ROOT
HETATM    1  C   UNL     1     -11.844  16.186  69.209  1.00  0.00    -0.172 C  
HETATM    2  O   UNL     1     -10.610  16.247  68.496  1.00  0.00    -0.262 OA 
ENDROOT
BRANCH   2   3
HETATM    3  C   UNL     1     -10.723  16.674  67.208  1.00  0.00    -0.227 C  
HETATM    4  N   UNL     1     -10.582  15.650  66.284  1.00  0.00    -0.303 N  
HETATM    5  O   UNL     1     -10.918  17.844  66.897  1.00  0.00    -0.138 OA 
HETATM    6  C   UNL     1     -10.718  15.901  64.863  1.00  0.00    -0.341 C  
BRANCH   4   7
HETATM    7  C   UNL     1     -10.448  14.295  66.693  1.00  0.00    -0.278 A  
HETATM    8  C   UNL     1      -9.234  13.778  67.138  1.00  0.00    -0.243 A  
HETATM    9  N   UNL     1      -8.046  14.507  67.062  1.00  0.00    -0.361 NA 
HETATM   10  N   UNL     1      -9.109  12.528  67.595  1.00  0.00    -0.179 NA 
HETATM   11  H1  UNL     1      -7.157  14.129  67.388  1.00  0.00     0.000 HD 
HETATM   12  C   UNL     1     -10.219  11.766  67.589  1.00  0.00    -0.199 A  
HETATM   13  H2  UNL     1      -8.197  15.397  67.535  1.00  0.00     0.000 HD 
HETATM   14  N   UNL     1     -11.434  12.160  67.147  1.00  0.00    -0.353 NA 
HETATM   15  H2  UNL     1     -12.632  14.099  65.225  1.00  0.00     0.000 HD 
HETATM   16  H1  UNL     1     -13.568  13.151  66.198  1.00  0.00     0.000 HD 
HETATM   17  C   UNL     1     -11.530  13.423  66.707  1.00  0.00    -0.343 A  
HETATM   18  N   UNL     1     -12.773  13.791  66.187  1.00  0.00    -0.364 NA 
BRANCH  12  19
HETATM   19  C   UNL     1     -10.100  10.393  68.118  1.00  0.00    -0.155 A  
HETATM   20  C   UNL     1      -9.809   8.178  68.289  1.00  0.00    -0.171 A  
HETATM   21  N   UNL     1     -10.384  10.079  69.405  1.00  0.00    -0.211 NA 
HETATM   22  N   UNL     1     -10.135   8.748  69.487  1.00  0.00    -0.196 NA 
HETATM   23  C   UNL     1      -8.981   7.586  65.801  1.00  0.00    -0.077 A  
HETATM   24  N   UNL     1      -9.598   6.869  68.046  1.00  0.00    -0.123 NA 
HETATM   25  C   UNL     1      -9.699   9.229  67.390  1.00  0.00    -0.208 A  
HETATM   26  C   UNL     1      -9.192   6.625  66.780  1.00  0.00    -0.149 A  
HETATM   27  C   UNL     1      -9.247   8.924  66.094  1.00  0.00    -0.273 A  
BRANCH  22  28
HETATM   28  C   UNL     1     -10.287   8.044  70.751  1.00  0.00    -0.199 C  
BRANCH  28  29
HETATM   29  C   UNL     1     -11.689   8.090  71.311  1.00  0.00    -0.311 A  
HETATM   30  C   UNL     1     -13.965   7.217  71.279  1.00  0.00    -0.295 A  
HETATM   31  C   UNL     1     -14.408   8.312  72.016  1.00  0.00    -0.541 A  
HETATM   32  C   UNL     1     -12.617   7.111  70.941  1.00  0.00    -0.220 A  
HETATM   33  C   UNL     1     -13.493   9.274  72.440  1.00  0.00    -0.526 A  
HETATM   34  F   UNL     1     -12.225   6.058  70.210  1.00  0.00    -0.118 F  
HETATM   35  C   UNL     1     -12.142   9.167  72.091  1.00  0.00    -0.389 A  
ENDBRANCH  28  29
ENDBRANCH  22  28
ENDBRANCH  12  19
ENDBRANCH   4   7
ENDBRANCH   2   3
TORSDOF 5
ENDMDL
MODEL       72
REMARK 921   NORMALIZED FREE ENERGY PREDICTED BY IDOCK:   -6.12 KCAL/MOL
REMARK 922        TOTAL FREE ENERGY PREDICTED BY IDOCK:   -8.71 KCAL/MOL
REMARK 923 INTER-LIGAND FREE ENERGY PREDICTED BY IDOCK:   -8.28 KCAL/MOL
REMARK 924 INTRA-LIGAND FREE ENERGY PREDICTED BY IDOCK:   -0.43 KCAL/MOL
REMARK 927      BINDING AFFINITY PREDICTED BY RF-SCORE:    0.00 PKD
ROOT
HETATM    1  C   UNL     1      -6.570  18.611  68.346  1.00  0.00    -0.233 C  
HETATM    2  O   UNL     1      -7.772  18.124  67.752  1.00  0.00    -0.221 OA 
ENDROOT
BRANCH   2   3
HETATM    3  C   UNL     1      -8.635  19.096  67.346  1.00  0.00    -0.286 C  
HETATM    4  N   UNL     1      -9.922  18.625  67.137  1.00  0.00    -0.316 N  
HETATM    5  O   UNL     1      -8.306  20.265  67.174  1.00  0.00    -0.324 OA 
HETATM    6  C   UNL     1     -10.993  19.522  66.748  1.00  0.00    -0.282 C  
BRANCH   4   7
HETATM    7  C   UNL     1     -10.279  17.282  67.437  1.00  0.00    -0.325 A  
HETATM    8  C   UNL     1     -10.493  16.337  66.438  1.00  0.00    -0.294 A  
HETATM    9  N   UNL     1     -10.528  16.684  65.086  1.00  0.00    -0.672 NA 
HETATM   10  N   UNL     1     -10.756  15.054  66.705  1.00  0.00    -0.306 NA 
HETATM   11  H1  UNL     1     -10.685  15.992  64.353  1.00  0.00     0.000 HD 
HETATM   12  C   UNL     1     -10.827  14.707  68.004  1.00  0.00    -0.257 A  
HETATM   13  H2  UNL     1      -9.661  17.175  64.869  1.00  0.00     0.000 HD 
HETATM   14  N   UNL     1     -10.668  15.552  69.047  1.00  0.00    -0.231 NA 
HETATM   15  H2  UNL     1     -10.992  18.444  69.697  1.00  0.00     0.000 HD 
HETATM   16  H1  UNL     1     -10.389  17.370  70.795  1.00  0.00     0.000 HD 
HETATM   17  C   UNL     1     -10.394  16.829  68.746  1.00  0.00    -0.318 A  
HETATM   18  N   UNL     1     -10.305  17.703  69.834  1.00  0.00     0.343 NA 
BRANCH  12  19
HETATM   19  C   UNL     1     -11.087  13.287  68.312  1.00  0.00    -0.266 A  
HETATM   20  C   UNL     1     -11.703  11.394  69.340  1.00  0.00    -0.338 A  
HETATM   21  N   UNL     1     -10.678  12.278  67.508  1.00  0.00    -0.220 NA 
HETATM   22  N   UNL     1     -11.122  11.156  68.127  1.00  0.00    -0.241 NA 
HETATM   23  C   UNL     1     -12.960  12.380  71.502  1.00  0.00    -0.385 A  
HETATM   24  N   UNL     1     -12.153  10.474  70.216  1.00  0.00    -0.303 NA 
HETATM   25  C   UNL     1     -11.769  12.774  69.460  1.00  0.00    -0.383 A  
HETATM   26  C   UNL     1     -12.768  11.021  71.288  1.00  0.00    -0.432 A  
HETATM   27  C   UNL     1     -12.444  13.292  70.581  1.00  0.00    -0.373 A  
BRANCH  22  28
HETATM   28  C   UNL     1     -10.907   9.847  67.528  1.00  0.00    -0.243 C  
BRANCH  28  29
HETATM   29  C   UNL     1      -9.647   9.754  66.702  1.00  0.00    -0.239 A  
HETATM   30  C   UNL     1      -8.603   9.785  64.498  1.00  0.00    -0.199 A  
HETATM   31  C   UNL     1      -7.433   9.251  65.032  1.00  0.00    -0.106 A  
HETATM   32  C   UNL     1      -9.691  10.038  65.333  1.00  0.00    -0.302 A  
HETATM   33  C   UNL     1      -7.347   9.009  66.402  1.00  0.00    -0.088 A  
HETATM   34  F   UNL     1     -10.812  10.528  64.786  1.00  0.00    -0.315 F  
HETATM   35  C   UNL     1      -8.445   9.257  67.234  1.00  0.00    -0.125 A  
ENDBRANCH  28  29
ENDBRANCH  22  28
ENDBRANCH  12  19
ENDBRANCH   4   7
ENDBRANCH   2   3
TORSDOF 5
ENDMDL
MODEL       73
REMARK 921   NORMALIZED FREE ENERGY PREDICTED BY IDOCK:   -6.12 KCAL/MOL
REMARK 922        TOTAL FREE ENERGY PREDICTED BY IDOCK:   -8.71 KCAL/MOL
REMARK 923 INTER-LIGAND FREE ENERGY PREDICTED BY IDOCK:   -7.82 KCAL/MOL
REMARK 924 INTRA-LIGAND FREE ENERGY PREDICTED BY IDOCK:   -0.89 KCAL/MOL
REMARK 927      BINDING AFFINITY PREDICTED BY RF-SCORE:    0.00 PKD
ROOT
HETATM    1  C   UNL     1     -11.438   6.309  69.843  1.00  0.00    -0.389 C  
HETATM    2  O   UNL     1     -10.234   6.636  69.153  1.00  0.00    -0.165 OA 
ENDROOT
BRANCH   2   3
HETATM    3  C   UNL     1      -9.114   6.608  69.927  1.00  0.00    -0.143 C  
HETATM    4  N   UNL     1      -8.451   7.825  69.966  1.00  0.00    -0.133 N  
HETATM    5  O   UNL     1      -8.726   5.607  70.521  1.00  0.00    -0.132 OA 
HETATM    6  C   UNL     1      -7.263   8.005  70.777  1.00  0.00    -0.053 C  
BRANCH   4   7
HETATM    7  C   UNL     1      -8.987   8.982  69.336  1.00  0.00    -0.145 A  
HETATM    8  C   UNL     1      -9.950   9.776  69.952  1.00  0.00    -0.245 A  
HETATM    9  N   UNL     1     -10.562   9.402  71.150  1.00  0.00    -0.320 NA 
HETATM   10  N   UNL     1     -10.409  10.906  69.405  1.00  0.00    -0.188 NA 
HETATM   11  H1  UNL     1     -11.268   9.984  71.602  1.00  0.00     0.000 HD 
HETATM   12  C   UNL     1      -9.908  11.244  68.201  1.00  0.00    -0.183 A  
HETATM   13  H2  UNL     1      -9.826   9.221  71.832  1.00  0.00     0.000 HD 
HETATM   14  N   UNL     1      -8.998  10.527  67.505  1.00  0.00    -0.135 NA 
HETATM   15  H2  UNL     1      -8.068   7.709  67.215  1.00  0.00     0.000 HD 
HETATM   16  H1  UNL     1      -7.342   8.950  66.406  1.00  0.00     0.000 HD 
HETATM   17  C   UNL     1      -8.549   9.405  68.087  1.00  0.00    -0.120 A  
HETATM   18  N   UNL     1      -7.664   8.639  67.323  1.00  0.00    -0.096 NA 
BRANCH  12  19
HETATM   19  C   UNL     1     -10.385  12.504  67.600  1.00  0.00    -0.218 A  
HETATM   20  C   UNL     1     -11.184  14.028  66.165  1.00  0.00    -0.318 A  
HETATM   21  N   UNL     1     -10.306  13.695  68.240  1.00  0.00    -0.245 NA 
HETATM   22  N   UNL     1     -10.856  14.579  67.370  1.00  0.00    -0.285 NA 
HETATM   23  C   UNL     1     -11.877  12.457  64.096  1.00  0.00    -0.492 A  
HETATM   24  N   UNL     1     -11.660  14.675  65.082  1.00  0.00    -0.362 NA 
HETATM   25  C   UNL     1     -10.965  12.665  66.302  1.00  0.00    -0.314 A  
HETATM   26  C   UNL     1     -11.984  13.841  64.069  1.00  0.00    -0.408 A  
HETATM   27  C   UNL     1     -11.345  11.840  65.229  1.00  0.00    -0.284 A  
BRANCH  22  28
HETATM   28  C   UNL     1     -10.992  15.983  67.731  1.00  0.00    -0.307 C  
BRANCH  28  29
HETATM   29  C   UNL     1      -9.752  16.803  67.465  1.00  0.00    -0.252 A  
HETATM   30  C   UNL     1      -8.533  18.889  67.797  1.00  0.00    -0.310 A  
HETATM   31  C   UNL     1      -7.661  18.558  66.763  1.00  0.00    -0.252 A  
HETATM   32  C   UNL     1      -9.560  18.012  68.143  1.00  0.00    -0.301 A  
HETATM   33  C   UNL     1      -7.800  17.336  66.108  1.00  0.00    -0.305 A  
HETATM   34  F   UNL     1     -10.398  18.369  69.126  1.00  0.00    -0.377 F  
HETATM   35  C   UNL     1      -8.838  16.462  66.454  1.00  0.00    -0.346 A  
ENDBRANCH  28  29
ENDBRANCH  22  28
ENDBRANCH  12  19
ENDBRANCH   4   7
ENDBRANCH   2   3
TORSDOF 5
ENDMDL
MODEL       74
REMARK 921   NORMALIZED FREE ENERGY PREDICTED BY IDOCK:   -6.11 KCAL/MOL
REMARK 922        TOTAL FREE ENERGY PREDICTED BY IDOCK:   -8.70 KCAL/MOL
REMARK 923 INTER-LIGAND FREE ENERGY PREDICTED BY IDOCK:   -7.85 KCAL/MOL
REMARK 924 INTRA-LIGAND FREE ENERGY PREDICTED BY IDOCK:   -0.85 KCAL/MOL
REMARK 927      BINDING AFFINITY PREDICTED BY RF-SCORE:    0.00 PKD
ROOT
HETATM    1  C   UNL     1      -6.957   9.186  63.385  1.00  0.00    -0.089 C  
HETATM    2  O   UNL     1      -7.446   9.247  64.724  1.00  0.00    -0.100 OA 
ENDROOT
BRANCH   2   3
HETATM    3  C   UNL     1      -8.218   8.187  65.092  1.00  0.00    -0.154 C  
HETATM    4  N   UNL     1      -9.055   8.471  66.159  1.00  0.00    -0.183 N  
HETATM    5  O   UNL     1      -8.170   7.091  64.542  1.00  0.00    -0.097 OA 
HETATM    6  C   UNL     1      -9.986   7.481  66.663  1.00  0.00    -0.200 C  
BRANCH   4   7
HETATM    7  C   UNL     1      -9.142   9.780  66.706  1.00  0.00    -0.146 A  
HETATM    8  C   UNL     1      -9.822  10.806  66.055  1.00  0.00    -0.235 A  
HETATM    9  N   UNL     1     -10.321  10.658  64.759  1.00  0.00    -0.327 NA 
HETATM   10  N   UNL     1      -9.975  12.022  66.590  1.00  0.00    -0.198 NA 
HETATM   11  H1  UNL     1     -10.819  11.409  64.281  1.00  0.00     0.000 HD 
HETATM   12  C   UNL     1      -9.419  12.226  67.799  1.00  0.00    -0.197 A  
HETATM   13  H2  UNL     1     -10.920   9.833  64.749  1.00  0.00     0.000 HD 
HETATM   14  N   UNL     1      -8.713  11.310  68.498  1.00  0.00    -0.155 NA 
HETATM   15  H2  UNL     1      -7.037   8.890  68.025  1.00  0.00     0.000 HD 
HETATM   16  H1  UNL     1      -7.386   9.420  69.548  1.00  0.00     0.000 HD 
HETATM   17  C   UNL     1      -8.587  10.098  67.940  1.00  0.00    -0.118 A  
HETATM   18  N   UNL     1      -7.793   9.187  68.642  1.00  0.00    -0.096 NA 
BRANCH  12  19
HETATM   19  C   UNL     1      -9.607  13.555  68.414  1.00  0.00    -0.196 A  
HETATM   20  C   UNL     1     -10.467  15.305  69.517  1.00  0.00    -0.260 A  
HETATM   21  N   UNL     1      -8.732  14.573  68.235  1.00  0.00    -0.167 NA 
HETATM   22  N   UNL     1      -9.250  15.591  68.967  1.00  0.00    -0.220 NA 
HETATM   23  C   UNL     1     -12.677  14.198  70.573  1.00  0.00    -0.374 A  
HETATM   24  N   UNL     1     -11.257  16.146  70.214  1.00  0.00    -0.377 NA 
HETATM   25  C   UNL     1     -10.697  13.964  69.244  1.00  0.00    -0.117 A  
HETATM   26  C   UNL     1     -12.358  15.542  70.715  1.00  0.00    -0.414 A  
HETATM   27  C   UNL     1     -11.842  13.379  69.813  1.00  0.00    -0.393 A  
BRANCH  22  28
HETATM   28  C   UNL     1      -8.551  16.864  69.059  1.00  0.00    -0.148 C  
BRANCH  28  29
HETATM   29  C   UNL     1      -9.047  17.904  68.082  1.00  0.00    -0.278 A  
HETATM   30  C   UNL     1      -9.329  20.261  67.524  1.00  0.00    -0.513 A  
HETATM   31  C   UNL     1     -10.233  19.927  66.519  1.00  0.00    -0.611 A  
HETATM   32  C   UNL     1      -8.741  19.253  68.288  1.00  0.00    -0.338 A  
HETATM   33  C   UNL     1     -10.514  18.587  66.261  1.00  0.00    -0.441 A  
HETATM   34  F   UNL     1      -7.894  19.607  69.265  1.00  0.00    -0.392 F  
HETATM   35  C   UNL     1      -9.926  17.579  67.036  1.00  0.00    -0.311 A  
ENDBRANCH  28  29
ENDBRANCH  22  28
ENDBRANCH  12  19
ENDBRANCH   4   7
ENDBRANCH   2   3
TORSDOF 5
ENDMDL
MODEL       75
REMARK 921   NORMALIZED FREE ENERGY PREDICTED BY IDOCK:   -6.10 KCAL/MOL
REMARK 922        TOTAL FREE ENERGY PREDICTED BY IDOCK:   -8.68 KCAL/MOL
REMARK 923 INTER-LIGAND FREE ENERGY PREDICTED BY IDOCK:   -7.88 KCAL/MOL
REMARK 924 INTRA-LIGAND FREE ENERGY PREDICTED BY IDOCK:   -0.81 KCAL/MOL
REMARK 927      BINDING AFFINITY PREDICTED BY RF-SCORE:    0.00 PKD
ROOT
HETATM    1  C   UNL     1     -12.334  10.078  71.661  1.00  0.00    -0.394 C  
HETATM    2  O   UNL     1     -11.047   9.619  71.250  1.00  0.00    -0.346 OA 
ENDROOT
BRANCH   2   3
HETATM    3  C   UNL     1     -11.069   8.511  70.459  1.00  0.00    -0.244 C  
HETATM    4  N   UNL     1     -10.534   8.733  69.200  1.00  0.00    -0.224 N  
HETATM    5  O   UNL     1     -11.525   7.430  70.820  1.00  0.00    -0.279 OA 
HETATM    6  C   UNL     1     -10.427   7.659  68.232  1.00  0.00    -0.174 C  
BRANCH   4   7
HETATM    7  C   UNL     1      -9.935   9.976  68.857  1.00  0.00    -0.192 A  
HETATM    8  C   UNL     1     -10.682  11.040  68.359  1.00  0.00    -0.203 A  
HETATM    9  N   UNL     1     -12.029  10.904  68.018  1.00  0.00    -0.777 NA 
HETATM   10  N   UNL     1     -10.147  12.238  68.102  1.00  0.00    -0.206 NA 
HETATM   11  H1  UNL     1     -12.577  11.683  67.654  1.00  0.00     0.000 HD 
HETATM   12  C   UNL     1      -8.826  12.372  68.328  1.00  0.00    -0.174 A  
HETATM   13  H2  UNL     1     -12.520  10.533  68.831  1.00  0.00     0.000 HD 
HETATM   14  N   UNL     1      -8.007  11.395  68.777  1.00  0.00    -0.141 NA 
HETATM   15  H2  UNL     1      -7.806   8.420  68.770  1.00  0.00     0.000 HD 
HETATM   16  H1  UNL     1      -6.708   9.362  69.562  1.00  0.00     0.000 HD 
HETATM   17  C   UNL     1      -8.577  10.210  69.037  1.00  0.00    -0.156 A  
HETATM   18  N   UNL     1      -7.705   9.191  69.430  1.00  0.00    -0.077 NA 
BRANCH  12  19
HETATM   19  C   UNL     1      -8.228  13.698  68.076  1.00  0.00    -0.162 A  
HETATM   20  C   UNL     1      -7.011  15.571  68.255  1.00  0.00    -0.115 A  
HETATM   21  N   UNL     1      -8.642  14.507  67.072  1.00  0.00    -0.225 NA 
HETATM   22  N   UNL     1      -7.842  15.598  67.172  1.00  0.00    -0.198 NA 
HETATM   23  C   UNL     1      -5.426  14.945  70.334  1.00  0.00    -0.132 A  
HETATM   24  N   UNL     1      -6.175  16.548  68.659  1.00  0.00    -0.133 NA 
HETATM   25  C   UNL     1      -7.177  14.316  68.824  1.00  0.00    -0.129 A  
HETATM   26  C   UNL     1      -5.408  16.186  69.712  1.00  0.00    -0.133 A  
HETATM   27  C   UNL     1      -6.335  13.980  69.899  1.00  0.00    -0.128 A  
BRANCH  22  28
HETATM   28  C   UNL     1      -7.960  16.690  66.216  1.00  0.00    -0.305 C  
BRANCH  28  29
HETATM   29  C   UNL     1      -8.685  17.899  66.758  1.00  0.00    -0.269 A  
HETATM   30  C   UNL     1     -10.800  19.045  67.153  1.00  0.00    -0.473 A  
HETATM   31  C   UNL     1     -10.122  20.235  67.407  1.00  0.00    -0.534 A  
HETATM   32  C   UNL     1     -10.081  17.893  66.840  1.00  0.00    -0.348 A  
HETATM   33  C   UNL     1      -8.729  20.253  67.382  1.00  0.00    -0.428 A  
HETATM   34  F   UNL     1     -10.763  16.769  66.575  1.00  0.00    -0.302 F  
HETATM   35  C   UNL     1      -8.012  19.094  67.060  1.00  0.00    -0.273 A  
ENDBRANCH  28  29
ENDBRANCH  22  28
ENDBRANCH  12  19
ENDBRANCH   4   7
ENDBRANCH   2   3
TORSDOF 5
ENDMDL
MODEL       76
REMARK 921   NORMALIZED FREE ENERGY PREDICTED BY IDOCK:   -6.08 KCAL/MOL
REMARK 922        TOTAL FREE ENERGY PREDICTED BY IDOCK:   -8.66 KCAL/MOL
REMARK 923 INTER-LIGAND FREE ENERGY PREDICTED BY IDOCK:   -7.67 KCAL/MOL
REMARK 924 INTRA-LIGAND FREE ENERGY PREDICTED BY IDOCK:   -0.99 KCAL/MOL
REMARK 927      BINDING AFFINITY PREDICTED BY RF-SCORE:    0.00 PKD
ROOT
HETATM    1  C   UNL     1     -10.800  19.936  65.474  1.00  0.00    -0.127 C  
HETATM    2  O   UNL     1     -10.905  19.537  66.839  1.00  0.00    -0.476 OA 
ENDROOT
BRANCH   2   3
HETATM    3  C   UNL     1      -9.927  20.031  67.648  1.00  0.00    -0.428 C  
HETATM    4  N   UNL     1      -9.090  19.046  68.150  1.00  0.00    -0.309 N  
HETATM    5  O   UNL     1      -9.806  21.223  67.914  1.00  0.00     0.027 OA 
HETATM    6  C   UNL     1      -7.960  19.383  68.993  1.00  0.00    -0.266 C  
BRANCH   4   7
HETATM    7  C   UNL     1      -9.214  17.690  67.743  1.00  0.00    -0.251 A  
HETATM    8  C   UNL     1     -10.034  16.790  68.419  1.00  0.00    -0.268 A  
HETATM    9  N   UNL     1     -10.658  17.119  69.624  1.00  0.00    -0.296 NA 
HETATM   10  N   UNL     1     -10.217  15.532  68.006  1.00  0.00    -0.227 NA 
HETATM   11  H1  UNL     1     -11.259  16.461  70.119  1.00  0.00     0.000 HD 
HETATM   12  C   UNL     1      -9.549  15.155  66.899  1.00  0.00    -0.239 A  
HETATM   13  H2  UNL     1     -11.193  17.975  69.474  1.00  0.00     0.000 HD 
HETATM   14  N   UNL     1      -8.705  15.938  66.191  1.00  0.00    -0.332 NA 
HETATM   15  H2  UNL     1      -6.918  18.291  66.589  1.00  0.00     0.000 HD 
HETATM   16  H1  UNL     1      -7.137  17.609  65.103  1.00  0.00     0.000 HD 
HETATM   17  C   UNL     1      -8.552  17.197  66.624  1.00  0.00    -0.253 A  
HETATM   18  N   UNL     1      -7.622  17.970  65.925  1.00  0.00    -0.526 NA 
BRANCH  12  19
HETATM   19  C   UNL     1      -9.766  13.777  66.415  1.00  0.00    -0.294 A  
HETATM   20  C   UNL     1     -10.571  11.984  65.341  1.00  0.00    -0.278 A  
HETATM   21  N   UNL     1      -9.107  12.710  66.927  1.00  0.00    -0.214 NA 
HETATM   22  N   UNL     1      -9.571  11.656  66.211  1.00  0.00    -0.215 NA 
HETATM   23  C   UNL     1     -12.294  13.148  63.637  1.00  0.00    -0.482 A  
HETATM   24  N   UNL     1     -11.282  11.137  64.569  1.00  0.00    -0.118 NA 
HETATM   25  C   UNL     1     -10.673  13.366  65.389  1.00  0.00    -0.307 A  
HETATM   26  C   UNL     1     -12.138  11.772  63.738  1.00  0.00    -0.358 A  
HETATM   27  C   UNL     1     -11.559  13.978  64.484  1.00  0.00    -0.403 A  
BRANCH  22  28
HETATM   28  C   UNL     1      -9.052  10.317  66.447  1.00  0.00    -0.152 C  
BRANCH  28  29
HETATM   29  C   UNL     1      -8.145   9.812  65.351  1.00  0.00    -0.127 A  
HETATM   30  C   UNL     1      -5.986   9.931  64.224  1.00  0.00    -0.119 A  
HETATM   31  C   UNL     1      -6.496   9.211  63.146  1.00  0.00    -0.090 A  
HETATM   32  C   UNL     1      -6.807  10.217  65.314  1.00  0.00    -0.131 A  
HETATM   33  C   UNL     1      -7.811   8.751  63.183  1.00  0.00    -0.149 A  
HETATM   34  F   UNL     1      -6.296  10.933  66.325  1.00  0.00    -0.095 F  
HETATM   35  C   UNL     1      -8.633   9.049  64.277  1.00  0.00    -0.171 A  
ENDBRANCH  28  29
ENDBRANCH  22  28
ENDBRANCH  12  19
ENDBRANCH   4   7
ENDBRANCH   2   3
TORSDOF 5
ENDMDL
MODEL       77
REMARK 921   NORMALIZED FREE ENERGY PREDICTED BY IDOCK:   -6.07 KCAL/MOL
REMARK 922        TOTAL FREE ENERGY PREDICTED BY IDOCK:   -8.65 KCAL/MOL
REMARK 923 INTER-LIGAND FREE ENERGY PREDICTED BY IDOCK:   -7.85 KCAL/MOL
REMARK 924 INTRA-LIGAND FREE ENERGY PREDICTED BY IDOCK:   -0.80 KCAL/MOL
REMARK 927      BINDING AFFINITY PREDICTED BY RF-SCORE:    0.00 PKD
ROOT
HETATM    1  C   UNL     1      -7.111   6.068  69.719  1.00  0.00    -0.072 C  
HETATM    2  O   UNL     1      -7.996   6.435  68.662  1.00  0.00    -0.104 OA 
ENDROOT
BRANCH   2   3
HETATM    3  C   UNL     1      -7.958   5.608  67.580  1.00  0.00    -0.101 C  
HETATM    4  N   UNL     1      -8.593   6.140  66.469  1.00  0.00    -0.122 N  
HETATM    5  O   UNL     1      -7.425   4.503  67.592  1.00  0.00    -0.072 OA 
HETATM    6  C   UNL     1      -8.615   5.426  65.207  1.00  0.00    -0.151 C  
BRANCH   4   7
HETATM    7  C   UNL     1      -9.117   7.462  66.475  1.00  0.00    -0.162 A  
HETATM    8  C   UNL     1     -10.393   7.745  66.954  1.00  0.00    -0.326 A  
HETATM    9  N   UNL     1     -11.292   6.737  67.308  1.00  0.00    -0.753 NA 
HETATM   10  N   UNL     1     -10.871   8.991  67.035  1.00  0.00    -0.098 NA 
HETATM   11  H1  UNL     1     -12.226   6.944  67.660  1.00  0.00     0.000 HD 
HETATM   12  C   UNL     1     -10.063   9.980  66.607  1.00  0.00    -0.227 A  
HETATM   13  H2  UNL     1     -10.830   6.135  67.990  1.00  0.00     0.000 HD 
HETATM   14  N   UNL     1      -8.824   9.808  66.095  1.00  0.00    -0.138 NA 
HETATM   15  H2  UNL     1      -7.228   7.743  64.654  1.00  0.00     0.000 HD 
HETATM   16  H1  UNL     1      -6.567   9.181  65.121  1.00  0.00     0.000 HD 
HETATM   17  C   UNL     1      -8.368   8.549  66.039  1.00  0.00    -0.130 A  
HETATM   18  N   UNL     1      -7.116   8.383  65.441  1.00  0.00    -0.080 NA 
BRANCH  12  19
HETATM   19  C   UNL     1     -10.568  11.362  66.719  1.00  0.00    -0.255 A  
HETATM   20  C   UNL     1     -11.392  13.389  66.238  1.00  0.00    -0.306 A  
HETATM   21  N   UNL     1     -10.532  12.062  67.877  1.00  0.00    -0.197 NA 
HETATM   22  N   UNL     1     -11.096  13.255  67.565  1.00  0.00    -0.263 NA 
HETATM   23  C   UNL     1     -12.013  13.077  63.641  1.00  0.00    -0.608 A  
HETATM   24  N   UNL     1     -11.873  14.488  65.623  1.00  0.00    -0.349 NA 
HETATM   25  C   UNL     1     -11.136  12.150  65.669  1.00  0.00    -0.360 A  
HETATM   26  C   UNL     1     -12.161  14.280  64.319  1.00  0.00    -0.441 A  
HETATM   27  C   UNL     1     -11.479  11.979  64.316  1.00  0.00    -0.435 A  
BRANCH  22  28
HETATM   28  C   UNL     1     -11.277  14.277  68.585  1.00  0.00    -0.264 C  
BRANCH  28  29
HETATM   29  C   UNL     1     -10.373  15.475  68.414  1.00  0.00    -0.230 A  
HETATM   30  C   UNL     1      -8.170  16.473  68.723  1.00  0.00    -0.248 A  
HETATM   31  C   UNL     1      -8.695  17.739  68.475  1.00  0.00    -0.284 A  
HETATM   32  C   UNL     1      -9.005  15.358  68.684  1.00  0.00    -0.191 A  
HETATM   33  C   UNL     1     -10.044  17.875  68.152  1.00  0.00    -0.368 A  
HETATM   34  F   UNL     1      -8.476  14.156  68.953  1.00  0.00    -0.159 F  
HETATM   35  C   UNL     1     -10.880  16.752  68.122  1.00  0.00    -0.353 A  
ENDBRANCH  28  29
ENDBRANCH  22  28
ENDBRANCH  12  19
ENDBRANCH   4   7
ENDBRANCH   2   3
TORSDOF 5
ENDMDL
MODEL       78
REMARK 921   NORMALIZED FREE ENERGY PREDICTED BY IDOCK:   -6.00 KCAL/MOL
REMARK 922        TOTAL FREE ENERGY PREDICTED BY IDOCK:   -8.56 KCAL/MOL
REMARK 923 INTER-LIGAND FREE ENERGY PREDICTED BY IDOCK:   -7.48 KCAL/MOL
REMARK 924 INTRA-LIGAND FREE ENERGY PREDICTED BY IDOCK:   -1.08 KCAL/MOL
REMARK 927      BINDING AFFINITY PREDICTED BY RF-SCORE:    0.00 PKD
ROOT
HETATM    1  C   UNL     1      -9.674   3.224  71.210  1.00  0.00    -0.151 C  
HETATM    2  O   UNL     1      -9.869   3.676  69.871  1.00  0.00    -0.155 OA 
ENDROOT
BRANCH   2   3
HETATM    3  C   UNL     1      -8.905   3.279  68.995  1.00  0.00    -0.105 C  
HETATM    4  N   UNL     1      -8.495   4.294  68.144  1.00  0.00    -0.093 N  
HETATM    5  O   UNL     1      -8.454   2.139  68.955  1.00  0.00    -0.054 OA 
HETATM    6  C   UNL     1      -7.442   4.075  67.172  1.00  0.00    -0.073 C  
BRANCH   4   7
HETATM    7  C   UNL     1      -8.979   5.623  68.286  1.00  0.00    -0.114 A  
HETATM    8  C   UNL     1      -8.495   6.482  69.268  1.00  0.00    -0.127 A  
HETATM    9  N   UNL     1      -7.623   6.046  70.269  1.00  0.00    -0.093 NA 
HETATM   10  N   UNL     1      -8.887   7.756  69.368  1.00  0.00    -0.139 NA 
HETATM   11  H1  UNL     1      -7.268   6.675  70.989  1.00  0.00     0.000 HD 
HETATM   12  C   UNL     1      -9.802   8.180  68.476  1.00  0.00    -0.179 A  
HETATM   13  H2  UNL     1      -6.822   5.609  69.815  1.00  0.00     0.000 HD 
HETATM   14  N   UNL     1     -10.359   7.420  67.508  1.00  0.00    -0.226 NA 
HETATM   15  H2  UNL     1     -10.990   4.560  66.947  1.00  0.00     0.000 HD 
HETATM   16  H1  UNL     1     -11.277   5.745  65.837  1.00  0.00     0.000 HD 
HETATM   17  C   UNL     1      -9.936   6.150  67.427  1.00  0.00    -0.141 A  
HETATM   18  N   UNL     1     -10.574   5.358  66.468  1.00  0.00    -0.304 NA 
BRANCH  12  19
HETATM   19  C   UNL     1     -10.221   9.593  68.557  1.00  0.00    -0.193 A  
HETATM   20  C   UNL     1     -11.244  11.496  69.151  1.00  0.00    -0.274 A  
HETATM   21  N   UNL     1      -9.804  10.531  67.673  1.00  0.00    -0.164 NA 
HETATM   22  N   UNL     1     -10.390  11.677  68.100  1.00  0.00    -0.187 NA 
HETATM   23  C   UNL     1     -12.590  10.684  71.331  1.00  0.00    -0.526 A  
HETATM   24  N   UNL     1     -12.029  12.429  69.725  1.00  0.00    -0.310 NA 
HETATM   25  C   UNL     1     -11.101  10.168  69.526  1.00  0.00    -0.295 A  
HETATM   26  C   UNL     1     -12.690  11.968  70.810  1.00  0.00    -0.143 A  
HETATM   27  C   UNL     1     -11.789   9.747  70.678  1.00  0.00    -0.360 A  
BRANCH  22  28
HETATM   28  C   UNL     1     -10.138  12.936  67.415  1.00  0.00    -0.223 C  
BRANCH  28  29
HETATM   29  C   UNL     1     -10.712  12.995  66.019  1.00  0.00    -0.290 A  
HETATM   30  C   UNL     1     -12.638  13.413  64.583  1.00  0.00    -0.322 A  
HETATM   31  C   UNL     1     -11.988  12.803  63.513  1.00  0.00    -0.633 A  
HETATM   32  C   UNL     1     -11.996  13.511  65.817  1.00  0.00    -0.403 A  
HETATM   33  C   UNL     1     -10.688  12.328  63.676  1.00  0.00    -0.513 A  
HETATM   34  F   UNL     1     -12.657  14.081  66.835  1.00  0.00    -0.430 F  
HETATM   35  C   UNL     1     -10.052  12.422  64.920  1.00  0.00    -0.259 A  
ENDBRANCH  28  29
ENDBRANCH  22  28
ENDBRANCH  12  19
ENDBRANCH   4   7
ENDBRANCH   2   3
TORSDOF 5
ENDMDL
MODEL       79
REMARK 921   NORMALIZED FREE ENERGY PREDICTED BY IDOCK:   -6.00 KCAL/MOL
REMARK 922        TOTAL FREE ENERGY PREDICTED BY IDOCK:   -8.56 KCAL/MOL
REMARK 923 INTER-LIGAND FREE ENERGY PREDICTED BY IDOCK:   -7.47 KCAL/MOL
REMARK 924 INTRA-LIGAND FREE ENERGY PREDICTED BY IDOCK:   -1.09 KCAL/MOL
REMARK 927      BINDING AFFINITY PREDICTED BY RF-SCORE:    0.00 PKD
ROOT
HETATM    1  C   UNL     1     -13.610   8.680  72.504  1.00  0.00    -0.296 C  
HETATM    2  O   UNL     1     -13.120   7.861  71.444  1.00  0.00    -0.313 OA 
ENDROOT
BRANCH   2   3
HETATM    3  C   UNL     1     -12.499   6.720  71.852  1.00  0.00    -0.312 C  
HETATM    4  N   UNL     1     -11.209   6.598  71.358  1.00  0.00    -0.261 N  
HETATM    5  O   UNL     1     -13.029   5.882  72.575  1.00  0.00     0.121 OA 
HETATM    6  C   UNL     1     -10.372   5.472  71.723  1.00  0.00    -0.216 C  
BRANCH   4   7
HETATM    7  C   UNL     1     -10.604   7.637  70.599  1.00  0.00    -0.221 A  
HETATM    8  C   UNL     1     -10.736   7.709  69.215  1.00  0.00    -0.161 A  
HETATM    9  N   UNL     1     -11.332   6.687  68.473  1.00  0.00    -0.576 NA 
HETATM   10  N   UNL     1     -10.235   8.719  68.496  1.00  0.00    -0.191 NA 
HETATM   11  H1  UNL     1     -11.429   6.740  67.460  1.00  0.00     0.000 HD 
HETATM   12  C   UNL     1      -9.568   9.673  69.173  1.00  0.00    -0.174 A  
HETATM   13  H2  UNL     1     -12.258   6.518  68.866  1.00  0.00     0.000 HD 
HETATM   14  N   UNL     1      -9.356   9.679  70.508  1.00  0.00    -0.228 NA 
HETATM   15  H2  UNL     1      -9.122   7.761  72.779  1.00  0.00     0.000 HD 
HETATM   16  H1  UNL     1      -9.059   9.393  73.011  1.00  0.00     0.000 HD 
HETATM   17  C   UNL     1      -9.880   8.659  71.202  1.00  0.00    -0.222 A  
HETATM   18  N   UNL     1      -9.590   8.642  72.569  1.00  0.00    -0.253 NA 
BRANCH  12  19
HETATM   19  C   UNL     1      -9.036  10.808  68.395  1.00  0.00    -0.164 A  
HETATM   20  C   UNL     1      -7.663  12.314  67.464  1.00  0.00    -0.158 A  
HETATM   21  N   UNL     1      -9.836  11.702  67.766  1.00  0.00    -0.175 NA 
HETATM   22  N   UNL     1      -8.973  12.558  67.164  1.00  0.00    -0.193 NA 
HETATM   23  C   UNL     1      -5.268  11.296  68.137  1.00  0.00    -0.042 A  
HETATM   24  N   UNL     1      -6.597  13.048  67.087  1.00  0.00    -0.154 NA 
HETATM   25  C   UNL     1      -7.658  11.138  68.199  1.00  0.00    -0.103 A  
HETATM   26  C   UNL     1      -5.419  12.498  67.458  1.00  0.00    -0.123 A  
HETATM   27  C   UNL     1      -6.406  10.593  68.535  1.00  0.00    -0.054 A  
BRANCH  22  28
HETATM   28  C   UNL     1      -9.469  13.651  66.341  1.00  0.00    -0.234 C  
BRANCH  28  29
HETATM   29  C   UNL     1     -10.421  13.212  65.254  1.00  0.00    -0.319 A  
HETATM   30  C   UNL     1     -12.724  12.918  64.506  1.00  0.00    -0.359 A  
HETATM   31  C   UNL     1     -12.292  12.109  63.458  1.00  0.00    -0.682 A  
HETATM   32  C   UNL     1     -11.791  13.466  65.385  1.00  0.00    -0.353 A  
HETATM   33  C   UNL     1     -10.929  11.884  63.276  1.00  0.00    -0.399 A  
HETATM   34  F   UNL     1     -12.238  14.220  66.399  1.00  0.00    -0.412 F  
HETATM   35  C   UNL     1      -9.997  12.431  64.167  1.00  0.00    -0.244 A  
ENDBRANCH  28  29
ENDBRANCH  22  28
ENDBRANCH  12  19
ENDBRANCH   4   7
ENDBRANCH   2   3
TORSDOF 5
ENDMDL
MODEL       80
REMARK 921   NORMALIZED FREE ENERGY PREDICTED BY IDOCK:   -5.99 KCAL/MOL
REMARK 922        TOTAL FREE ENERGY PREDICTED BY IDOCK:   -8.55 KCAL/MOL
REMARK 923 INTER-LIGAND FREE ENERGY PREDICTED BY IDOCK:   -7.93 KCAL/MOL
REMARK 924 INTRA-LIGAND FREE ENERGY PREDICTED BY IDOCK:   -0.61 KCAL/MOL
REMARK 927      BINDING AFFINITY PREDICTED BY RF-SCORE:    0.00 PKD
ROOT
HETATM    1  C   UNL     1      -9.799   3.986  70.616  1.00  0.00    -0.158 C  
HETATM    2  O   UNL     1     -10.733   4.891  71.202  1.00  0.00    -0.090 OA 
ENDROOT
BRANCH   2   3
HETATM    3  C   UNL     1     -10.596   5.051  72.548  1.00  0.00    -0.219 C  
HETATM    4  N   UNL     1     -10.359   6.367  72.915  1.00  0.00    -0.198 N  
HETATM    5  O   UNL     1     -10.665   4.126  73.350  1.00  0.00    -0.180 OA 
HETATM    6  C   UNL     1     -10.233   6.743  74.310  1.00  0.00    -0.278 C  
BRANCH   4   7
HETATM    7  C   UNL     1     -10.378   7.419  71.959  1.00  0.00    -0.193 A  
HETATM    8  C   UNL     1     -11.548   8.101  71.639  1.00  0.00    -0.279 A  
HETATM    9  N   UNL     1     -12.797   7.694  72.114  1.00  0.00    -0.497 NA 
HETATM   10  N   UNL     1     -11.569   9.141  70.798  1.00  0.00    -0.281 NA 
HETATM   11  H1  UNL     1     -13.655   8.194  71.880  1.00  0.00     0.000 HD 
HETATM   12  C   UNL     1     -10.393   9.497  70.246  1.00  0.00    -0.269 A  
HETATM   13  H2  UNL     1     -12.739   7.636  73.130  1.00  0.00     0.000 HD 
HETATM   14  N   UNL     1      -9.210   8.881  70.464  1.00  0.00    -0.185 NA 
HETATM   15  H2  UNL     1      -8.153   6.202  71.233  1.00  0.00     0.000 HD 
HETATM   16  H1  UNL     1      -7.155   7.497  71.011  1.00  0.00     0.000 HD 
HETATM   17  C   UNL     1      -9.221   7.851  71.321  1.00  0.00    -0.146 A  
HETATM   18  N   UNL     1      -8.005   7.180  71.479  1.00  0.00    -0.101 NA 
BRANCH  12  19
HETATM   19  C   UNL     1     -10.397  10.661  69.339  1.00  0.00    -0.208 A  
HETATM   20  C   UNL     1     -10.858  12.636  68.387  1.00  0.00    -0.245 A  
HETATM   21  N   UNL     1      -9.704  10.684  68.176  1.00  0.00    -0.153 NA 
HETATM   22  N   UNL     1      -9.954  11.914  67.662  1.00  0.00    -0.187 NA 
HETATM   23  C   UNL     1     -12.450  13.736  70.253  1.00  0.00    -0.357 A  
HETATM   24  N   UNL     1     -11.366  13.845  68.074  1.00  0.00    -0.273 NA 
HETATM   25  C   UNL     1     -11.110  11.887  69.527  1.00  0.00    -0.169 A  
HETATM   26  C   UNL     1     -12.165  14.349  69.040  1.00  0.00    -0.198 A  
HETATM   27  C   UNL     1     -11.927  12.469  70.513  1.00  0.00    -0.277 A  
BRANCH  22  28
HETATM   28  C   UNL     1      -9.334  12.333  66.413  1.00  0.00    -0.219 C  
BRANCH  28  29
HETATM   29  C   UNL     1     -10.323  12.636  65.313  1.00  0.00    -0.309 A  
HETATM   30  C   UNL     1     -11.623  14.299  64.092  1.00  0.00    -0.215 A  
HETATM   31  C   UNL     1     -12.410  13.294  63.537  1.00  0.00    -0.442 A  
HETATM   32  C   UNL     1     -10.588  13.965  64.964  1.00  0.00    -0.404 A  
HETATM   33  C   UNL     1     -12.132  11.959  63.829  1.00  0.00    -0.547 A  
HETATM   34  F   UNL     1      -9.864  14.956  65.502  1.00  0.00    -0.326 F  
HETATM   35  C   UNL     1     -11.096  11.630  64.711  1.00  0.00    -0.328 A  
ENDBRANCH  28  29
ENDBRANCH  22  28
ENDBRANCH  12  19
ENDBRANCH   4   7
ENDBRANCH   2   3
TORSDOF 5
ENDMDL
MODEL       81
REMARK 921   NORMALIZED FREE ENERGY PREDICTED BY IDOCK:   -5.99 KCAL/MOL
REMARK 922        TOTAL FREE ENERGY PREDICTED BY IDOCK:   -8.54 KCAL/MOL
REMARK 923 INTER-LIGAND FREE ENERGY PREDICTED BY IDOCK:   -7.49 KCAL/MOL
REMARK 924 INTRA-LIGAND FREE ENERGY PREDICTED BY IDOCK:   -1.05 KCAL/MOL
REMARK 927      BINDING AFFINITY PREDICTED BY RF-SCORE:    0.00 PKD
ROOT
HETATM    1  C   UNL     1      -7.333   7.788  64.717  1.00  0.00    -0.075 C  
HETATM    2  O   UNL     1      -8.345   7.786  65.722  1.00  0.00    -0.124 OA 
ENDROOT
BRANCH   2   3
HETATM    3  C   UNL     1      -8.018   7.098  66.851  1.00  0.00    -0.115 C  
HETATM    4  N   UNL     1      -8.130   7.862  68.002  1.00  0.00    -0.124 N  
HETATM    5  O   UNL     1      -7.653   5.927  66.848  1.00  0.00    -0.096 OA 
HETATM    6  C   UNL     1      -7.870   7.289  69.308  1.00  0.00    -0.116 C  
BRANCH   4   7
HETATM    7  C   UNL     1      -8.644   9.187  67.967  1.00  0.00    -0.125 A  
HETATM    8  C   UNL     1     -10.010   9.445  67.902  1.00  0.00    -0.182 A  
HETATM    9  N   UNL     1     -10.948   8.428  67.708  1.00  0.00    -0.489 NA 
HETATM   10  N   UNL     1     -10.512  10.684  67.942  1.00  0.00    -0.194 NA 
HETATM   11  H1  UNL     1     -11.949   8.616  67.660  1.00  0.00     0.000 HD 
HETATM   12  C   UNL     1      -9.626  11.694  68.030  1.00  0.00    -0.184 A  
HETATM   13  H2  UNL     1     -10.798   7.726  68.432  1.00  0.00     0.000 HD 
HETATM   14  N   UNL     1      -8.282  11.553  68.065  1.00  0.00    -0.136 NA 
HETATM   15  H2  UNL     1      -6.174   9.648  67.159  1.00  0.00     0.000 HD 
HETATM   16  H1  UNL     1      -5.809  10.989  68.049  1.00  0.00     0.000 HD 
HETATM   17  C   UNL     1      -7.811  10.298  68.035  1.00  0.00    -0.100 A  
HETATM   18  N   UNL     1      -6.420  10.173  67.999  1.00  0.00    -0.058 NA 
BRANCH  12  19
HETATM   19  C   UNL     1     -10.168  13.064  68.105  1.00  0.00    -0.239 A  
HETATM   20  C   UNL     1     -10.416  15.285  67.938  1.00  0.00    -0.253 A  
HETATM   21  N   UNL     1     -11.324  13.359  68.747  1.00  0.00    -0.272 NA 
HETATM   22  N   UNL     1     -11.473  14.696  68.571  1.00  0.00    -0.287 NA 
HETATM   23  C   UNL     1      -8.260  15.922  66.463  1.00  0.00    -0.307 A  
HETATM   24  N   UNL     1     -10.243  16.602  67.706  1.00  0.00    -0.282 NA 
HETATM   25  C   UNL     1      -9.583  14.245  67.550  1.00  0.00    -0.216 A  
HETATM   26  C   UNL     1      -9.142  16.868  66.969  1.00  0.00    -0.226 A  
HETATM   27  C   UNL     1      -8.466  14.575  66.762  1.00  0.00    -0.108 A  
BRANCH  22  28
HETATM   28  C   UNL     1     -12.645  15.384  69.091  1.00  0.00     0.236 C  
BRANCH  28  29
HETATM   29  C   UNL     1     -12.762  15.335  70.596  1.00  0.00    -0.470 A  
HETATM   30  C   UNL     1     -11.817  15.907  72.770  1.00  0.00    -0.583 A  
HETATM   31  C   UNL     1     -12.681  15.011  73.395  1.00  0.00    -0.654 A  
HETATM   32  C   UNL     1     -11.868  16.066  71.386  1.00  0.00    -0.470 A  
HETATM   33  C   UNL     1     -13.615  14.310  72.635  1.00  0.00    -0.601 A  
HETATM   34  F   UNL     1     -11.007  16.917  70.811  1.00  0.00    -0.212 F  
HETATM   35  C   UNL     1     -13.657  14.469  71.244  1.00  0.00    -0.423 A  
ENDBRANCH  28  29
ENDBRANCH  22  28
ENDBRANCH  12  19
ENDBRANCH   4   7
ENDBRANCH   2   3
TORSDOF 5
ENDMDL
MODEL       82
REMARK 921   NORMALIZED FREE ENERGY PREDICTED BY IDOCK:   -5.97 KCAL/MOL
REMARK 922        TOTAL FREE ENERGY PREDICTED BY IDOCK:   -8.51 KCAL/MOL
REMARK 923 INTER-LIGAND FREE ENERGY PREDICTED BY IDOCK:   -7.54 KCAL/MOL
REMARK 924 INTRA-LIGAND FREE ENERGY PREDICTED BY IDOCK:   -0.97 KCAL/MOL
REMARK 927      BINDING AFFINITY PREDICTED BY RF-SCORE:    0.00 PKD
ROOT
HETATM    1  C   UNL     1      -9.894  20.367  66.049  1.00  0.00    -0.141 C  
HETATM    2  O   UNL     1      -8.506  20.049  65.981  1.00  0.00    -0.336 OA 
ENDROOT
BRANCH   2   3
HETATM    3  C   UNL     1      -7.815  20.285  67.131  1.00  0.00    -0.333 C  
HETATM    4  N   UNL     1      -7.732  19.170  67.951  1.00  0.00    -0.268 N  
HETATM    5  O   UNL     1      -7.327  21.374  67.416  1.00  0.00    -0.493 OA 
HETATM    6  C   UNL     1      -6.994  19.214  69.199  1.00  0.00    -0.326 C  
BRANCH   4   7
HETATM    7  C   UNL     1      -8.234  17.906  67.539  1.00  0.00    -0.227 A  
HETATM    8  C   UNL     1      -7.531  17.086  66.661  1.00  0.00    -0.265 A  
HETATM    9  N   UNL     1      -6.373  17.518  66.010  1.00  0.00    -0.213 NA 
HETATM   10  N   UNL     1      -7.955  15.864  66.321  1.00  0.00    -0.093 NA 
HETATM   11  H1  UNL     1      -5.858  16.917  65.366  1.00  0.00     0.000 HD 
HETATM   12  C   UNL     1      -9.121  15.457  66.857  1.00  0.00    -0.242 A  
HETATM   13  H2  UNL     1      -5.720  17.843  66.722  1.00  0.00     0.000 HD 
HETATM   14  N   UNL     1      -9.895  16.187  67.691  1.00  0.00    -0.234 NA 
HETATM   15  H2  UNL     1     -10.482  19.039  68.328  1.00  0.00     0.000 HD 
HETATM   16  H1  UNL     1     -11.165  17.802  69.179  1.00  0.00     0.000 HD 
HETATM   17  C   UNL     1      -9.436  17.402  68.021  1.00  0.00    -0.281 A  
HETATM   18  N   UNL     1     -10.282  18.172  68.825  1.00  0.00    -0.374 NA 
BRANCH  12  19
HETATM   19  C   UNL     1      -9.585  14.098  66.514  1.00  0.00    -0.296 A  
HETATM   20  C   UNL     1     -10.715  12.378  65.628  1.00  0.00    -0.264 A  
HETATM   21  N   UNL     1      -9.107  12.987  67.123  1.00  0.00    -0.217 NA 
HETATM   22  N   UNL     1      -9.765  11.966  66.519  1.00  0.00    -0.205 NA 
HETATM   23  C   UNL     1     -12.252  13.656  63.831  1.00  0.00    -0.429 A  
HETATM   24  N   UNL     1     -11.580  11.598  64.949  1.00  0.00    -0.155 NA 
HETATM   25  C   UNL     1     -10.575  13.755  65.540  1.00  0.00    -0.312 A  
HETATM   26  C   UNL     1     -12.334  12.290  64.067  1.00  0.00    -0.475 A  
HETATM   27  C   UNL     1     -11.364  14.423  64.586  1.00  0.00    -0.373 A  
BRANCH  22  28
HETATM   28  C   UNL     1      -9.480  10.586  66.882  1.00  0.00    -0.165 C  
BRANCH  28  29
HETATM   29  C   UNL     1      -8.192  10.055  66.300  1.00  0.00    -0.124 A  
HETATM   30  C   UNL     1      -7.074   8.813  64.523  1.00  0.00    -0.085 A  
HETATM   31  C   UNL     1      -5.920   8.720  65.298  1.00  0.00    -0.048 A  
HETATM   32  C   UNL     1      -8.190   9.482  65.023  1.00  0.00    -0.136 A  
HETATM   33  C   UNL     1      -5.880   9.328  66.551  1.00  0.00    -0.058 A  
HETATM   34  F   UNL     1      -9.294   9.533  64.265  1.00  0.00    -0.286 F  
HETATM   35  C   UNL     1      -7.007   9.992  67.052  1.00  0.00    -0.088 A  
ENDBRANCH  28  29
ENDBRANCH  22  28
ENDBRANCH  12  19
ENDBRANCH   4   7
ENDBRANCH   2   3
TORSDOF 5
ENDMDL
MODEL       83
REMARK 921   NORMALIZED FREE ENERGY PREDICTED BY IDOCK:   -5.94 KCAL/MOL
REMARK 922        TOTAL FREE ENERGY PREDICTED BY IDOCK:   -8.49 KCAL/MOL
REMARK 923 INTER-LIGAND FREE ENERGY PREDICTED BY IDOCK:   -7.61 KCAL/MOL
REMARK 924 INTRA-LIGAND FREE ENERGY PREDICTED BY IDOCK:   -0.88 KCAL/MOL
REMARK 927      BINDING AFFINITY PREDICTED BY RF-SCORE:    0.00 PKD
ROOT
HETATM    1  C   UNL     1      -9.976   5.132  69.828  1.00  0.00    -0.243 C  
HETATM    2  O   UNL     1      -9.028   6.032  69.257  1.00  0.00    -0.122 OA 
ENDROOT
BRANCH   2   3
HETATM    3  C   UNL     1      -7.878   6.170  69.974  1.00  0.00    -0.106 C  
HETATM    4  N   UNL     1      -7.507   7.494  70.151  1.00  0.00    -0.084 N  
HETATM    5  O   UNL     1      -7.233   5.222  70.409  1.00  0.00    -0.058 OA 
HETATM    6  C   UNL     1      -6.335   7.844  70.930  1.00  0.00    -0.037 C  
BRANCH   4   7
HETATM    7  C   UNL     1      -8.333   8.563  69.708  1.00  0.00    -0.124 A  
HETATM    8  C   UNL     1      -9.460   8.965  70.419  1.00  0.00    -0.195 A  
HETATM    9  N   UNL     1      -9.936   8.249  71.520  1.00  0.00    -0.185 NA 
HETATM   10  N   UNL     1     -10.204  10.014  70.055  1.00  0.00    -0.260 NA 
HETATM   11  H1  UNL     1     -10.762   8.544  72.041  1.00  0.00     0.000 HD 
HETATM   12  C   UNL     1      -9.827  10.668  68.940  1.00  0.00    -0.201 A  
HETATM   13  H2  UNL     1      -9.168   8.151  72.183  1.00  0.00     0.000 HD 
HETATM   14  N   UNL     1      -8.772  10.338  68.162  1.00  0.00    -0.122 NA 
HETATM   15  H2  UNL     1      -7.147   7.947  67.432  1.00  0.00     0.000 HD 
HETATM   16  H1  UNL     1      -6.781   9.452  66.863  1.00  0.00     0.000 HD 
HETATM   17  C   UNL     1      -8.039   9.289  68.560  1.00  0.00    -0.106 A  
HETATM   18  N   UNL     1      -6.997   8.918  67.706  1.00  0.00    -0.074 NA 
BRANCH  12  19
HETATM   19  C   UNL     1     -10.623  11.846  68.544  1.00  0.00    -0.222 A  
HETATM   20  C   UNL     1     -11.774  13.354  67.352  1.00  0.00    -0.373 A  
HETATM   21  N   UNL     1     -10.912  12.854  69.401  1.00  0.00    -0.068 NA 
HETATM   22  N   UNL     1     -11.660  13.713  68.665  1.00  0.00    -0.305 NA 
HETATM   23  C   UNL     1     -11.914  12.114  64.971  1.00  0.00    -0.343 A  
HETATM   24  N   UNL     1     -12.377  14.054  66.371  1.00  0.00    -0.461 NA 
HETATM   25  C   UNL     1     -11.178  12.105  67.252  1.00  0.00    -0.366 A  
HETATM   26  C   UNL     1     -12.412  13.390  65.194  1.00  0.00    -0.459 A  
HETATM   27  C   UNL     1     -11.268  11.446  66.013  1.00  0.00    -0.177 A  
BRANCH  22  28
HETATM   28  C   UNL     1     -12.205  14.921  69.267  1.00  0.00    -0.186 C  
BRANCH  28  29
HETATM   29  C   UNL     1     -12.254  14.881  70.776  1.00  0.00    -0.387 A  
HETATM   30  C   UNL     1     -13.367  14.090  72.796  1.00  0.00    -0.603 A  
HETATM   31  C   UNL     1     -12.661  15.015  73.562  1.00  0.00    -0.667 A  
HETATM   32  C   UNL     1     -13.154  14.026  71.420  1.00  0.00    -0.353 A  
HETATM   33  C   UNL     1     -11.721  15.842  72.950  1.00  0.00    -0.492 A  
HETATM   34  F   UNL     1     -13.867  13.143  70.706  1.00  0.00     0.272 F  
HETATM   35  C   UNL     1     -11.517  15.778  71.567  1.00  0.00    -0.504 A  
ENDBRANCH  28  29
ENDBRANCH  22  28
ENDBRANCH  12  19
ENDBRANCH   4   7
ENDBRANCH   2   3
TORSDOF 5
ENDMDL
MODEL       84
REMARK 921   NORMALIZED FREE ENERGY PREDICTED BY IDOCK:   -5.93 KCAL/MOL
REMARK 922        TOTAL FREE ENERGY PREDICTED BY IDOCK:   -8.47 KCAL/MOL
REMARK 923 INTER-LIGAND FREE ENERGY PREDICTED BY IDOCK:   -7.60 KCAL/MOL
REMARK 924 INTRA-LIGAND FREE ENERGY PREDICTED BY IDOCK:   -0.87 KCAL/MOL
REMARK 927      BINDING AFFINITY PREDICTED BY RF-SCORE:    0.00 PKD
ROOT
HETATM    1  C   UNL     1      -8.673   7.482  74.177  1.00  0.00    -0.235 C  
HETATM    2  O   UNL     1      -9.553   7.954  73.159  1.00  0.00    -0.248 OA 
ENDROOT
BRANCH   2   3
HETATM    3  C   UNL     1     -10.655   7.178  72.961  1.00  0.00    -0.308 C  
HETATM    4  N   UNL     1     -11.374   7.536  71.831  1.00  0.00    -0.252 N  
HETATM    5  O   UNL     1     -10.982   6.264  73.710  1.00  0.00    -0.133 OA 
HETATM    6  C   UNL     1     -12.553   6.795  71.428  1.00  0.00    -0.297 C  
BRANCH   4   7
HETATM    7  C   UNL     1     -10.907   8.543  70.942  1.00  0.00    -0.232 A  
HETATM    8  C   UNL     1     -11.399   9.845  70.981  1.00  0.00    -0.386 A  
HETATM    9  N   UNL     1     -12.486  10.202  71.782  1.00  0.00    -0.393 NA 
HETATM   10  N   UNL     1     -10.918  10.820  70.203  1.00  0.00    -0.228 NA 
HETATM   11  H1  UNL     1     -12.847  11.155  71.811  1.00  0.00     0.000 HD 
HETATM   12  C   UNL     1      -9.933  10.484  69.349  1.00  0.00    -0.196 A  
HETATM   13  H2  UNL     1     -12.273   9.921  72.738  1.00  0.00     0.000 HD 
HETATM   14  N   UNL     1      -9.410   9.245  69.209  1.00  0.00    -0.155 NA 
HETATM   15  H2  UNL     1     -10.192   6.393  69.589  1.00  0.00     0.000 HD 
HETATM   16  H1  UNL     1      -8.669   6.820  69.122  1.00  0.00     0.000 HD 
HETATM   17  C   UNL     1      -9.905   8.293  70.012  1.00  0.00    -0.182 A  
HETATM   18  N   UNL     1      -9.404   7.004  69.805  1.00  0.00    -0.147 NA 
BRANCH  12  19
HETATM   19  C   UNL     1      -9.374  11.558  68.505  1.00  0.00    -0.170 A  
HETATM   20  C   UNL     1      -7.987  13.052  67.576  1.00  0.00    -0.177 A  
HETATM   21  N   UNL     1     -10.135  12.299  67.665  1.00  0.00    -0.198 NA 
HETATM   22  N   UNL     1      -9.254  13.145  67.075  1.00  0.00    -0.226 NA 
HETATM   23  C   UNL     1      -5.649  12.329  68.688  1.00  0.00    -0.053 A  
HETATM   24  N   UNL     1      -6.929  13.822  67.250  1.00  0.00    -0.136 NA 
HETATM   25  C   UNL     1      -8.007  11.977  68.452  1.00  0.00    -0.152 A  
HETATM   26  C   UNL     1      -5.782  13.422  67.843  1.00  0.00    -0.129 A  
HETATM   27  C   UNL     1      -6.782  11.585  69.020  1.00  0.00    -0.098 A  
BRANCH  22  28
HETATM   28  C   UNL     1      -9.701  14.085  66.057  1.00  0.00    -0.258 C  
BRANCH  28  29
HETATM   29  C   UNL     1     -10.609  13.472  65.018  1.00  0.00    -0.382 A  
HETATM   30  C   UNL     1     -12.871  12.864  64.338  1.00  0.00    -0.235 A  
HETATM   31  C   UNL     1     -12.362  12.050  63.330  1.00  0.00    -0.635 A  
HETATM   32  C   UNL     1     -11.997  13.570  65.164  1.00  0.00    -0.368 A  
HETATM   33  C   UNL     1     -10.984  11.977  63.132  1.00  0.00    -0.269 A  
HETATM   34  F   UNL     1     -12.516  14.326  66.142  1.00  0.00    -0.440 F  
HETATM   35  C   UNL     1     -10.111  12.682  63.970  1.00  0.00    -0.280 A  
ENDBRANCH  28  29
ENDBRANCH  22  28
ENDBRANCH  12  19
ENDBRANCH   4   7
ENDBRANCH   2   3
TORSDOF 5
ENDMDL
MODEL       85
REMARK 921   NORMALIZED FREE ENERGY PREDICTED BY IDOCK:   -5.92 KCAL/MOL
REMARK 922        TOTAL FREE ENERGY PREDICTED BY IDOCK:   -8.45 KCAL/MOL
REMARK 923 INTER-LIGAND FREE ENERGY PREDICTED BY IDOCK:   -7.76 KCAL/MOL
REMARK 924 INTRA-LIGAND FREE ENERGY PREDICTED BY IDOCK:   -0.69 KCAL/MOL
REMARK 927      BINDING AFFINITY PREDICTED BY RF-SCORE:    0.00 PKD
ROOT
HETATM    1  C   UNL     1      -7.283   8.055  64.253  1.00  0.00    -0.086 C  
HETATM    2  O   UNL     1      -8.368   7.282  64.763  1.00  0.00    -0.093 OA 
ENDROOT
BRANCH   2   3
HETATM    3  C   UNL     1      -7.997   6.250  65.571  1.00  0.00    -0.115 C  
HETATM    4  N   UNL     1      -8.199   6.516  66.916  1.00  0.00    -0.112 N  
HETATM    5  O   UNL     1      -7.523   5.199  65.152  1.00  0.00    -0.070 OA 
HETATM    6  C   UNL     1      -7.907   5.519  67.927  1.00  0.00    -0.096 C  
BRANCH   4   7
HETATM    7  C   UNL     1      -8.835   7.711  67.349  1.00  0.00    -0.124 A  
HETATM    8  C   UNL     1     -10.220   7.849  67.352  1.00  0.00    -0.251 A  
HETATM    9  N   UNL     1     -11.061   6.888  66.785  1.00  0.00    -0.597 NA 
HETATM   10  N   UNL     1     -10.835   8.938  67.825  1.00  0.00    -0.125 NA 
HETATM   11  H1  UNL     1     -12.075   6.988  66.787  1.00  0.00     0.000 HD 
HETATM   12  C   UNL     1     -10.046   9.925  68.290  1.00  0.00    -0.161 A  
HETATM   13  H2  UNL     1     -10.836   5.989  67.211  1.00  0.00     0.000 HD 
HETATM   14  N   UNL     1      -8.695   9.905  68.300  1.00  0.00    -0.118 NA 
HETATM   15  H2  UNL     1      -6.430   8.658  66.815  1.00  0.00     0.000 HD 
HETATM   16  H1  UNL     1      -6.180   9.615  68.135  1.00  0.00     0.000 HD 
HETATM   17  C   UNL     1      -8.109   8.795  67.831  1.00  0.00    -0.107 A  
HETATM   18  N   UNL     1      -6.712   8.820  67.782  1.00  0.00    -0.065 NA 
BRANCH  12  19
HETATM   19  C   UNL     1     -10.713  11.120  68.842  1.00  0.00    -0.207 A  
HETATM   20  C   UNL     1     -12.003  12.483  70.066  1.00  0.00    -0.299 A  
HETATM   21  N   UNL     1     -10.586  12.350  68.288  1.00  0.00    -0.215 NA 
HETATM   22  N   UNL     1     -11.325  13.156  69.090  1.00  0.00    -0.279 NA 
HETATM   23  C   UNL     1     -12.912  10.774  71.932  1.00  0.00    -0.524 A  
HETATM   24  N   UNL     1     -12.880  13.003  70.948  1.00  0.00    -0.202 NA 
HETATM   25  C   UNL     1     -11.569  11.168  69.986  1.00  0.00    -0.421 A  
HETATM   26  C   UNL     1     -13.312  12.102  71.858  1.00  0.00    -0.318 A  
HETATM   27  C   UNL     1     -12.028  10.277  70.973  1.00  0.00    -0.483 A  
BRANCH  22  28
HETATM   28  C   UNL     1     -11.397  14.587  68.835  1.00  0.00    -0.274 C  
BRANCH  28  29
HETATM   29  C   UNL     1     -11.220  14.957  67.382  1.00  0.00    -0.343 A  
HETATM   30  C   UNL     1     -10.373  16.541  65.732  1.00  0.00    -0.359 A  
HETATM   31  C   UNL     1     -11.133  15.930  64.738  1.00  0.00    -0.397 A  
HETATM   32  C   UNL     1     -10.416  16.049  67.036  1.00  0.00    -0.307 A  
HETATM   33  C   UNL     1     -11.900  14.808  65.047  1.00  0.00    -0.343 A  
HETATM   34  F   UNL     1      -9.694  16.674  67.977  1.00  0.00    -0.228 F  
HETATM   35  C   UNL     1     -11.946  14.323  66.360  1.00  0.00    -0.438 A  
ENDBRANCH  28  29
ENDBRANCH  22  28
ENDBRANCH  12  19
ENDBRANCH   4   7
ENDBRANCH   2   3
TORSDOF 5
ENDMDL
MODEL       86
REMARK 921   NORMALIZED FREE ENERGY PREDICTED BY IDOCK:   -5.91 KCAL/MOL
REMARK 922        TOTAL FREE ENERGY PREDICTED BY IDOCK:   -8.44 KCAL/MOL
REMARK 923 INTER-LIGAND FREE ENERGY PREDICTED BY IDOCK:   -7.50 KCAL/MOL
REMARK 924 INTRA-LIGAND FREE ENERGY PREDICTED BY IDOCK:   -0.93 KCAL/MOL
REMARK 927      BINDING AFFINITY PREDICTED BY RF-SCORE:    0.00 PKD
ROOT
HETATM    1  C   UNL     1     -10.740   6.817  69.183  1.00  0.00    -0.253 C  
HETATM    2  O   UNL     1     -10.273   7.380  67.959  1.00  0.00    -0.175 OA 
ENDROOT
BRANCH   2   3
HETATM    3  C   UNL     1      -9.040   6.949  67.573  1.00  0.00    -0.118 C  
HETATM    4  N   UNL     1      -8.232   7.972  67.102  1.00  0.00    -0.116 N  
HETATM    5  O   UNL     1      -8.686   5.776  67.627  1.00  0.00    -0.110 OA 
HETATM    6  C   UNL     1      -6.866   7.716  66.689  1.00  0.00    -0.066 C  
BRANCH   4   7
HETATM    7  C   UNL     1      -8.653   9.330  67.142  1.00  0.00    -0.128 A  
HETATM    8  C   UNL     1      -9.289   9.936  66.062  1.00  0.00    -0.188 A  
HETATM    9  N   UNL     1      -9.409   9.302  64.823  1.00  0.00    -0.444 NA 
HETATM   10  N   UNL     1      -9.756  11.187  66.111  1.00  0.00    -0.210 NA 
HETATM   11  H1  UNL     1      -9.874   9.746  64.031  1.00  0.00     0.000 HD 
HETATM   12  C   UNL     1      -9.568  11.860  67.262  1.00  0.00    -0.177 A  
HETATM   13  H2  UNL     1      -9.854   8.398  64.978  1.00  0.00     0.000 HD 
HETATM   14  N   UNL     1      -8.936  11.376  68.354  1.00  0.00    -0.168 NA 
HETATM   15  H2  UNL     1      -6.850   9.369  69.068  1.00  0.00     0.000 HD 
HETATM   16  H1  UNL     1      -7.655  10.231  70.221  1.00  0.00     0.000 HD 
HETATM   17  C   UNL     1      -8.489  10.115  68.278  1.00  0.00    -0.115 A  
HETATM   18  N   UNL     1      -7.775   9.655  69.388  1.00  0.00    -0.091 NA 
BRANCH  12  19
HETATM   19  C   UNL     1     -10.105  13.232  67.339  1.00  0.00    -0.233 A  
HETATM   20  C   UNL     1     -11.226  15.063  67.980  1.00  0.00    -0.316 A  
HETATM   21  N   UNL     1      -9.885  14.159  66.376  1.00  0.00    -0.286 NA 
HETATM   22  N   UNL     1     -10.522  15.268  66.828  1.00  0.00    -0.287 NA 
HETATM   23  C   UNL     1     -12.227  14.243  70.336  1.00  0.00    -0.411 A  
HETATM   24  N   UNL     1     -12.024  15.950  68.609  1.00  0.00    -0.241 NA 
HETATM   25  C   UNL     1     -10.917  13.773  68.385  1.00  0.00    -0.275 A  
HETATM   26  C   UNL     1     -12.507  15.485  69.782  1.00  0.00    -0.156 A  
HETATM   27  C   UNL     1     -11.423  13.349  69.627  1.00  0.00    -0.274 A  
BRANCH  22  28
HETATM   28  C   UNL     1     -10.471  16.509  66.069  1.00  0.00    -0.310 C  
BRANCH  28  29
HETATM   29  C   UNL     1      -9.677  17.603  66.743  1.00  0.00    -0.300 A  
HETATM   30  C   UNL     1      -7.530  18.385  67.595  1.00  0.00    -0.228 A  
HETATM   31  C   UNL     1      -8.166  19.407  68.294  1.00  0.00    -0.372 A  
HETATM   32  C   UNL     1      -8.284  17.501  66.824  1.00  0.00    -0.244 A  
HETATM   33  C   UNL     1      -9.548  19.561  68.186  1.00  0.00    -0.457 A  
HETATM   34  F   UNL     1      -7.646  16.511  66.183  1.00  0.00    -0.307 F  
HETATM   35  C   UNL     1     -10.301  18.666  67.417  1.00  0.00    -0.447 A  
ENDBRANCH  28  29
ENDBRANCH  22  28
ENDBRANCH  12  19
ENDBRANCH   4   7
ENDBRANCH   2   3
TORSDOF 5
ENDMDL
MODEL       87
REMARK 921   NORMALIZED FREE ENERGY PREDICTED BY IDOCK:   -5.90 KCAL/MOL
REMARK 922        TOTAL FREE ENERGY PREDICTED BY IDOCK:   -8.43 KCAL/MOL
REMARK 923 INTER-LIGAND FREE ENERGY PREDICTED BY IDOCK:   -7.65 KCAL/MOL
REMARK 924 INTRA-LIGAND FREE ENERGY PREDICTED BY IDOCK:   -0.78 KCAL/MOL
REMARK 927      BINDING AFFINITY PREDICTED BY RF-SCORE:    0.00 PKD
ROOT
HETATM    1  C   UNL     1      -7.818   8.427  74.230  1.00  0.00    -0.182 C  
HETATM    2  O   UNL     1      -9.073   8.153  73.608  1.00  0.00    -0.257 OA 
ENDROOT
BRANCH   2   3
HETATM    3  C   UNL     1      -9.430   6.840  73.610  1.00  0.00    -0.178 C  
HETATM    4  N   UNL     1     -10.168   6.476  72.494  1.00  0.00    -0.181 N  
HETATM    5  O   UNL     1      -9.139   6.060  74.512  1.00  0.00    -0.132 OA 
HETATM    6  C   UNL     1     -10.600   5.107  72.296  1.00  0.00    -0.218 C  
BRANCH   4   7
HETATM    7  C   UNL     1     -10.405   7.391  71.432  1.00  0.00    -0.194 A  
HETATM    8  C   UNL     1     -11.508   8.240  71.423  1.00  0.00    -0.269 A  
HETATM    9  N   UNL     1     -12.528   8.138  72.371  1.00  0.00    -0.532 NA 
HETATM   10  N   UNL     1     -11.704   9.155  70.469  1.00  0.00    -0.208 NA 
HETATM   11  H1  UNL     1     -13.336   8.760  72.366  1.00  0.00     0.000 HD 
HETATM   12  C   UNL     1     -10.786   9.212  69.485  1.00  0.00    -0.180 A  
HETATM   13  H2  UNL     1     -12.101   8.193  73.295  1.00  0.00     0.000 HD 
HETATM   14  N   UNL     1      -9.701   8.413  69.383  1.00  0.00    -0.175 NA 
HETATM   15  H2  UNL     1      -8.799   5.693  70.206  1.00  0.00     0.000 HD 
HETATM   16  H1  UNL     1      -7.796   6.738  69.417  1.00  0.00     0.000 HD 
HETATM   17  C   UNL     1      -9.526   7.514  70.362  1.00  0.00    -0.161 A  
HETATM   18  N   UNL     1      -8.441   6.648  70.202  1.00  0.00    -0.134 NA 
BRANCH  12  19
HETATM   19  C   UNL     1     -10.976  10.238  68.442  1.00  0.00    -0.260 A  
HETATM   20  C   UNL     1     -10.872  11.391  66.523  1.00  0.00    -0.283 A  
HETATM   21  N   UNL     1     -11.623  11.405  68.673  1.00  0.00    -0.293 NA 
HETATM   22  N   UNL     1     -11.597  12.045  67.478  1.00  0.00    -0.450 NA 
HETATM   23  C   UNL     1      -9.582   9.634  64.950  1.00  0.00    -0.244 A  
HETATM   24  N   UNL     1     -10.596  11.825  65.277  1.00  0.00    -0.269 NA 
HETATM   25  C   UNL     1     -10.518  10.174  67.088  1.00  0.00    -0.305 A  
HETATM   26  C   UNL     1      -9.940  10.908  64.531  1.00  0.00    -0.317 A  
HETATM   27  C   UNL     1      -9.861   9.246  66.261  1.00  0.00    -0.361 A  
BRANCH  22  28
HETATM   28  C   UNL     1     -12.245  13.339  67.317  1.00  0.00    -0.205 C  
BRANCH  28  29
HETATM   29  C   UNL     1     -11.775  14.383  68.301  1.00  0.00    -0.376 A  
HETATM   30  C   UNL     1      -9.913  15.481  69.430  1.00  0.00    -0.277 A  
HETATM   31  C   UNL     1     -10.789  16.041  70.356  1.00  0.00    -0.295 A  
HETATM   32  C   UNL     1     -10.410  14.668  68.412  1.00  0.00    -0.237 A  
HETATM   33  C   UNL     1     -12.159  15.813  70.235  1.00  0.00    -0.371 A  
HETATM   34  F   UNL     1      -9.539  14.124  67.550  1.00  0.00    -0.208 F  
HETATM   35  C   UNL     1     -12.651  14.990  69.216  1.00  0.00     0.101 A  
ENDBRANCH  28  29
ENDBRANCH  22  28
ENDBRANCH  12  19
ENDBRANCH   4   7
ENDBRANCH   2   3
TORSDOF 5
ENDMDL
MODEL       88
REMARK 921   NORMALIZED FREE ENERGY PREDICTED BY IDOCK:   -5.90 KCAL/MOL
REMARK 922        TOTAL FREE ENERGY PREDICTED BY IDOCK:   -8.42 KCAL/MOL
REMARK 923 INTER-LIGAND FREE ENERGY PREDICTED BY IDOCK:   -7.33 KCAL/MOL
REMARK 924 INTRA-LIGAND FREE ENERGY PREDICTED BY IDOCK:   -1.09 KCAL/MOL
REMARK 927      BINDING AFFINITY PREDICTED BY RF-SCORE:    0.00 PKD
ROOT
HETATM    1  C   UNL     1      -5.588  18.092  69.971  1.00  0.00    -0.242 C  
HETATM    2  O   UNL     1      -6.764  17.902  69.186  1.00  0.00    -0.245 OA 
ENDROOT
BRANCH   2   3
HETATM    3  C   UNL     1      -7.628  18.954  69.199  1.00  0.00    -0.175 C  
HETATM    4  N   UNL     1      -8.782  18.717  68.468  1.00  0.00    -0.330 N  
HETATM    5  O   UNL     1      -7.403  20.007  69.788  1.00  0.00    -0.121 OA 
HETATM    6  C   UNL     1      -9.842  19.703  68.403  1.00  0.00    -0.432 C  
BRANCH   4   7
HETATM    7  C   UNL     1      -9.039  17.449  67.878  1.00  0.00    -0.255 A  
HETATM    8  C   UNL     1      -8.662  17.156  66.570  1.00  0.00    -0.261 A  
HETATM    9  N   UNL     1      -8.155  18.132  65.709  1.00  0.00    -0.500 NA 
HETATM   10  N   UNL     1      -8.830  15.946  66.026  1.00  0.00    -0.319 NA 
HETATM   11  H1  UNL     1      -7.879  17.917  64.751  1.00  0.00     0.000 HD 
HETATM   12  C   UNL     1      -9.408  15.009  66.801  1.00  0.00    -0.251 A  
HETATM   13  H2  UNL     1      -7.359  18.570  66.171  1.00  0.00     0.000 HD 
HETATM   14  N   UNL     1      -9.839  15.200  68.068  1.00  0.00    -0.212 NA 
HETATM   15  H2  UNL     1     -10.818  17.400  69.826  1.00  0.00     0.000 HD 
HETATM   16  H1  UNL     1     -10.607  15.865  70.393  1.00  0.00     0.000 HD 
HETATM   17  C   UNL     1      -9.645  16.420  68.588  1.00  0.00    -0.240 A  
HETATM   18  N   UNL     1     -10.162  16.621  69.871  1.00  0.00    -0.031 NA 
BRANCH  12  19
HETATM   19  C   UNL     1      -9.573  13.661  66.223  1.00  0.00    -0.239 A  
HETATM   20  C   UNL     1     -10.330  11.909  65.050  1.00  0.00    -0.289 A  
HETATM   21  N   UNL     1      -8.832  12.599  66.620  1.00  0.00    -0.173 NA 
HETATM   22  N   UNL     1      -9.272  11.576  65.847  1.00  0.00    -0.221 NA 
HETATM   23  C   UNL     1     -12.194  13.095  63.518  1.00  0.00    -0.552 A  
HETATM   24  N   UNL     1     -11.029  11.082  64.246  1.00  0.00    -0.219 NA 
HETATM   25  C   UNL     1     -10.504  13.276  65.208  1.00  0.00    -0.324 A  
HETATM   26  C   UNL     1     -11.958  11.727  63.506  1.00  0.00    -0.380 A  
HETATM   27  C   UNL     1     -11.465  13.901  64.394  1.00  0.00    -0.376 A  
BRANCH  22  28
HETATM   28  C   UNL     1      -8.670  10.255  65.956  1.00  0.00    -0.150 C  
BRANCH  28  29
HETATM   29  C   UNL     1      -7.507  10.036  65.019  1.00  0.00    -0.139 A  
HETATM   30  C   UNL     1      -5.141  10.375  64.533  1.00  0.00    -0.135 A  
HETATM   31  C   UNL     1      -5.347  10.001  63.208  1.00  0.00    -0.102 A  
HETATM   32  C   UNL     1      -6.213  10.383  65.424  1.00  0.00    -0.127 A  
HETATM   33  C   UNL     1      -6.617   9.601  62.793  1.00  0.00    -0.103 A  
HETATM   34  F   UNL     1      -5.989  10.772  66.687  1.00  0.00    -0.056 F  
HETATM   35  C   UNL     1      -7.691   9.618  63.691  1.00  0.00    -0.129 A  
ENDBRANCH  28  29
ENDBRANCH  22  28
ENDBRANCH  12  19
ENDBRANCH   4   7
ENDBRANCH   2   3
TORSDOF 5
ENDMDL
MODEL       89
REMARK 921   NORMALIZED FREE ENERGY PREDICTED BY IDOCK:   -5.88 KCAL/MOL
REMARK 922        TOTAL FREE ENERGY PREDICTED BY IDOCK:   -8.41 KCAL/MOL
REMARK 923 INTER-LIGAND FREE ENERGY PREDICTED BY IDOCK:   -7.38 KCAL/MOL
REMARK 924 INTRA-LIGAND FREE ENERGY PREDICTED BY IDOCK:   -1.03 KCAL/MOL
REMARK 927      BINDING AFFINITY PREDICTED BY RF-SCORE:    0.00 PKD
ROOT
HETATM    1  C   UNL     1      -9.613   6.962  66.748  1.00  0.00    -0.168 C  
HETATM    2  O   UNL     1      -9.395   8.272  66.229  1.00  0.00    -0.191 OA 
ENDROOT
BRANCH   2   3
HETATM    3  C   UNL     1      -8.515   8.329  65.190  1.00  0.00    -0.146 C  
HETATM    4  N   UNL     1      -8.208   9.626  64.811  1.00  0.00    -0.133 N  
HETATM    5  O   UNL     1      -8.051   7.334  64.641  1.00  0.00    -0.127 OA 
HETATM    6  C   UNL     1      -7.252   9.889  63.754  1.00  0.00    -0.125 C  
BRANCH   4   7
HETATM    7  C   UNL     1      -8.699  10.747  65.535  1.00  0.00    -0.187 A  
HETATM    8  C   UNL     1      -8.066  11.216  66.683  1.00  0.00    -0.159 A  
HETATM    9  N   UNL     1      -7.011  10.525  67.282  1.00  0.00    -0.085 NA 
HETATM   10  N   UNL     1      -8.473  12.312  67.332  1.00  0.00    -0.167 NA 
HETATM   11  H1  UNL     1      -6.547  10.868  68.123  1.00  0.00     0.000 HD 
HETATM   12  C   UNL     1      -9.551  12.947  66.834  1.00  0.00    -0.240 A  
HETATM   13  H2  UNL     1      -6.295  10.375  66.572  1.00  0.00     0.000 HD 
HETATM   14  N   UNL     1     -10.255  12.556  65.748  1.00  0.00    -0.266 NA 
HETATM   15  H2  UNL     1     -10.889  10.071  64.227  1.00  0.00     0.000 HD 
HETATM   16  H1  UNL     1     -11.415  11.552  63.727  1.00  0.00     0.000 HD 
HETATM   17  C   UNL     1      -9.815  11.460  65.113  1.00  0.00    -0.260 A  
HETATM   18  N   UNL     1     -10.595  11.029  64.037  1.00  0.00    -0.370 NA 
BRANCH  12  19
HETATM   19  C   UNL     1      -9.991  14.174  67.524  1.00  0.00    -0.236 A  
HETATM   20  C   UNL     1     -10.037  16.210  68.459  1.00  0.00    -0.241 A  
HETATM   21  N   UNL     1     -11.210  14.290  68.105  1.00  0.00    -0.263 NA 
HETATM   22  N   UNL     1     -11.225  15.551  68.602  1.00  0.00    -0.304 NA 
HETATM   23  C   UNL     1      -7.628  17.154  67.729  1.00  0.00    -0.185 A  
HETATM   24  N   UNL     1      -9.728  17.434  68.932  1.00  0.00    -0.275 NA 
HETATM   25  C   UNL     1      -9.235  15.376  67.694  1.00  0.00    -0.187 A  
HETATM   26  C   UNL     1      -8.505  17.857  68.544  1.00  0.00    -0.298 A  
HETATM   27  C   UNL     1      -7.983  15.876  67.295  1.00  0.00    -0.212 A  
BRANCH  22  28
HETATM   28  C   UNL     1     -12.410  16.068  69.272  1.00  0.00     0.239 C  
BRANCH  28  29
HETATM   29  C   UNL     1     -12.581  15.561  70.684  1.00  0.00    -0.493 A  
HETATM   30  C   UNL     1     -11.886  15.651  73.020  1.00  0.00    -0.558 A  
HETATM   31  C   UNL     1     -12.557  14.459  73.278  1.00  0.00    -0.337 A  
HETATM   32  C   UNL     1     -11.909  16.193  71.735  1.00  0.00    -0.506 A  
HETATM   33  C   UNL     1     -13.278  13.838  72.259  1.00  0.00    -0.563 A  
HETATM   34  F   UNL     1     -11.232  17.328  71.511  1.00  0.00     0.026 F  
HETATM   35  C   UNL     1     -13.291  14.383  70.969  1.00  0.00    -0.359 A  
ENDBRANCH  28  29
ENDBRANCH  22  28
ENDBRANCH  12  19
ENDBRANCH   4   7
ENDBRANCH   2   3
TORSDOF 5
ENDMDL
MODEL       90
REMARK 921   NORMALIZED FREE ENERGY PREDICTED BY IDOCK:   -5.88 KCAL/MOL
REMARK 922        TOTAL FREE ENERGY PREDICTED BY IDOCK:   -8.40 KCAL/MOL
REMARK 923 INTER-LIGAND FREE ENERGY PREDICTED BY IDOCK:   -7.67 KCAL/MOL
REMARK 924 INTRA-LIGAND FREE ENERGY PREDICTED BY IDOCK:   -0.73 KCAL/MOL
REMARK 927      BINDING AFFINITY PREDICTED BY RF-SCORE:    0.00 PKD
ROOT
HETATM    1  C   UNL     1     -10.847  19.628  65.390  1.00  0.00    -0.010 C  
HETATM    2  O   UNL     1     -10.928  19.481  66.807  1.00  0.00    -0.436 OA 
ENDROOT
BRANCH   2   3
HETATM    3  C   UNL     1      -9.866  19.992  67.490  1.00  0.00    -0.416 C  
HETATM    4  N   UNL     1      -9.084  19.015  68.085  1.00  0.00    -0.309 N  
HETATM    5  O   UNL     1      -9.632  21.193  67.577  1.00  0.00    -0.321 OA 
HETATM    6  C   UNL     1      -7.881  19.363  68.817  1.00  0.00    -0.357 C  
BRANCH   4   7
HETATM    7  C   UNL     1      -9.341  17.632  67.882  1.00  0.00    -0.268 A  
HETATM    8  C   UNL     1     -10.201  16.914  68.708  1.00  0.00    -0.311 A  
HETATM    9  N   UNL     1     -10.737  17.463  69.875  1.00  0.00    -0.127 NA 
HETATM   10  N   UNL     1     -10.511  15.632  68.486  1.00  0.00    -0.231 NA 
HETATM   11  H1  UNL     1     -11.368  16.938  70.481  1.00  0.00     0.000 HD 
HETATM   12  C   UNL     1      -9.931  15.045  67.422  1.00  0.00    -0.226 A  
HETATM   13  H2  UNL     1     -11.204  18.334  69.622  1.00  0.00     0.000 HD 
HETATM   14  N   UNL     1      -9.059  15.641  66.580  1.00  0.00    -0.275 NA 
HETATM   15  H2  UNL     1      -7.061  17.854  66.573  1.00  0.00     0.000 HD 
HETATM   16  H1  UNL     1      -7.408  16.994  65.209  1.00  0.00     0.000 HD 
HETATM   17  C   UNL     1      -8.779  16.930  66.822  1.00  0.00    -0.232 A  
HETATM   18  N   UNL     1      -7.821  17.510  65.986  1.00  0.00    -0.513 NA 
BRANCH  12  19
HETATM   19  C   UNL     1     -10.287  13.639  67.149  1.00  0.00    -0.250 A  
HETATM   20  C   UNL     1     -10.820  11.723  66.116  1.00  0.00    -0.291 A  
HETATM   21  N   UNL     1     -10.571  12.752  68.133  1.00  0.00    -0.222 NA 
HETATM   22  N   UNL     1     -10.824  11.593  67.475  1.00  0.00    -0.224 NA 
HETATM   23  C   UNL     1     -10.455  12.419  63.545  1.00  0.00    -0.430 A  
HETATM   24  N   UNL     1     -11.124  10.772  65.211  1.00  0.00     0.122 NA 
HETATM   25  C   UNL     1     -10.398  13.021  65.864  1.00  0.00    -0.296 A  
HETATM   26  C   UNL     1     -10.933  11.175  63.935  1.00  0.00    -0.197 A  
HETATM   27  C   UNL     1     -10.188  13.380  64.521  1.00  0.00    -0.321 A  
BRANCH  22  28
HETATM   28  C   UNL     1     -11.130  10.376  68.213  1.00  0.00    -0.281 C  
BRANCH  28  29
HETATM   29  C   UNL     1     -10.068   9.309  68.096  1.00  0.00    -0.222 A  
HETATM   30  C   UNL     1      -7.782   8.596  68.560  1.00  0.00    -0.100 A  
HETATM   31  C   UNL     1      -7.908   7.556  67.643  1.00  0.00    -0.113 A  
HETATM   32  C   UNL     1      -8.858   9.454  68.784  1.00  0.00    -0.132 A  
HETATM   33  C   UNL     1      -9.120   7.360  66.984  1.00  0.00    -0.155 A  
HETATM   34  F   UNL     1      -8.699  10.461  69.654  1.00  0.00    -0.178 F  
HETATM   35  C   UNL     1     -10.195   8.230  67.207  1.00  0.00    -0.344 A  
ENDBRANCH  28  29
ENDBRANCH  22  28
ENDBRANCH  12  19
ENDBRANCH   4   7
ENDBRANCH   2   3
TORSDOF 5
ENDMDL
MODEL       91
REMARK 921   NORMALIZED FREE ENERGY PREDICTED BY IDOCK:   -5.86 KCAL/MOL
REMARK 922        TOTAL FREE ENERGY PREDICTED BY IDOCK:   -8.38 KCAL/MOL
REMARK 923 INTER-LIGAND FREE ENERGY PREDICTED BY IDOCK:   -7.53 KCAL/MOL
REMARK 924 INTRA-LIGAND FREE ENERGY PREDICTED BY IDOCK:   -0.85 KCAL/MOL
REMARK 927      BINDING AFFINITY PREDICTED BY RF-SCORE:    0.00 PKD
ROOT
HETATM    1  C   UNL     1     -12.827   9.653  72.253  1.00  0.00    -0.325 C  
HETATM    2  O   UNL     1     -12.215   8.590  71.525  1.00  0.00    -0.292 OA 
ENDROOT
BRANCH   2   3
HETATM    3  C   UNL     1     -11.301   7.872  72.235  1.00  0.00    -0.337 C  
HETATM    4  N   UNL     1     -10.221   7.462  71.469  1.00  0.00    -0.193 N  
HETATM    5  O   UNL     1     -11.426   7.607  73.426  1.00  0.00    -0.229 OA 
HETATM    6  C   UNL     1      -9.121   6.726  72.060  1.00  0.00    -0.138 C  
BRANCH   4   7
HETATM    7  C   UNL     1     -10.074   7.869  70.114  1.00  0.00    -0.194 A  
HETATM    8  C   UNL     1      -9.541   9.109  69.773  1.00  0.00    -0.181 A  
HETATM    9  N   UNL     1      -9.268  10.087  70.731  1.00  0.00    -0.250 NA 
HETATM   10  N   UNL     1      -9.329   9.477  68.505  1.00  0.00    -0.137 NA 
HETATM   11  H1  UNL     1      -8.877  10.996  70.481  1.00  0.00     0.000 HD 
HETATM   12  C   UNL     1      -9.675   8.592  67.551  1.00  0.00    -0.162 A  
HETATM   13  H2  UNL     1      -8.659   9.671  71.435  1.00  0.00     0.000 HD 
HETATM   14  N   UNL     1     -10.228   7.379  67.775  1.00  0.00    -0.183 NA 
HETATM   15  H2  UNL     1     -11.899   5.987  69.815  1.00  0.00     0.000 HD 
HETATM   16  H1  UNL     1     -11.309   5.198  68.492  1.00  0.00     0.000 HD 
HETATM   17  C   UNL     1     -10.417   7.035  69.057  1.00  0.00    -0.207 A  
HETATM   18  N   UNL     1     -11.057   5.811  69.268  1.00  0.00    -0.282 NA 
BRANCH  12  19
HETATM   19  C   UNL     1      -9.418   8.974  66.149  1.00  0.00    -0.253 A  
HETATM   20  C   UNL     1      -8.650   9.018  64.045  1.00  0.00    -0.140 A  
HETATM   21  N   UNL     1      -9.872  10.131  65.611  1.00  0.00    -0.262 NA 
HETATM   22  N   UNL     1      -9.445  10.092  64.325  1.00  0.00    -0.293 NA 
HETATM   23  C   UNL     1      -7.375   6.654  63.924  1.00  0.00    -0.078 A  
HETATM   24  N   UNL     1      -8.011   8.764  62.885  1.00  0.00    -0.151 NA 
HETATM   25  C   UNL     1      -8.673   8.226  65.184  1.00  0.00    -0.089 A  
HETATM   26  C   UNL     1      -7.379   7.569  62.880  1.00  0.00    -0.099 A  
HETATM   27  C   UNL     1      -8.023   6.981  65.116  1.00  0.00    -0.128 A  
BRANCH  22  28
HETATM   28  C   UNL     1      -9.784  11.165  63.401  1.00  0.00    -0.352 C  
BRANCH  28  29
HETATM   29  C   UNL     1     -10.641  12.247  64.012  1.00  0.00    -0.434 A  
HETATM   30  C   UNL     1     -12.768  13.440  64.042  1.00  0.00    -0.045 A  
HETATM   31  C   UNL     1     -12.205  14.449  64.820  1.00  0.00    -0.458 A  
HETATM   32  C   UNL     1     -11.989  12.351  63.653  1.00  0.00    -0.539 A  
HETATM   33  C   UNL     1     -10.878  14.341  65.234  1.00  0.00    -0.363 A  
HETATM   34  F   UNL     1     -12.552  11.409  62.883  1.00  0.00    -0.488 F  
HETATM   35  C   UNL     1     -10.099  13.249  64.833  1.00  0.00    -0.247 A  
ENDBRANCH  28  29
ENDBRANCH  22  28
ENDBRANCH  12  19
ENDBRANCH   4   7
ENDBRANCH   2   3
TORSDOF 5
ENDMDL
MODEL       92
REMARK 921   NORMALIZED FREE ENERGY PREDICTED BY IDOCK:   -5.86 KCAL/MOL
REMARK 922        TOTAL FREE ENERGY PREDICTED BY IDOCK:   -8.38 KCAL/MOL
REMARK 923 INTER-LIGAND FREE ENERGY PREDICTED BY IDOCK:   -7.38 KCAL/MOL
REMARK 924 INTRA-LIGAND FREE ENERGY PREDICTED BY IDOCK:   -1.00 KCAL/MOL
REMARK 927      BINDING AFFINITY PREDICTED BY RF-SCORE:    0.00 PKD
ROOT
HETATM    1  C   UNL     1      -6.955  16.808  68.105  1.00  0.00    -0.157 C  
HETATM    2  O   UNL     1      -7.525  16.174  66.962  1.00  0.00    -0.186 OA 
ENDROOT
BRANCH   2   3
HETATM    3  C   UNL     1      -8.411  16.943  66.272  1.00  0.00    -0.287 C  
HETATM    4  N   UNL     1      -9.686  16.401  66.235  1.00  0.00    -0.289 N  
HETATM    5  O   UNL     1      -8.110  18.002  65.730  1.00  0.00    -0.525 OA 
HETATM    6  C   UNL     1     -10.778  17.100  65.586  1.00  0.00    -0.136 C  
BRANCH   4   7
HETATM    7  C   UNL     1     -10.010  15.218  66.954  1.00  0.00    -0.239 A  
HETATM    8  C   UNL     1      -9.922  13.956  66.372  1.00  0.00    -0.297 A  
HETATM    9  N   UNL     1      -9.665  13.785  65.010  1.00  0.00    -0.573 NA 
HETATM   10  N   UNL     1     -10.152  12.831  67.056  1.00  0.00    -0.237 NA 
HETATM   11  H1  UNL     1      -9.600  12.861  64.584  1.00  0.00     0.000 HD 
HETATM   12  C   UNL     1     -10.499  12.968  68.350  1.00  0.00    -0.252 A  
HETATM   13  H2  UNL     1      -8.807  14.289  64.790  1.00  0.00     0.000 HD 
HETATM   14  N   UNL     1     -10.645  14.144  68.999  1.00  0.00    -0.239 NA 
HETATM   15  H2  UNL     1     -11.306  16.992  68.415  1.00  0.00     0.000 HD 
HETATM   16  H1  UNL     1     -10.904  16.489  69.933  1.00  0.00     0.000 HD 
HETATM   17  C   UNL     1     -10.395  15.254  68.289  1.00  0.00    -0.234 A  
HETATM   18  N   UNL     1     -10.621  16.462  68.953  1.00  0.00    -0.285 NA 
BRANCH  12  19
HETATM   19  C   UNL     1     -10.727  11.732  69.124  1.00  0.00    -0.124 A  
HETATM   20  C   UNL     1     -11.466  10.255  70.638  1.00  0.00    -0.349 A  
HETATM   21  N   UNL     1     -10.022  10.595  68.909  1.00  0.00    -0.196 NA 
HETATM   22  N   UNL     1     -10.540   9.709  69.796  1.00  0.00    -0.227 NA 
HETATM   23  C   UNL     1     -13.373  11.701  71.862  1.00  0.00    -0.403 A  
HETATM   24  N   UNL     1     -12.080   9.645  71.671  1.00  0.00    -0.389 NA 
HETATM   25  C   UNL     1     -11.672  11.549  70.181  1.00  0.00    -0.395 A  
HETATM   26  C   UNL     1     -13.022  10.417  72.257  1.00  0.00    -0.144 A  
HETATM   27  C   UNL     1     -12.683  12.299  70.807  1.00  0.00    -0.212 A  
BRANCH  22  28
HETATM   28  C   UNL     1     -10.058   8.336  69.836  1.00  0.00    -0.195 C  
BRANCH  28  29
HETATM   29  C   UNL     1      -8.577   8.217  70.108  1.00  0.00    -0.128 A  
HETATM   30  C   UNL     1      -6.705   8.623  71.617  1.00  0.00    -0.084 A  
HETATM   31  C   UNL     1      -5.804   8.374  70.586  1.00  0.00    -0.032 A  
HETATM   32  C   UNL     1      -8.075   8.535  71.374  1.00  0.00    -0.140 A  
HETATM   33  C   UNL     1      -6.279   8.004  69.328  1.00  0.00    -0.035 A  
HETATM   34  F   UNL     1      -8.919   8.805  72.381  1.00  0.00    -0.292 F  
HETATM   35  C   UNL     1      -7.656   7.926  69.088  1.00  0.00    -0.098 A  
ENDBRANCH  28  29
ENDBRANCH  22  28
ENDBRANCH  12  19
ENDBRANCH   4   7
ENDBRANCH   2   3
TORSDOF 5
ENDMDL
MODEL       93
REMARK 921   NORMALIZED FREE ENERGY PREDICTED BY IDOCK:   -5.83 KCAL/MOL
REMARK 922        TOTAL FREE ENERGY PREDICTED BY IDOCK:   -8.34 KCAL/MOL
REMARK 923 INTER-LIGAND FREE ENERGY PREDICTED BY IDOCK:   -7.80 KCAL/MOL
REMARK 924 INTRA-LIGAND FREE ENERGY PREDICTED BY IDOCK:   -0.54 KCAL/MOL
REMARK 927      BINDING AFFINITY PREDICTED BY RF-SCORE:    0.00 PKD
ROOT
HETATM    1  C   UNL     1      -7.630  15.970  66.596  1.00  0.00    -0.165 C  
HETATM    2  O   UNL     1      -8.863  15.278  66.782  1.00  0.00    -0.232 OA 
ENDROOT
BRANCH   2   3
HETATM    3  C   UNL     1      -9.835  15.604  65.885  1.00  0.00    -0.350 C  
HETATM    4  N   UNL     1     -10.835  14.648  65.798  1.00  0.00    -0.311 N  
HETATM    5  O   UNL     1      -9.822  16.633  65.217  1.00  0.00    -0.496 OA 
HETATM    6  C   UNL     1     -11.981  14.842  64.932  1.00  0.00    -0.358 C  
BRANCH   4   7
HETATM    7  C   UNL     1     -10.856  13.516  66.658  1.00  0.00    -0.283 A  
HETATM    8  C   UNL     1     -10.320  12.290  66.272  1.00  0.00    -0.232 A  
HETATM    9  N   UNL     1      -9.875  12.053  64.970  1.00  0.00    -0.366 NA 
HETATM   10  N   UNL     1     -10.266  11.237  67.095  1.00  0.00    -0.196 NA 
HETATM   11  H1  UNL     1      -9.483  11.155  64.687  1.00  0.00     0.000 HD 
HETATM   12  C   UNL     1     -10.778  11.406  68.329  1.00  0.00    -0.204 A  
HETATM   13  H2  UNL     1      -9.196  12.776  64.737  1.00  0.00     0.000 HD 
HETATM   14  N   UNL     1     -11.349  12.541  68.789  1.00  0.00    -0.271 NA 
HETATM   15  H2  UNL     1     -12.787  14.940  67.756  1.00  0.00     0.000 HD 
HETATM   16  H1  UNL     1     -12.418  14.771  69.355  1.00  0.00     0.000 HD 
HETATM   17  C   UNL     1     -11.377  13.581  67.944  1.00  0.00    -0.289 A  
HETATM   18  N   UNL     1     -12.035  14.723  68.410  1.00  0.00    -0.277 NA 
BRANCH  12  19
HETATM   19  C   UNL     1     -10.697  10.260  69.256  1.00  0.00    -0.234 A  
HETATM   20  C   UNL     1     -11.095   8.822  70.928  1.00  0.00    -0.268 A  
HETATM   21  N   UNL     1      -9.676   9.371  69.233  1.00  0.00    -0.166 NA 
HETATM   22  N   UNL     1      -9.983   8.483  70.211  1.00  0.00    -0.181 NA 
HETATM   23  C   UNL     1     -13.436   9.763  71.855  1.00  0.00    -0.485 A  
HETATM   24  N   UNL     1     -11.587   8.184  72.009  1.00  0.00    -0.306 NA 
HETATM   25  C   UNL     1     -11.632   9.930  70.287  1.00  0.00    -0.319 A  
HETATM   26  C   UNL     1     -12.759   8.702  72.440  1.00  0.00    -0.362 A  
HETATM   27  C   UNL     1     -12.866  10.411  70.758  1.00  0.00    -0.450 A  
BRANCH  22  28
HETATM   28  C   UNL     1      -9.125   7.335  70.462  1.00  0.00    -0.158 C  
BRANCH  28  29
HETATM   29  C   UNL     1      -8.570   7.284  71.865  1.00  0.00    -0.123 A  
HETATM   30  C   UNL     1      -6.990   8.158  73.505  1.00  0.00    -0.155 A  
HETATM   31  C   UNL     1      -7.214   7.056  74.326  1.00  0.00    -0.102 A  
HETATM   32  C   UNL     1      -7.671   8.267  72.293  1.00  0.00    -0.126 A  
HETATM   33  C   UNL     1      -8.144   6.090  73.946  1.00  0.00    -0.107 A  
HETATM   34  F   UNL     1      -7.416   9.326  71.512  1.00  0.00    -0.111 F  
HETATM   35  C   UNL     1      -8.818   6.200  72.724  1.00  0.00    -0.123 A  
ENDBRANCH  28  29
ENDBRANCH  22  28
ENDBRANCH  12  19
ENDBRANCH   4   7
ENDBRANCH   2   3
TORSDOF 5
ENDMDL
MODEL       94
REMARK 921   NORMALIZED FREE ENERGY PREDICTED BY IDOCK:   -5.79 KCAL/MOL
REMARK 922        TOTAL FREE ENERGY PREDICTED BY IDOCK:   -8.28 KCAL/MOL
REMARK 923 INTER-LIGAND FREE ENERGY PREDICTED BY IDOCK:   -7.34 KCAL/MOL
REMARK 924 INTRA-LIGAND FREE ENERGY PREDICTED BY IDOCK:   -0.94 KCAL/MOL
REMARK 927      BINDING AFFINITY PREDICTED BY RF-SCORE:    0.00 PKD
ROOT
HETATM    1  C   UNL     1     -11.052  16.249  69.973  1.00  0.00    -0.348 C  
HETATM    2  O   UNL     1     -11.382  15.480  68.818  1.00  0.00    -0.292 OA 
ENDROOT
BRANCH   2   3
HETATM    3  C   UNL     1     -10.878  15.968  67.651  1.00  0.00    -0.311 C  
HETATM    4  N   UNL     1     -10.344  14.981  66.837  1.00  0.00    -0.262 N  
HETATM    5  O   UNL     1     -10.886  17.159  67.356  1.00  0.00    -0.284 OA 
HETATM    6  C   UNL     1      -9.803  15.301  65.531  1.00  0.00    -0.326 C  
BRANCH   4   7
HETATM    7  C   UNL     1     -10.439  13.605  67.180  1.00  0.00    -0.264 A  
HETATM    8  C   UNL     1     -11.588  12.861  66.926  1.00  0.00    -0.368 A  
HETATM    9  N   UNL     1     -12.767  13.452  66.469  1.00  0.00    -0.162 NA 
HETATM   10  N   UNL     1     -11.666  11.549  67.175  1.00  0.00    -0.577 NA 
HETATM   11  H1  UNL     1     -13.609  12.907  66.283  1.00  0.00     0.000 HD 
HETATM   12  C   UNL     1     -10.575  10.968  67.709  1.00  0.00    -0.211 A  
HETATM   13  H2  UNL     1     -12.544  13.977  65.624  1.00  0.00     0.000 HD 
HETATM   14  N   UNL     1      -9.425  11.605  68.023  1.00  0.00    -0.178 NA 
HETATM   15  H2  UNL     1      -8.472  14.326  68.784  1.00  0.00     0.000 HD 
HETATM   16  H1  UNL     1      -7.426  13.069  68.567  1.00  0.00     0.000 HD 
HETATM   17  C   UNL     1      -9.375  12.917  67.751  1.00  0.00    -0.203 A  
HETATM   18  N   UNL     1      -8.207  13.574  68.148  1.00  0.00    -0.154 NA 
BRANCH  12  19
HETATM   19  C   UNL     1     -10.638   9.515  67.961  1.00  0.00    -0.230 A  
HETATM   20  C   UNL     1     -10.635   7.510  68.960  1.00  0.00    -0.180 A  
HETATM   21  N   UNL     1     -10.697   8.602  66.962  1.00  0.00    -0.216 NA 
HETATM   22  N   UNL     1     -10.759   7.408  67.604  1.00  0.00    -0.229 NA 
HETATM   23  C   UNL     1     -10.606   8.236  71.548  1.00  0.00    -0.296 A  
HETATM   24  N   UNL     1     -10.570   6.494  69.845  1.00  0.00    -0.214 NA 
HETATM   25  C   UNL     1     -10.632   8.869  69.237  1.00  0.00    -0.219 A  
HETATM   26  C   UNL     1     -10.548   6.914  71.130  1.00  0.00    -0.222 A  
HETATM   27  C   UNL     1     -10.637   9.251  70.590  1.00  0.00    -0.324 A  
BRANCH  22  28
HETATM   28  C   UNL     1     -10.880   6.170  66.850  1.00  0.00    -0.335 C  
BRANCH  28  29
HETATM   29  C   UNL     1      -9.559   5.618  66.367  1.00  0.00    -0.175 A  
HETATM   30  C   UNL     1      -8.349   3.848  65.206  1.00  0.00    -0.105 A  
HETATM   31  C   UNL     1      -7.144   4.315  65.724  1.00  0.00    -0.067 A  
HETATM   32  C   UNL     1      -9.538   4.503  65.523  1.00  0.00    -0.185 A  
HETATM   33  C   UNL     1      -7.133   5.456  66.525  1.00  0.00    -0.069 A  
HETATM   34  F   UNL     1     -10.685   4.014  65.030  1.00  0.00    -0.234 F  
HETATM   35  C   UNL     1      -8.332   6.105  66.847  1.00  0.00    -0.106 A  
ENDBRANCH  28  29
ENDBRANCH  22  28
ENDBRANCH  12  19
ENDBRANCH   4   7
ENDBRANCH   2   3
TORSDOF 5
ENDMDL
MODEL       95
REMARK 921   NORMALIZED FREE ENERGY PREDICTED BY IDOCK:   -5.78 KCAL/MOL
REMARK 922        TOTAL FREE ENERGY PREDICTED BY IDOCK:   -8.27 KCAL/MOL
REMARK 923 INTER-LIGAND FREE ENERGY PREDICTED BY IDOCK:   -7.51 KCAL/MOL
REMARK 924 INTRA-LIGAND FREE ENERGY PREDICTED BY IDOCK:   -0.76 KCAL/MOL
REMARK 927      BINDING AFFINITY PREDICTED BY RF-SCORE:    0.00 PKD
ROOT
HETATM    1  C   UNL     1      -8.747  14.236  67.483  1.00  0.00    -0.199 C  
HETATM    2  O   UNL     1      -9.110  13.311  66.460  1.00  0.00    -0.213 OA 
ENDROOT
BRANCH   2   3
HETATM    3  C   UNL     1     -10.260  13.620  65.801  1.00  0.00    -0.308 C  
HETATM    4  N   UNL     1     -11.111  12.534  65.658  1.00  0.00    -0.292 N  
HETATM    5  O   UNL     1     -10.514  14.740  65.369  1.00  0.00    -0.325 OA 
HETATM    6  C   UNL     1     -12.407  12.678  65.024  1.00  0.00    -0.497 C  
BRANCH   4   7
HETATM    7  C   UNL     1     -10.817  11.277  66.253  1.00  0.00    -0.238 A  
HETATM    8  C   UNL     1     -10.103  10.292  65.577  1.00  0.00    -0.281 A  
HETATM    9  N   UNL     1      -9.771  10.414  64.226  1.00  0.00    -0.314 NA 
HETATM   10  N   UNL     1      -9.755   9.134  66.148  1.00  0.00    -0.270 NA 
HETATM   11  H1  UNL     1      -9.248   9.692  63.730  1.00  0.00     0.000 HD 
HETATM   12  C   UNL     1     -10.146   8.946  67.423  1.00  0.00    -0.227 A  
HETATM   13  H2  UNL     1      -9.273  11.295  64.106  1.00  0.00     0.000 HD 
HETATM   14  N   UNL     1     -10.869   9.822  68.155  1.00  0.00    -0.237 NA 
HETATM   15  H2  UNL     1     -12.849  12.018  67.765  1.00  0.00     0.000 HD 
HETATM   16  H1  UNL     1     -12.275  11.622  69.261  1.00  0.00     0.000 HD 
HETATM   17  C   UNL     1     -11.192  10.978  67.558  1.00  0.00    -0.302 A  
HETATM   18  N   UNL     1     -12.000  11.841  68.303  1.00  0.00    -0.528 NA 
BRANCH  12  19
HETATM   19  C   UNL     1      -9.743   7.685  68.075  1.00  0.00    -0.152 A  
HETATM   20  C   UNL     1      -9.343   5.521  68.496  1.00  0.00    -0.121 A  
HETATM   21  N   UNL     1      -9.345   7.625  69.368  1.00  0.00    -0.153 NA 
HETATM   22  N   UNL     1      -9.051   6.316  69.567  1.00  0.00    -0.137 NA 
HETATM   23  C   UNL     1      -9.837   4.439  66.085  1.00  0.00    -0.243 A  
HETATM   24  N   UNL     1      -9.243   4.178  68.434  1.00  0.00    -0.134 NA 
HETATM   25  C   UNL     1      -9.722   6.385  67.479  1.00  0.00    -0.137 A  
HETATM   26  C   UNL     1      -9.510   3.685  67.204  1.00  0.00    -0.194 A  
HETATM   27  C   UNL     1      -9.962   5.823  66.212  1.00  0.00    -0.129 A  
BRANCH  22  28
HETATM   28  C   UNL     1      -8.537   5.861  70.850  1.00  0.00    -0.131 C  
BRANCH  28  29
HETATM   29  C   UNL     1      -9.515   5.018  71.634  1.00  0.00    -0.198 A  
HETATM   30  C   UNL     1     -11.387   4.922  73.194  1.00  0.00    -0.395 A  
HETATM   31  C   UNL     1     -11.155   3.565  73.406  1.00  0.00    -0.291 A  
HETATM   32  C   UNL     1     -10.575   5.631  72.310  1.00  0.00    -0.221 A  
HETATM   33  C   UNL     1     -10.138   2.920  72.705  1.00  0.00    -0.232 A  
HETATM   34  F   UNL     1     -10.806   6.941  72.146  1.00  0.00    -0.219 F  
HETATM   35  C   UNL     1      -9.321   3.640  71.824  1.00  0.00    -0.195 A  
ENDBRANCH  28  29
ENDBRANCH  22  28
ENDBRANCH  12  19
ENDBRANCH   4   7
ENDBRANCH   2   3
TORSDOF 5
ENDMDL
MODEL       96
REMARK 921   NORMALIZED FREE ENERGY PREDICTED BY IDOCK:   -5.75 KCAL/MOL
REMARK 922        TOTAL FREE ENERGY PREDICTED BY IDOCK:   -8.24 KCAL/MOL
REMARK 923 INTER-LIGAND FREE ENERGY PREDICTED BY IDOCK:   -7.55 KCAL/MOL
REMARK 924 INTRA-LIGAND FREE ENERGY PREDICTED BY IDOCK:   -0.69 KCAL/MOL
REMARK 927      BINDING AFFINITY PREDICTED BY RF-SCORE:    0.00 PKD
ROOT
HETATM    1  C   UNL     1     -10.239   3.857  64.361  1.00  0.00    -0.230 C  
HETATM    2  O   UNL     1      -9.712   4.946  65.116  1.00  0.00    -0.104 OA 
ENDROOT
BRANCH   2   3
HETATM    3  C   UNL     1      -8.418   4.787  65.510  1.00  0.00    -0.127 C  
HETATM    4  N   UNL     1      -7.832   5.970  65.934  1.00  0.00    -0.103 N  
HETATM    5  O   UNL     1      -7.830   3.711  65.482  1.00  0.00    -0.087 OA 
HETATM    6  C   UNL     1      -6.472   5.992  66.436  1.00  0.00    -0.046 C  
BRANCH   4   7
HETATM    7  C   UNL     1      -8.580   7.175  66.034  1.00  0.00    -0.152 A  
HETATM    8  C   UNL     1      -9.474   7.401  67.077  1.00  0.00    -0.158 A  
HETATM    9  N   UNL     1      -9.810   6.403  67.994  1.00  0.00    -0.121 NA 
HETATM   10  N   UNL     1     -10.129   8.557  67.226  1.00  0.00    -0.226 NA 
HETATM   11  H1  UNL     1     -10.465   6.568  68.758  1.00  0.00     0.000 HD 
HETATM   12  C   UNL     1      -9.901   9.506  66.298  1.00  0.00    -0.266 A  
HETATM   13  H2  UNL     1      -8.944   6.049  68.399  1.00  0.00     0.000 HD 
HETATM   14  N   UNL     1      -9.080   9.376  65.233  1.00  0.00    -0.221 NA 
HETATM   15  H2  UNL     1      -7.974   7.243  63.467  1.00  0.00     0.000 HD 
HETATM   16  H1  UNL     1      -7.531   8.824  63.301  1.00  0.00     0.000 HD 
HETATM   17  C   UNL     1      -8.429   8.209  65.118  1.00  0.00    -0.116 A  
HETATM   18  N   UNL     1      -7.642   8.064  63.973  1.00  0.00    -0.116 NA 
BRANCH  12  19
HETATM   19  C   UNL     1     -10.595  10.798  66.468  1.00  0.00    -0.218 A  
HETATM   20  C   UNL     1     -11.624  12.748  66.070  1.00  0.00    -0.383 A  
HETATM   21  N   UNL     1     -10.783  11.373  67.680  1.00  0.00    -0.204 NA 
HETATM   22  N   UNL     1     -11.463  12.514  67.406  1.00  0.00    -0.319 NA 
HETATM   23  C   UNL     1     -11.903  12.634  63.399  1.00  0.00    -0.594 A  
HETATM   24  N   UNL     1     -12.175  13.838  65.500  1.00  0.00    -0.413 NA 
HETATM   25  C   UNL     1     -11.142  11.615  65.430  1.00  0.00    -0.299 A  
HETATM   26  C   UNL     1     -12.284  13.733  64.156  1.00  0.00    -0.396 A  
HETATM   27  C   UNL     1     -11.305  11.545  64.035  1.00  0.00    -0.380 A  
BRANCH  22  28
HETATM   28  C   UNL     1     -11.891  13.396  68.482  1.00  0.00    -0.366 C  
BRANCH  28  29
HETATM   29  C   UNL     1     -10.976  14.576  68.705  1.00  0.00    -0.263 A  
HETATM   30  C   UNL     1     -10.716  16.897  69.406  1.00  0.00    -0.258 A  
HETATM   31  C   UNL     1      -9.449  16.942  68.830  1.00  0.00    -0.264 A  
HETATM   32  C   UNL     1     -11.462  15.720  69.347  1.00  0.00    -0.355 A  
HETATM   33  C   UNL     1      -8.923  15.799  68.231  1.00  0.00    -0.182 A  
HETATM   34  F   UNL     1     -12.688  15.715  69.888  1.00  0.00    -0.363 F  
HETATM   35  C   UNL     1      -9.680  14.622  68.167  1.00  0.00    -0.220 A  
ENDBRANCH  28  29
ENDBRANCH  22  28
ENDBRANCH  12  19
ENDBRANCH   4   7
ENDBRANCH   2   3
TORSDOF 5
ENDMDL
MODEL       97
REMARK 921   NORMALIZED FREE ENERGY PREDICTED BY IDOCK:   -5.74 KCAL/MOL
REMARK 922        TOTAL FREE ENERGY PREDICTED BY IDOCK:   -8.23 KCAL/MOL
REMARK 923 INTER-LIGAND FREE ENERGY PREDICTED BY IDOCK:   -7.44 KCAL/MOL
REMARK 924 INTRA-LIGAND FREE ENERGY PREDICTED BY IDOCK:   -0.79 KCAL/MOL
REMARK 927      BINDING AFFINITY PREDICTED BY RF-SCORE:    0.00 PKD
ROOT
HETATM    1  C   UNL     1     -13.161  11.876  63.710  1.00  0.00    -0.027 C  
HETATM    2  O   UNL     1     -13.040  12.644  64.906  1.00  0.00    -0.850 OA 
ENDROOT
BRANCH   2   3
HETATM    3  C   UNL     1     -12.331  13.798  64.767  1.00  0.00    -0.386 C  
HETATM    4  N   UNL     1     -11.156  13.805  65.503  1.00  0.00    -0.294 N  
HETATM    5  O   UNL     1     -12.700  14.739  64.071  1.00  0.00    -0.786 OA 
HETATM    6  C   UNL     1     -10.244  14.930  65.445  1.00  0.00    -0.379 C  
BRANCH   4   7
HETATM    7  C   UNL     1     -10.725  12.658  66.223  1.00  0.00    -0.256 A  
HETATM    8  C   UNL     1     -11.142  12.408  67.527  1.00  0.00    -0.266 A  
HETATM    9  N   UNL     1     -11.877  13.342  68.261  1.00  0.00    -0.351 NA 
HETATM   10  N   UNL     1     -10.804  11.298  68.191  1.00  0.00    -0.202 NA 
HETATM   11  H1  UNL     1     -12.182  13.159  69.217  1.00  0.00     0.000 HD 
HETATM   12  C   UNL     1     -10.013  10.421  67.543  1.00  0.00    -0.181 A  
HETATM   13  H2  UNL     1     -12.700  13.589  67.714  1.00  0.00     0.000 HD 
HETATM   14  N   UNL     1      -9.528  10.584  66.292  1.00  0.00    -0.172 NA 
HETATM   15  H2  UNL     1      -8.822  12.776  64.398  1.00  0.00     0.000 HD 
HETATM   16  H1  UNL     1      -8.716  11.187  63.966  1.00  0.00     0.000 HD 
HETATM   17  C   UNL     1      -9.894  11.702  65.649  1.00  0.00    -0.240 A  
HETATM   18  N   UNL     1      -9.326  11.889  64.387  1.00  0.00     0.109 NA 
BRANCH  12  19
HETATM   19  C   UNL     1      -9.658   9.178  68.254  1.00  0.00    -0.148 A  
HETATM   20  C   UNL     1      -8.577   7.635  69.467  1.00  0.00    -0.132 A  
HETATM   21  N   UNL     1     -10.408   8.052  68.179  1.00  0.00    -0.207 NA 
HETATM   22  N   UNL     1      -9.760   7.165  68.973  1.00  0.00    -0.149 NA 
HETATM   23  C   UNL     1      -6.497   9.075  70.375  1.00  0.00    -0.046 A  
HETATM   24  N   UNL     1      -7.680   6.951  70.206  1.00  0.00    -0.098 NA 
HETATM   25  C   UNL     1      -8.513   8.967  69.085  1.00  0.00    -0.132 A  
HETATM   26  C   UNL     1      -6.650   7.719  70.629  1.00  0.00    -0.038 A  
HETATM   27  C   UNL     1      -7.436   9.727  69.576  1.00  0.00    -0.101 A  
BRANCH  22  28
HETATM   28  C   UNL     1     -10.300   5.829  69.183  1.00  0.00    -0.248 C  
BRANCH  28  29
HETATM   29  C   UNL     1     -10.465   5.460  70.637  1.00  0.00    -0.329 A  
HETATM   30  C   UNL     1     -10.123   3.826  72.416  1.00  0.00    -0.237 A  
HETATM   31  C   UNL     1     -11.022   4.509  73.232  1.00  0.00    -0.369 A  
HETATM   32  C   UNL     1      -9.848   4.308  71.136  1.00  0.00    -0.180 A  
HETATM   33  C   UNL     1     -11.609   5.688  72.776  1.00  0.00    -0.289 A  
HETATM   34  F   UNL     1      -8.998   3.615  70.365  1.00  0.00    -0.112 F  
HETATM   35  C   UNL     1     -11.335   6.162  71.487  1.00  0.00    -0.340 A  
ENDBRANCH  28  29
ENDBRANCH  22  28
ENDBRANCH  12  19
ENDBRANCH   4   7
ENDBRANCH   2   3
TORSDOF 5
ENDMDL
MODEL       98
REMARK 921   NORMALIZED FREE ENERGY PREDICTED BY IDOCK:   -5.74 KCAL/MOL
REMARK 922        TOTAL FREE ENERGY PREDICTED BY IDOCK:   -8.22 KCAL/MOL
REMARK 923 INTER-LIGAND FREE ENERGY PREDICTED BY IDOCK:   -7.08 KCAL/MOL
REMARK 924 INTRA-LIGAND FREE ENERGY PREDICTED BY IDOCK:   -1.15 KCAL/MOL
REMARK 927      BINDING AFFINITY PREDICTED BY RF-SCORE:    0.00 PKD
ROOT
HETATM    1  C   UNL     1      -7.908  15.757  68.242  1.00  0.00    -0.129 C  
HETATM    2  O   UNL     1      -7.324  14.514  68.625  1.00  0.00    -0.113 OA 
ENDROOT
BRANCH   2   3
HETATM    3  C   UNL     1      -6.326  14.082  67.806  1.00  0.00    -0.159 C  
HETATM    4  N   UNL     1      -6.271  12.701  67.700  1.00  0.00    -0.133 N  
HETATM    5  O   UNL     1      -5.549  14.837  67.229  1.00  0.00    -0.298 OA 
HETATM    6  C   UNL     1      -5.304  12.055  66.834  1.00  0.00    -0.049 C  
BRANCH   4   7
HETATM    7  C   UNL     1      -7.248  11.870  68.314  1.00  0.00    -0.089 A  
HETATM    8  C   UNL     1      -8.485  11.630  67.724  1.00  0.00    -0.144 A  
HETATM    9  N   UNL     1      -8.904  12.311  66.578  1.00  0.00    -0.347 NA 
HETATM   10  N   UNL     1      -9.385  10.794  68.252  1.00  0.00    -0.154 NA 
HETATM   11  H1  UNL     1      -9.811  12.135  66.146  1.00  0.00     0.000 HD 
HETATM   12  C   UNL     1      -9.049  10.196  69.411  1.00  0.00    -0.203 A  
HETATM   13  H2  UNL     1      -8.189  12.185  65.863  1.00  0.00     0.000 HD 
HETATM   14  N   UNL     1      -7.891  10.386  70.080  1.00  0.00    -0.069 NA 
HETATM   15  H2  UNL     1      -5.783  12.466  70.426  1.00  0.00     0.000 HD 
HETATM   16  H1  UNL     1      -5.666  10.985  71.143  1.00  0.00     0.000 HD 
HETATM   17  C   UNL     1      -7.005  11.221  69.518  1.00  0.00    -0.089 A  
HETATM   18  N   UNL     1      -5.845  11.462  70.259  1.00  0.00    -0.141 NA 
BRANCH  12  19
HETATM   19  C   UNL     1     -10.021   9.248  69.989  1.00  0.00    -0.209 A  
HETATM   20  C   UNL     1     -11.764   8.366  71.087  1.00  0.00    -0.280 A  
HETATM   21  N   UNL     1      -9.851   7.905  69.939  1.00  0.00    -0.180 NA 
HETATM   22  N   UNL     1     -10.952   7.405  70.554  1.00  0.00    -0.248 NA 
HETATM   23  C   UNL     1     -13.134  10.588  71.725  1.00  0.00    -0.570 A  
HETATM   24  N   UNL     1     -12.873   8.168  71.827  1.00  0.00    -0.325 NA 
HETATM   25  C   UNL     1     -11.233   9.579  70.673  1.00  0.00    -0.364 A  
HETATM   26  C   UNL     1     -13.519   9.317  72.128  1.00  0.00    -0.473 A  
HETATM   27  C   UNL     1     -11.959  10.741  70.988  1.00  0.00    -0.409 A  
BRANCH  22  28
HETATM   28  C   UNL     1     -11.152   5.968  70.657  1.00  0.00    -0.301 C  
BRANCH  28  29
HETATM   29  C   UNL     1     -10.460   5.340  71.843  1.00  0.00    -0.282 A  
HETATM   30  C   UNL     1     -10.569   4.633  74.175  1.00  0.00    -0.348 A  
HETATM   31  C   UNL     1      -9.182   4.512  74.216  1.00  0.00    -0.116 A  
HETATM   32  C   UNL     1     -11.194   5.036  72.995  1.00  0.00    -0.310 A  
HETATM   33  C   UNL     1      -8.434   4.758  73.065  1.00  0.00    -0.103 A  
HETATM   34  F   UNL     1     -12.528   5.168  72.994  1.00  0.00    -0.288 F  
HETATM   35  C   UNL     1      -9.067   5.170  71.886  1.00  0.00    -0.154 A  
ENDBRANCH  28  29
ENDBRANCH  22  28
ENDBRANCH  12  19
ENDBRANCH   4   7
ENDBRANCH   2   3
TORSDOF 5
ENDMDL
MODEL       99
REMARK 921   NORMALIZED FREE ENERGY PREDICTED BY IDOCK:   -5.73 KCAL/MOL
REMARK 922        TOTAL FREE ENERGY PREDICTED BY IDOCK:   -8.22 KCAL/MOL
REMARK 923 INTER-LIGAND FREE ENERGY PREDICTED BY IDOCK:   -7.16 KCAL/MOL
REMARK 924 INTRA-LIGAND FREE ENERGY PREDICTED BY IDOCK:   -1.06 KCAL/MOL
REMARK 927      BINDING AFFINITY PREDICTED BY RF-SCORE:    0.00 PKD
ROOT
HETATM    1  C   UNL     1     -13.446   6.868  71.535  1.00  0.00    -0.198 C  
HETATM    2  O   UNL     1     -12.197   7.112  72.178  1.00  0.00    -0.284 OA 
ENDROOT
BRANCH   2   3
HETATM    3  C   UNL     1     -11.379   6.026  72.256  1.00  0.00    -0.303 C  
HETATM    4  N   UNL     1     -10.252   6.138  71.456  1.00  0.00    -0.199 N  
HETATM    5  O   UNL     1     -11.621   5.046  72.953  1.00  0.00    -0.272 OA 
HETATM    6  C   UNL     1      -9.240   5.100  71.442  1.00  0.00    -0.146 C  
BRANCH   4   7
HETATM    7  C   UNL     1      -9.969   7.330  70.735  1.00  0.00    -0.186 A  
HETATM    8  C   UNL     1      -9.354   8.425  71.336  1.00  0.00    -0.190 A  
HETATM    9  N   UNL     1      -9.123   8.481  72.713  1.00  0.00    -0.322 NA 
HETATM   10  N   UNL     1      -9.015   9.524  70.655  1.00  0.00    -0.223 NA 
HETATM   11  H1  UNL     1      -8.672   9.283  73.153  1.00  0.00     0.000 HD 
HETATM   12  C   UNL     1      -9.314   9.540  69.342  1.00  0.00    -0.180 A  
HETATM   13  H2  UNL     1      -8.597   7.647  72.974  1.00  0.00     0.000 HD 
HETATM   14  N   UNL     1      -9.938   8.546  68.672  1.00  0.00    -0.178 NA 
HETATM   15  H2  UNL     1     -11.842   6.309  69.183  1.00  0.00     0.000 HD 
HETATM   16  H1  UNL     1     -11.173   6.556  67.695  1.00  0.00     0.000 HD 
HETATM   17  C   UNL     1     -10.255   7.453  69.381  1.00  0.00    -0.201 A  
HETATM   18  N   UNL     1     -10.964   6.466  68.690  1.00  0.00    -0.321 NA 
BRANCH  12  19
HETATM   19  C   UNL     1      -8.918  10.735  68.573  1.00  0.00    -0.160 A  
HETATM   20  C   UNL     1      -7.738  12.420  67.685  1.00  0.00    -0.151 A  
HETATM   21  N   UNL     1      -9.810  11.498  67.897  1.00  0.00    -0.180 NA 
HETATM   22  N   UNL     1      -9.054  12.466  67.322  1.00  0.00    -0.180 NA 
HETATM   23  C   UNL     1      -5.254  11.769  68.480  1.00  0.00    -0.045 A  
HETATM   24  N   UNL     1      -6.774  13.299  67.346  1.00  0.00    -0.180 NA 
HETATM   25  C   UNL     1      -7.595  11.262  68.435  1.00  0.00    -0.120 A  
HETATM   26  C   UNL     1      -5.547  12.930  67.777  1.00  0.00    -0.130 A  
HETATM   27  C   UNL     1      -6.294  10.909  68.835  1.00  0.00    -0.046 A  
BRANCH  22  28
HETATM   28  C   UNL     1      -9.665  13.468  66.462  1.00  0.00    -0.283 C  
BRANCH  28  29
HETATM   29  C   UNL     1     -10.718  12.914  65.532  1.00  0.00    -0.301 A  
HETATM   30  C   UNL     1     -11.247  11.651  63.514  1.00  0.00    -0.462 A  
HETATM   31  C   UNL     1     -12.554  12.130  63.542  1.00  0.00    -0.621 A  
HETATM   32  C   UNL     1     -10.347  12.038  64.506  1.00  0.00    -0.296 A  
HETATM   33  C   UNL     1     -12.961  12.962  64.583  1.00  0.00    -0.204 A  
HETATM   34  F   UNL     1      -9.089  11.580  64.438  1.00  0.00    -0.127 F  
HETATM   35  C   UNL     1     -12.051  13.354  65.573  1.00  0.00    -0.467 A  
ENDBRANCH  28  29
ENDBRANCH  22  28
ENDBRANCH  12  19
ENDBRANCH   4   7
ENDBRANCH   2   3
TORSDOF 5
ENDMDL
MODEL      100
REMARK 921   NORMALIZED FREE ENERGY PREDICTED BY IDOCK:   -5.71 KCAL/MOL
REMARK 922        TOTAL FREE ENERGY PREDICTED BY IDOCK:   -8.19 KCAL/MOL
REMARK 923 INTER-LIGAND FREE ENERGY PREDICTED BY IDOCK:   -7.17 KCAL/MOL
REMARK 924 INTRA-LIGAND FREE ENERGY PREDICTED BY IDOCK:   -1.02 KCAL/MOL
REMARK 927      BINDING AFFINITY PREDICTED BY RF-SCORE:    0.00 PKD
ROOT
HETATM    1  C   UNL     1     -10.064   4.989  71.493  1.00  0.00    -0.196 C  
HETATM    2  O   UNL     1      -9.895   6.002  70.503  1.00  0.00    -0.173 OA 
ENDROOT
BRANCH   2   3
HETATM    3  C   UNL     1      -8.913   5.747  69.595  1.00  0.00    -0.128 C  
HETATM    4  N   UNL     1      -8.666   6.817  68.749  1.00  0.00    -0.125 N  
HETATM    5  O   UNL     1      -8.317   4.676  69.526  1.00  0.00    -0.074 OA 
HETATM    6  C   UNL     1      -7.621   6.751  67.746  1.00  0.00    -0.107 C  
BRANCH   4   7
HETATM    7  C   UNL     1      -9.317   8.068  68.925  1.00  0.00    -0.150 A  
HETATM    8  C   UNL     1      -8.983   8.932  69.964  1.00  0.00    -0.165 A  
HETATM    9  N   UNL     1      -8.105   8.559  70.985  1.00  0.00    -0.117 NA 
HETATM   10  N   UNL     1      -9.534  10.142  70.100  1.00  0.00    -0.061 NA 
HETATM   11  H1  UNL     1      -7.860   9.192  71.746  1.00  0.00     0.000 HD 
HETATM   12  C   UNL     1     -10.459  10.493  69.186  1.00  0.00    -0.228 A  
HETATM   13  H2  UNL     1      -7.238   8.246  70.549  1.00  0.00     0.000 HD 
HETATM   14  N   UNL     1     -10.877   9.717  68.161  1.00  0.00    -0.222 NA 
HETATM   15  H2  UNL     1     -11.124   6.832  67.452  1.00  0.00     0.000 HD 
HETATM   16  H1  UNL     1     -11.511   8.025  66.381  1.00  0.00     0.000 HD 
HETATM   17  C   UNL     1     -10.297   8.514  68.046  1.00  0.00    -0.217 A  
HETATM   18  N   UNL     1     -10.792   7.697  67.026  1.00  0.00    -0.277 NA 
BRANCH  12  19
HETATM   19  C   UNL     1     -11.053  11.838  69.307  1.00  0.00    -0.218 A  
HETATM   20  C   UNL     1     -12.264  13.594  69.994  1.00  0.00    -0.329 A  
HETATM   21  N   UNL     1     -10.845  12.815  68.392  1.00  0.00    -0.240 NA 
HETATM   22  N   UNL     1     -11.538  13.877  68.872  1.00  0.00    -0.292 NA 
HETATM   23  C   UNL     1     -13.293  12.631  72.283  1.00  0.00    -0.527 A  
HETATM   24  N   UNL     1     -13.113  14.420  70.638  1.00  0.00    -0.301 NA 
HETATM   25  C   UNL     1     -11.914  12.300  70.352  1.00  0.00    -0.349 A  
HETATM   26  C   UNL     1     -13.609  13.885  71.776  1.00  0.00    -0.385 A  
HETATM   27  C   UNL     1     -12.435  11.802  71.559  1.00  0.00    -0.208 A  
BRANCH  22  28
HETATM   28  C   UNL     1     -11.517  15.152  68.170  1.00  0.00    -0.342 C  
BRANCH  28  29
HETATM   29  C   UNL     1     -10.128  15.643  67.839  1.00  0.00    -0.225 A  
HETATM   30  C   UNL     1      -8.078  16.731  68.587  1.00  0.00    -0.251 A  
HETATM   31  C   UNL     1      -7.677  16.910  67.266  1.00  0.00    -0.196 A  
HETATM   32  C   UNL     1      -9.289  16.097  68.862  1.00  0.00    -0.235 A  
HETATM   33  C   UNL     1      -8.471  16.419  66.231  1.00  0.00    -0.372 A  
HETATM   34  F   UNL     1      -9.661  15.962  70.143  1.00  0.00    -0.176 F  
HETATM   35  C   UNL     1      -9.690  15.790  66.513  1.00  0.00    -0.285 A  
ENDBRANCH  28  29
ENDBRANCH  22  28
ENDBRANCH  12  19
ENDBRANCH   4   7
ENDBRANCH   2   3
TORSDOF 5
ENDMDL
MODEL      101
REMARK 921   NORMALIZED FREE ENERGY PREDICTED BY IDOCK:   -5.71 KCAL/MOL
REMARK 922        TOTAL FREE ENERGY PREDICTED BY IDOCK:   -8.19 KCAL/MOL
REMARK 923 INTER-LIGAND FREE ENERGY PREDICTED BY IDOCK:   -8.30 KCAL/MOL
REMARK 924 INTRA-LIGAND FREE ENERGY PREDICTED BY IDOCK:    0.11 KCAL/MOL
REMARK 927      BINDING AFFINITY PREDICTED BY RF-SCORE:    0.00 PKD
ROOT
HETATM    1  C   UNL     1     -10.544  16.749  70.055  1.00  0.00    -0.023 C  
HETATM    2  O   UNL     1     -10.811  15.572  70.816  1.00  0.00    -0.329 OA 
ENDROOT
BRANCH   2   3
HETATM    3  C   UNL     1     -12.060  15.520  71.356  1.00  0.00    -0.393 C  
HETATM    4  N   UNL     1     -12.840  14.507  70.820  1.00  0.00    -0.353 N  
HETATM    5  O   UNL     1     -12.457  16.295  72.221  1.00  0.00    -0.442 OA 
HETATM    6  C   UNL     1     -14.186  14.264  71.303  1.00  0.00    -0.102 C  
BRANCH   4   7
HETATM    7  C   UNL     1     -12.309  13.577  69.886  1.00  0.00    -0.224 A  
HETATM    8  C   UNL     1     -12.026  13.934  68.570  1.00  0.00    -0.359 A  
HETATM    9  N   UNL     1     -12.392  15.176  68.045  1.00  0.00    -0.359 NA 
HETATM   10  N   UNL     1     -11.458  13.092  67.701  1.00  0.00    -0.304 NA 
HETATM   11  H1  UNL     1     -12.184  15.438  67.082  1.00  0.00     0.000 HD 
HETATM   12  C   UNL     1     -11.182  11.853  68.151  1.00  0.00    -0.258 A  
HETATM   13  H2  UNL     1     -12.004  15.897  68.654  1.00  0.00     0.000 HD 
HETATM   14  N   UNL     1     -11.447  11.397  69.395  1.00  0.00    -0.282 NA 
HETATM   15  H2  UNL     1     -13.340  11.900  71.643  1.00  0.00     0.000 HD 
HETATM   16  H1  UNL     1     -12.116  10.800  71.768  1.00  0.00     0.000 HD 
HETATM   17  C   UNL     1     -12.006  12.269  70.246  1.00  0.00    -0.290 A  
HETATM   18  N   UNL     1     -12.339  11.760  71.504  1.00  0.00    -0.075 NA 
BRANCH  12  19
HETATM   19  C   UNL     1     -10.528  10.923  67.210  1.00  0.00    -0.232 A  
HETATM   20  C   UNL     1      -9.719   9.969  65.351  1.00  0.00    -0.302 A  
HETATM   21  N   UNL     1     -10.076   9.702  67.584  1.00  0.00    -0.181 NA 
HETATM   22  N   UNL     1      -9.538   9.183  66.453  1.00  0.00    -0.223 NA 
HETATM   23  C   UNL     1     -10.095  11.945  63.567  1.00  0.00    -0.464 A  
HETATM   24  N   UNL     1      -9.374   9.675  64.081  1.00  0.00    -0.178 NA 
HETATM   25  C   UNL     1     -10.289  11.145  65.817  1.00  0.00    -0.316 A  
HETATM   26  C   UNL     1      -9.592  10.697  63.224  1.00  0.00    -0.344 A  
HETATM   27  C   UNL     1     -10.469  12.186  64.890  1.00  0.00    -0.325 A  
BRANCH  22  28
HETATM   28  C   UNL     1      -8.900   7.875  66.470  1.00  0.00    -0.152 C  
BRANCH  28  29
HETATM   29  C   UNL     1      -9.263   7.035  67.672  1.00  0.00    -0.120 A  
HETATM   30  C   UNL     1     -11.004   6.002  69.032  1.00  0.00    -0.409 A  
HETATM   31  C   UNL     1     -10.089   5.787  70.060  1.00  0.00    -0.279 A  
HETATM   32  C   UNL     1     -10.585   6.614  67.851  1.00  0.00    -0.247 A  
HETATM   33  C   UNL     1      -8.755   6.151  69.884  1.00  0.00    -0.136 A  
HETATM   34  F   UNL     1     -11.494   6.831  66.890  1.00  0.00    -0.476 F  
HETATM   35  C   UNL     1      -8.342   6.772  68.699  1.00  0.00    -0.120 A  
ENDBRANCH  28  29
ENDBRANCH  22  28
ENDBRANCH  12  19
ENDBRANCH   4   7
ENDBRANCH   2   3
TORSDOF 5
ENDMDL
MODEL      102
REMARK 921   NORMALIZED FREE ENERGY PREDICTED BY IDOCK:   -5.69 KCAL/MOL
REMARK 922        TOTAL FREE ENERGY PREDICTED BY IDOCK:   -8.16 KCAL/MOL
REMARK 923 INTER-LIGAND FREE ENERGY PREDICTED BY IDOCK:   -7.44 KCAL/MOL
REMARK 924 INTRA-LIGAND FREE ENERGY PREDICTED BY IDOCK:   -0.72 KCAL/MOL
REMARK 927      BINDING AFFINITY PREDICTED BY RF-SCORE:    0.00 PKD
ROOT
HETATM    1  C   UNL     1      -8.448   7.709  71.966  1.00  0.00    -0.110 C  
HETATM    2  O   UNL     1      -8.358   7.917  70.558  1.00  0.00    -0.120 OA 
ENDROOT
BRANCH   2   3
HETATM    3  C   UNL     1      -8.840   6.891  69.803  1.00  0.00    -0.141 C  
HETATM    4  N   UNL     1      -9.820   7.290  68.908  1.00  0.00    -0.156 N  
HETATM    5  O   UNL     1      -8.453   5.731  69.912  1.00  0.00    -0.119 OA 
HETATM    6  C   UNL     1     -10.419   6.346  67.985  1.00  0.00    -0.220 C  
BRANCH   4   7
HETATM    7  C   UNL     1     -10.171   8.659  68.753  1.00  0.00    -0.207 A  
HETATM    8  C   UNL     1     -11.176   9.251  69.514  1.00  0.00     0.004 A  
HETATM    9  N   UNL     1     -12.004   8.506  70.356  1.00  0.00    -0.470 NA 
HETATM   10  N   UNL     1     -11.468  10.553  69.432  1.00  0.00    -0.260 NA 
HETATM   11  H1  UNL     1     -12.740   8.939  70.913  1.00  0.00     0.000 HD 
HETATM   12  C   UNL     1     -10.751  11.281  68.555  1.00  0.00    -0.201 A  
HETATM   13  H2  UNL     1     -11.406   7.975  70.989  1.00  0.00     0.000 HD 
HETATM   14  N   UNL     1      -9.780  10.797  67.749  1.00  0.00    -0.161 NA 
HETATM   15  H2  UNL     1      -8.983   8.243  66.434  1.00  0.00     0.000 HD 
HETATM   16  H1  UNL     1      -8.058   9.604  66.318  1.00  0.00     0.000 HD 
HETATM   17  C   UNL     1      -9.503   9.491  67.863  1.00  0.00    -0.132 A  
HETATM   18  N   UNL     1      -8.549   8.993  66.972  1.00  0.00    -0.116 NA 
BRANCH  12  19
HETATM   19  C   UNL     1     -11.043  12.726  68.477  1.00  0.00    -0.266 A  
HETATM   20  C   UNL     1     -11.768  14.795  68.939  1.00  0.00    -0.309 A  
HETATM   21  N   UNL     1     -10.782  13.466  67.373  1.00  0.00    -0.260 NA 
HETATM   22  N   UNL     1     -11.172  14.720  67.712  1.00  0.00    -0.300 NA 
HETATM   23  C   UNL     1     -12.620  14.477  71.469  1.00  0.00    -0.419 A  
HETATM   24  N   UNL     1     -12.332  15.883  69.499  1.00  0.00    -0.124 NA 
HETATM   25  C   UNL     1     -11.632  13.533  69.500  1.00  0.00    -0.355 A  
HETATM   26  C   UNL     1     -12.751  15.668  70.766  1.00  0.00    -0.431 A  
HETATM   27  C   UNL     1     -12.059  13.371  70.830  1.00  0.00    -0.333 A  
BRANCH  22  28
HETATM   28  C   UNL     1     -11.003  15.824  66.778  1.00  0.00    -0.192 C  
BRANCH  28  29
HETATM   29  C   UNL     1      -9.950  16.821  67.198  1.00  0.00    -0.274 A  
HETATM   30  C   UNL     1      -7.587  17.342  67.498  1.00  0.00    -0.201 A  
HETATM   31  C   UNL     1      -7.917  18.450  68.274  1.00  0.00    -0.317 A  
HETATM   32  C   UNL     1      -8.599  16.546  66.963  1.00  0.00    -0.193 A  
HETATM   33  C   UNL     1      -9.257  18.775  68.478  1.00  0.00    -0.386 A  
HETATM   34  F   UNL     1      -8.250  15.472  66.242  1.00  0.00    -0.286 F  
HETATM   35  C   UNL     1     -10.269  17.967  67.945  1.00  0.00    -0.386 A  
ENDBRANCH  28  29
ENDBRANCH  22  28
ENDBRANCH  12  19
ENDBRANCH   4   7
ENDBRANCH   2   3
TORSDOF 5
ENDMDL
MODEL      103
REMARK 921   NORMALIZED FREE ENERGY PREDICTED BY IDOCK:   -5.69 KCAL/MOL
REMARK 922        TOTAL FREE ENERGY PREDICTED BY IDOCK:   -8.15 KCAL/MOL
REMARK 923 INTER-LIGAND FREE ENERGY PREDICTED BY IDOCK:   -7.68 KCAL/MOL
REMARK 924 INTRA-LIGAND FREE ENERGY PREDICTED BY IDOCK:   -0.47 KCAL/MOL
REMARK 927      BINDING AFFINITY PREDICTED BY RF-SCORE:    0.00 PKD
ROOT
HETATM    1  C   UNL     1     -12.844  12.034  63.408  1.00  0.00    -0.291 C  
HETATM    2  O   UNL     1     -12.945  12.605  64.711  1.00  0.00    -0.816 OA 
ENDROOT
BRANCH   2   3
HETATM    3  C   UNL     1     -12.184  13.718  64.901  1.00  0.00    -0.415 C  
HETATM    4  N   UNL     1     -11.312  13.601  65.972  1.00  0.00    -0.308 N  
HETATM    5  O   UNL     1     -12.268  14.723  64.203  1.00  0.00    -0.541 OA 
HETATM    6  C   UNL     1     -10.386  14.667  66.302  1.00  0.00    -0.294 C  
BRANCH   4   7
HETATM    7  C   UNL     1     -11.185  12.385  66.697  1.00  0.00    -0.315 A  
HETATM    8  C   UNL     1     -10.483  11.295  66.188  1.00  0.00    -0.254 A  
HETATM    9  N   UNL     1      -9.999  11.272  64.878  1.00  0.00    -0.257 NA 
HETATM   10  N   UNL     1     -10.292  10.172  66.887  1.00  0.00    -0.235 NA 
HETATM   11  H1  UNL     1      -9.485  10.475  64.505  1.00  0.00     0.000 HD 
HETATM   12  C   UNL     1     -10.832  10.125  68.119  1.00  0.00    -0.262 A  
HETATM   13  H2  UNL     1      -9.423  12.103  64.745  1.00  0.00     0.000 HD 
HETATM   14  N   UNL     1     -11.557  11.112  68.691  1.00  0.00    -0.296 NA 
HETATM   15  H2  UNL     1     -13.302  13.398  67.903  1.00  0.00     0.000 HD 
HETATM   16  H1  UNL     1     -12.926  13.097  69.481  1.00  0.00     0.000 HD 
HETATM   17  C   UNL     1     -11.720  12.230  67.970  1.00  0.00    -0.356 A  
HETATM   18  N   UNL     1     -12.533  13.211  68.546  1.00  0.00     0.203 NA 
BRANCH  12  19
HETATM   19  C   UNL     1     -10.603   8.902  68.912  1.00  0.00    -0.165 A  
HETATM   20  C   UNL     1     -10.564   7.400  70.574  1.00  0.00    -0.224 A  
HETATM   21  N   UNL     1      -9.857   7.866  68.460  1.00  0.00    -0.172 NA 
HETATM   22  N   UNL     1      -9.909   6.954  69.462  1.00  0.00    -0.158 NA 
HETATM   23  C   UNL     1     -12.132   8.615  72.389  1.00  0.00    -0.415 A  
HETATM   24  N   UNL     1     -10.696   6.752  71.749  1.00  0.00    -0.221 NA 
HETATM   25  C   UNL     1     -11.097   8.632  70.227  1.00  0.00    -0.230 A  
HETATM   26  C   UNL     1     -11.486   7.409  72.628  1.00  0.00    -0.291 A  
HETATM   27  C   UNL     1     -11.933   9.260  71.168  1.00  0.00    -0.394 A  
BRANCH  22  28
HETATM   28  C   UNL     1      -9.249   5.664  69.322  1.00  0.00    -0.116 C  
BRANCH  28  29
HETATM   29  C   UNL     1      -8.867   5.326  67.900  1.00  0.00    -0.105 A  
HETATM   30  C   UNL     1      -7.265   5.541  66.075  1.00  0.00    -0.076 A  
HETATM   31  C   UNL     1      -8.211   5.062  65.172  1.00  0.00    -0.131 A  
HETATM   32  C   UNL     1      -7.596   5.662  67.424  1.00  0.00    -0.089 A  
HETATM   33  C   UNL     1      -9.468   4.671  65.632  1.00  0.00    -0.178 A  
HETATM   34  F   UNL     1      -6.673   6.151  68.264  1.00  0.00    -0.056 F  
HETATM   35  C   UNL     1      -9.796   4.801  66.987  1.00  0.00    -0.224 A  
ENDBRANCH  28  29
ENDBRANCH  22  28
ENDBRANCH  12  19
ENDBRANCH   4   7
ENDBRANCH   2   3
TORSDOF 5
ENDMDL
MODEL      104
REMARK 921   NORMALIZED FREE ENERGY PREDICTED BY IDOCK:   -5.67 KCAL/MOL
REMARK 922        TOTAL FREE ENERGY PREDICTED BY IDOCK:   -8.13 KCAL/MOL
REMARK 923 INTER-LIGAND FREE ENERGY PREDICTED BY IDOCK:   -7.25 KCAL/MOL
REMARK 924 INTRA-LIGAND FREE ENERGY PREDICTED BY IDOCK:   -0.89 KCAL/MOL
REMARK 927      BINDING AFFINITY PREDICTED BY RF-SCORE:    0.00 PKD
ROOT
HETATM    1  C   UNL     1      -7.433   8.536  63.266  1.00  0.00    -0.109 C  
HETATM    2  O   UNL     1      -8.385   8.354  64.312  1.00  0.00    -0.155 OA 
ENDROOT
BRANCH   2   3
HETATM    3  C   UNL     1      -7.933   7.619  65.366  1.00  0.00    -0.123 C  
HETATM    4  N   UNL     1      -7.951   8.318  66.562  1.00  0.00    -0.099 N  
HETATM    5  O   UNL     1      -7.541   6.461  65.264  1.00  0.00    -0.080 OA 
HETATM    6  C   UNL     1      -7.551   7.686  67.804  1.00  0.00    -0.117 C  
BRANCH   4   7
HETATM    7  C   UNL     1      -8.498   9.628  66.648  1.00  0.00    -0.123 A  
HETATM    8  C   UNL     1      -9.842   9.846  66.939  1.00  0.00    -0.199 A  
HETATM    9  N   UNL     1     -10.765   8.799  67.007  1.00  0.00    -0.332 NA 
HETATM   10  N   UNL     1     -10.355  11.070  67.096  1.00  0.00    -0.210 NA 
HETATM   11  H1  UNL     1     -11.749   8.959  67.220  1.00  0.00     0.000 HD 
HETATM   12  C   UNL     1      -9.510  12.107  66.940  1.00  0.00    -0.210 A  
HETATM   13  H2  UNL     1     -10.409   8.115  67.674  1.00  0.00     0.000 HD 
HETATM   14  N   UNL     1      -8.199  12.004  66.625  1.00  0.00    -0.111 NA 
HETATM   15  H2  UNL     1      -6.340  10.144  65.221  1.00  0.00     0.000 HD 
HETATM   16  H1  UNL     1      -5.799  11.510  65.970  1.00  0.00     0.000 HD 
HETATM   17  C   UNL     1      -7.713  10.763  66.486  1.00  0.00    -0.145 A  
HETATM   18  N   UNL     1      -6.375  10.676  66.089  1.00  0.00    -0.118 NA 
BRANCH  12  19
HETATM   19  C   UNL     1     -10.057  13.462  67.139  1.00  0.00    -0.240 A  
HETATM   20  C   UNL     1     -11.113  15.244  67.994  1.00  0.00    -0.312 A  
HETATM   21  N   UNL     1      -9.990  14.425  66.189  1.00  0.00    -0.298 NA 
HETATM   22  N   UNL     1     -10.579  15.504  66.764  1.00  0.00    -0.304 NA 
HETATM   23  C   UNL     1     -11.763  14.323  70.434  1.00  0.00    -0.329 A  
HETATM   24  N   UNL     1     -11.832  16.090  68.758  1.00  0.00    -0.316 NA 
HETATM   25  C   UNL     1     -10.727  13.949  68.306  1.00  0.00    -0.261 A  
HETATM   26  C   UNL     1     -12.140  15.576  69.970  1.00  0.00    -0.368 A  
HETATM   27  C   UNL     1     -11.048  13.473  69.589  1.00  0.00    -0.043 A  
BRANCH  22  28
HETATM   28  C   UNL     1     -10.657  16.770  66.051  1.00  0.00    -0.228 C  
BRANCH  28  29
HETATM   29  C   UNL     1      -9.835  17.873  66.675  1.00  0.00    -0.342 A  
HETATM   30  C   UNL     1      -7.735  18.570  67.699  1.00  0.00    -0.240 A  
HETATM   31  C   UNL     1      -8.335  19.737  68.164  1.00  0.00    -0.326 A  
HETATM   32  C   UNL     1      -8.482  17.656  66.957  1.00  0.00    -0.236 A  
HETATM   33  C   UNL     1      -9.668  19.999  67.851  1.00  0.00    -0.517 A  
HETATM   34  F   UNL     1      -7.884  16.530  66.545  1.00  0.00    -0.232 F  
HETATM   35  C   UNL     1     -10.416  19.075  67.112  1.00  0.00    -0.522 A  
ENDBRANCH  28  29
ENDBRANCH  22  28
ENDBRANCH  12  19
ENDBRANCH   4   7
ENDBRANCH   2   3
TORSDOF 5
ENDMDL
MODEL      105
REMARK 921   NORMALIZED FREE ENERGY PREDICTED BY IDOCK:   -5.65 KCAL/MOL
REMARK 922        TOTAL FREE ENERGY PREDICTED BY IDOCK:   -8.11 KCAL/MOL
REMARK 923 INTER-LIGAND FREE ENERGY PREDICTED BY IDOCK:   -7.73 KCAL/MOL
REMARK 924 INTRA-LIGAND FREE ENERGY PREDICTED BY IDOCK:   -0.38 KCAL/MOL
REMARK 927      BINDING AFFINITY PREDICTED BY RF-SCORE:    0.00 PKD
ROOT
HETATM    1  C   UNL     1     -10.967   6.762  67.161  1.00  0.00    -0.388 C  
HETATM    2  O   UNL     1     -10.075   7.845  66.904  1.00  0.00    -0.239 OA 
ENDROOT
BRANCH   2   3
HETATM    3  C   UNL     1      -8.838   7.468  66.478  1.00  0.00    -0.148 C  
HETATM    4  N   UNL     1      -7.972   8.538  66.316  1.00  0.00    -0.100 N  
HETATM    5  O   UNL     1      -8.525   6.303  66.253  1.00  0.00    -0.123 OA 
HETATM    6  C   UNL     1      -6.594   8.331  65.914  1.00  0.00    -0.053 C  
BRANCH   4   7
HETATM    7  C   UNL     1      -8.350   9.861  66.676  1.00  0.00    -0.125 A  
HETATM    8  C   UNL     1      -9.094  10.671  65.823  1.00  0.00    -0.186 A  
HETATM    9  N   UNL     1      -9.376  10.299  64.507  1.00  0.00    -0.251 NA 
HETATM   10  N   UNL     1      -9.520  11.889  66.176  1.00  0.00    -0.230 NA 
HETATM   11  H1  UNL     1      -9.921  10.893  63.882  1.00  0.00     0.000 HD 
HETATM   12  C   UNL     1      -9.178  12.317  67.406  1.00  0.00    -0.182 A  
HETATM   13  H2  UNL     1      -9.823   9.383  64.532  1.00  0.00     0.000 HD 
HETATM   14  N   UNL     1      -8.434  11.623  68.296  1.00  0.00    -0.155 NA 
HETATM   15  H2  UNL     1      -6.330   9.510  68.338  1.00  0.00     0.000 HD 
HETATM   16  H1  UNL     1      -6.970  10.126  69.728  1.00  0.00     0.000 HD 
HETATM   17  C   UNL     1      -8.032  10.402  67.916  1.00  0.00    -0.102 A  
HETATM   18  N   UNL     1      -7.203   9.729  68.818  1.00  0.00    -0.071 NA 
BRANCH  12  19
HETATM   19  C   UNL     1      -9.668  13.647  67.819  1.00  0.00    -0.225 A  
HETATM   20  C   UNL     1     -10.383  15.770  67.799  1.00  0.00    -0.275 A  
HETATM   21  N   UNL     1      -9.773  14.016  69.118  1.00  0.00     0.061 NA 
HETATM   22  N   UNL     1     -10.268  15.278  69.068  1.00  0.00    -0.228 NA 
HETATM   23  C   UNL     1     -10.658  16.184  65.157  1.00  0.00    -0.366 A  
HETATM   24  N   UNL     1     -10.756  17.016  67.445  1.00  0.00    -0.288 NA 
HETATM   25  C   UNL     1     -10.076  14.712  66.956  1.00  0.00    -0.249 A  
HETATM   26  C   UNL     1     -10.871  17.173  66.108  1.00  0.00     0.026 A  
HETATM   27  C   UNL     1     -10.238  14.920  65.575  1.00  0.00    -0.401 A  
BRANCH  22  28
HETATM   28  C   UNL     1     -10.564  16.005  70.293  1.00  0.00    -0.197 C  
BRANCH  28  29
HETATM   29  C   UNL     1     -11.801  15.517  71.008  1.00  0.00    -0.427 A  
HETATM   30  C   UNL     1     -13.199  15.566  73.006  1.00  0.00    -0.648 A  
HETATM   31  C   UNL     1     -13.872  14.425  72.577  1.00  0.00    -0.559 A  
HETATM   32  C   UNL     1     -12.181  16.104  72.220  1.00  0.00    -0.496 A  
HETATM   33  C   UNL     1     -13.547  13.853  71.349  1.00  0.00    -0.287 A  
HETATM   34  F   UNL     1     -11.533  17.188  72.671  1.00  0.00    -0.408 F  
HETATM   35  C   UNL     1     -12.518  14.393  70.568  1.00  0.00    -0.416 A  
ENDBRANCH  28  29
ENDBRANCH  22  28
ENDBRANCH  12  19
ENDBRANCH   4   7
ENDBRANCH   2   3
TORSDOF 5
ENDMDL
MODEL      106
REMARK 921   NORMALIZED FREE ENERGY PREDICTED BY IDOCK:   -5.65 KCAL/MOL
REMARK 922        TOTAL FREE ENERGY PREDICTED BY IDOCK:   -8.11 KCAL/MOL
REMARK 923 INTER-LIGAND FREE ENERGY PREDICTED BY IDOCK:   -7.02 KCAL/MOL
REMARK 924 INTRA-LIGAND FREE ENERGY PREDICTED BY IDOCK:   -1.08 KCAL/MOL
REMARK 927      BINDING AFFINITY PREDICTED BY RF-SCORE:    0.00 PKD
ROOT
HETATM    1  C   UNL     1      -5.542   4.676  68.544  1.00  0.00    -0.016 C  
HETATM    2  O   UNL     1      -6.197   4.817  69.804  1.00  0.00    -0.024 OA 
ENDROOT
BRANCH   2   3
HETATM    3  C   UNL     1      -7.030   3.789  70.125  1.00  0.00    -0.038 C  
HETATM    4  N   UNL     1      -8.329   4.202  70.380  1.00  0.00    -0.064 N  
HETATM    5  O   UNL     1      -6.667   2.619  70.193  1.00  0.00    -0.032 OA 
HETATM    6  C   UNL     1      -9.371   3.245  70.692  1.00  0.00    -0.159 C  
BRANCH   4   7
HETATM    7  C   UNL     1      -8.725   5.556  70.201  1.00  0.00    -0.129 A  
HETATM    8  C   UNL     1      -9.235   6.020  68.991  1.00  0.00    -0.121 A  
HETATM    9  N   UNL     1      -9.241   5.231  67.839  1.00  0.00    -0.110 NA 
HETATM   10  N   UNL     1      -9.680   7.270  68.829  1.00  0.00    -0.149 NA 
HETATM   11  H1  UNL     1      -9.615   5.570  66.953  1.00  0.00     0.000 HD 
HETATM   12  C   UNL     1      -9.596   8.086  69.897  1.00  0.00    -0.171 A  
HETATM   13  H2  UNL     1      -9.718   4.357  68.063  1.00  0.00     0.000 HD 
HETATM   14  N   UNL     1      -9.088   7.745  71.102  1.00  0.00    -0.141 NA 
HETATM   15  H2  UNL     1      -7.126   5.835  72.281  1.00  0.00     0.000 HD 
HETATM   16  H1  UNL     1      -8.026   6.846  73.224  1.00  0.00     0.000 HD 
HETATM   17  C   UNL     1      -8.661   6.481  71.236  1.00  0.00    -0.130 A  
HETATM   18  N   UNL     1      -8.073   6.166  72.464  1.00  0.00    -0.104 NA 
BRANCH  12  19
HETATM   19  C   UNL     1     -10.111   9.460  69.740  1.00  0.00    -0.211 A  
HETATM   20  C   UNL     1     -11.347  11.321  69.919  1.00  0.00    -0.249 A  
HETATM   21  N   UNL     1      -9.594  10.337  68.847  1.00  0.00    -0.180 NA 
HETATM   22  N   UNL     1     -10.322  11.467  69.029  1.00  0.00    -0.165 NA 
HETATM   23  C   UNL     1     -13.029  10.620  71.895  1.00  0.00    -0.542 A  
HETATM   24  N   UNL     1     -12.285  12.237  70.232  1.00  0.00    -0.301 NA 
HETATM   25  C   UNL     1     -11.195  10.053  70.462  1.00  0.00    -0.408 A  
HETATM   26  C   UNL     1     -13.109  11.832  71.223  1.00  0.00    -0.141 A  
HETATM   27  C   UNL     1     -12.061   9.692  71.509  1.00  0.00    -0.482 A  
BRANCH  22  28
HETATM   28  C   UNL     1     -10.025  12.669  68.263  1.00  0.00    -0.229 C  
BRANCH  28  29
HETATM   29  C   UNL     1     -10.714  12.722  66.920  1.00  0.00    -0.272 A  
HETATM   30  C   UNL     1     -12.600  13.501  65.585  1.00  0.00    -0.512 A  
HETATM   31  C   UNL     1     -12.269  12.605  64.572  1.00  0.00    -0.514 A  
HETATM   32  C   UNL     1     -11.821  13.558  66.740  1.00  0.00    -0.406 A  
HETATM   33  C   UNL     1     -11.140  11.799  64.706  1.00  0.00    -0.356 A  
HETATM   34  F   UNL     1     -12.180  14.413  67.709  1.00  0.00    -0.390 F  
HETATM   35  C   UNL     1     -10.366  11.854  65.872  1.00  0.00    -0.277 A  
ENDBRANCH  28  29
ENDBRANCH  22  28
ENDBRANCH  12  19
ENDBRANCH   4   7
ENDBRANCH   2   3
TORSDOF 5
ENDMDL
MODEL      107
REMARK 921   NORMALIZED FREE ENERGY PREDICTED BY IDOCK:   -5.64 KCAL/MOL
REMARK 922        TOTAL FREE ENERGY PREDICTED BY IDOCK:   -8.10 KCAL/MOL
REMARK 923 INTER-LIGAND FREE ENERGY PREDICTED BY IDOCK:   -7.02 KCAL/MOL
REMARK 924 INTRA-LIGAND FREE ENERGY PREDICTED BY IDOCK:   -1.07 KCAL/MOL
REMARK 927      BINDING AFFINITY PREDICTED BY RF-SCORE:    0.00 PKD
ROOT
HETATM    1  C   UNL     1      -5.546   6.586  69.513  1.00  0.00    -0.014 C  
HETATM    2  O   UNL     1      -6.945   6.763  69.726  1.00  0.00    -0.059 OA 
ENDROOT
BRANCH   2   3
HETATM    3  C   UNL     1      -7.312   6.835  71.036  1.00  0.00    -0.078 C  
HETATM    4  N   UNL     1      -8.081   7.952  71.322  1.00  0.00    -0.093 N  
HETATM    5  O   UNL     1      -6.987   6.003  71.877  1.00  0.00    -0.073 OA 
HETATM    6  C   UNL     1      -8.607   8.177  72.654  1.00  0.00    -0.200 C  
BRANCH   4   7
HETATM    7  C   UNL     1      -8.509   8.841  70.298  1.00  0.00    -0.149 A  
HETATM    8  C   UNL     1      -9.758   8.722  69.695  1.00  0.00    -0.173 A  
HETATM    9  N   UNL     1     -10.600   7.635  69.942  1.00  0.00    -0.232 NA 
HETATM   10  N   UNL     1     -10.204   9.593  68.784  1.00  0.00    -0.189 NA 
HETATM   11  H1  UNL     1     -11.515   7.548  69.501  1.00  0.00     0.000 HD 
HETATM   12  C   UNL     1      -9.373  10.600  68.451  1.00  0.00    -0.163 A  
HETATM   13  H2  UNL     1     -10.734   7.570  70.951  1.00  0.00     0.000 HD 
HETATM   14  N   UNL     1      -8.131  10.785  68.951  1.00  0.00    -0.138 NA 
HETATM   15  H2  UNL     1      -5.900   9.201  70.135  1.00  0.00     0.000 HD 
HETATM   16  H1  UNL     1      -5.827  10.844  70.010  1.00  0.00     0.000 HD 
HETATM   17  C   UNL     1      -7.719   9.902  69.871  1.00  0.00    -0.171 A  
HETATM   18  N   UNL     1      -6.407  10.065  70.324  1.00  0.00    -0.092 NA 
BRANCH  12  19
HETATM   19  C   UNL     1      -9.865  11.585  67.468  1.00  0.00    -0.190 A  
HETATM   20  C   UNL     1     -10.442  12.604  65.558  1.00  0.00    -0.281 A  
HETATM   21  N   UNL     1     -10.221  12.845  67.812  1.00  0.00    -0.219 NA 
HETATM   22  N   UNL     1     -10.624  13.409  66.646  1.00  0.00    -0.280 NA 
HETATM   23  C   UNL     1     -10.132  10.594  63.801  1.00  0.00    -0.336 A  
HETATM   24  N   UNL     1     -10.665  12.925  64.268  1.00  0.00    -0.383 NA 
HETATM   25  C   UNL     1     -10.024  11.381  66.061  1.00  0.00    -0.269 A  
HETATM   26  C   UNL     1     -10.487  11.883  63.426  1.00  0.00    -0.441 A  
HETATM   27  C   UNL     1      -9.880  10.323  65.146  1.00  0.00    -0.389 A  
BRANCH  22  28
HETATM   28  C   UNL     1     -11.131  14.773  66.621  1.00  0.00    -0.333 C  
BRANCH  28  29
HETATM   29  C   UNL     1     -10.106  15.812  67.011  1.00  0.00    -0.261 A  
HETATM   30  C   UNL     1      -9.484  17.674  68.457  1.00  0.00    -0.298 A  
HETATM   31  C   UNL     1      -8.437  18.005  67.601  1.00  0.00    -0.239 A  
HETATM   32  C   UNL     1     -10.300  16.583  68.162  1.00  0.00    -0.296 A  
HETATM   33  C   UNL     1      -8.192  17.220  66.476  1.00  0.00    -0.311 A  
HETATM   34  F   UNL     1     -11.315  16.303  68.992  1.00  0.00    -0.299 F  
HETATM   35  C   UNL     1      -9.019  16.130  66.180  1.00  0.00    -0.372 A  
ENDBRANCH  28  29
ENDBRANCH  22  28
ENDBRANCH  12  19
ENDBRANCH   4   7
ENDBRANCH   2   3
TORSDOF 5
ENDMDL
MODEL      108
REMARK 921   NORMALIZED FREE ENERGY PREDICTED BY IDOCK:   -5.63 KCAL/MOL
REMARK 922        TOTAL FREE ENERGY PREDICTED BY IDOCK:   -8.08 KCAL/MOL
REMARK 923 INTER-LIGAND FREE ENERGY PREDICTED BY IDOCK:   -7.59 KCAL/MOL
REMARK 924 INTRA-LIGAND FREE ENERGY PREDICTED BY IDOCK:   -0.50 KCAL/MOL
REMARK 927      BINDING AFFINITY PREDICTED BY RF-SCORE:    0.00 PKD
ROOT
HETATM    1  C   UNL     1      -6.395   5.766  71.998  1.00  0.00    -0.045 C  
HETATM    2  O   UNL     1      -7.673   5.218  71.680  1.00  0.00    -0.102 OA 
ENDROOT
BRANCH   2   3
HETATM    3  C   UNL     1      -8.486   5.021  72.754  1.00  0.00    -0.116 C  
HETATM    4  N   UNL     1      -9.529   5.932  72.819  1.00  0.00    -0.149 N  
HETATM    5  O   UNL     1      -8.308   4.135  73.585  1.00  0.00    -0.092 OA 
HETATM    6  C   UNL     1     -10.528   5.852  73.867  1.00  0.00    -0.273 C  
BRANCH   4   7
HETATM    7  C   UNL     1      -9.749   6.883  71.786  1.00  0.00    -0.159 A  
HETATM    8  C   UNL     1     -10.349   6.534  70.579  1.00  0.00    -0.201 A  
HETATM    9  N   UNL     1     -10.627   5.206  70.247  1.00  0.00    -0.227 NA 
HETATM   10  N   UNL     1     -10.629   7.430  69.628  1.00  0.00    -0.233 NA 
HETATM   11  H1  UNL     1     -11.067   4.950  69.363  1.00  0.00     0.000 HD 
HETATM   12  C   UNL     1     -10.282   8.708  69.878  1.00  0.00    -0.203 A  
HETATM   13  H2  UNL     1     -11.188   4.808  71.000  1.00  0.00     0.000 HD 
HETATM   14  N   UNL     1      -9.667   9.144  71.000  1.00  0.00    -0.277 NA 
HETATM   15  H2  UNL     1      -7.855   8.127  73.138  1.00  0.00     0.000 HD 
HETATM   16  H1  UNL     1      -8.463   9.661  73.172  1.00  0.00     0.000 HD 
HETATM   17  C   UNL     1      -9.411   8.223  71.939  1.00  0.00    -0.220 A  
HETATM   18  N   UNL     1      -8.711   8.677  73.059  1.00  0.00    -0.366 NA 
BRANCH  12  19
HETATM   19  C   UNL     1     -10.613   9.712  68.848  1.00  0.00    -0.217 A  
HETATM   20  C   UNL     1     -10.715  10.859  66.927  1.00  0.00    -0.264 A  
HETATM   21  N   UNL     1     -11.327  10.830  69.121  1.00  0.00    -0.260 NA 
HETATM   22  N   UNL     1     -11.423  11.464  67.925  1.00  0.00    -0.407 NA 
HETATM   23  C   UNL     1      -9.403   9.193  65.275  1.00  0.00    -0.224 A  
HETATM   24  N   UNL     1     -10.551  11.306  65.665  1.00  0.00    -0.259 NA 
HETATM   25  C   UNL     1     -10.238   9.675  67.469  1.00  0.00    -0.274 A  
HETATM   26  C   UNL     1      -9.879  10.436  64.880  1.00  0.00    -0.334 A  
HETATM   27  C   UNL     1      -9.569   8.793  66.601  1.00  0.00    -0.283 A  
BRANCH  22  28
HETATM   28  C   UNL     1     -12.173  12.706  67.806  1.00  0.00     0.122 C  
BRANCH  28  29
HETATM   29  C   UNL     1     -11.404  13.821  67.139  1.00  0.00    -0.344 A  
HETATM   30  C   UNL     1     -11.109  15.267  65.197  1.00  0.00    -0.412 A  
HETATM   31  C   UNL     1      -9.846  15.638  65.650  1.00  0.00    -0.369 A  
HETATM   32  C   UNL     1     -11.876  14.373  65.943  1.00  0.00    -0.367 A  
HETATM   33  C   UNL     1      -9.375  15.142  66.864  1.00  0.00    -0.251 A  
HETATM   34  F   UNL     1     -13.078  14.015  65.469  1.00  0.00    -0.550 F  
HETATM   35  C   UNL     1     -10.146  14.238  67.606  1.00  0.00    -0.229 A  
ENDBRANCH  28  29
ENDBRANCH  22  28
ENDBRANCH  12  19
ENDBRANCH   4   7
ENDBRANCH   2   3
TORSDOF 5
ENDMDL
MODEL      109
REMARK 921   NORMALIZED FREE ENERGY PREDICTED BY IDOCK:   -5.62 KCAL/MOL
REMARK 922        TOTAL FREE ENERGY PREDICTED BY IDOCK:   -8.07 KCAL/MOL
REMARK 923 INTER-LIGAND FREE ENERGY PREDICTED BY IDOCK:   -7.15 KCAL/MOL
REMARK 924 INTRA-LIGAND FREE ENERGY PREDICTED BY IDOCK:   -0.92 KCAL/MOL
REMARK 927      BINDING AFFINITY PREDICTED BY RF-SCORE:    0.00 PKD
ROOT
HETATM    1  C   UNL     1      -8.477  15.028  67.498  1.00  0.00    -0.174 C  
HETATM    2  O   UNL     1      -9.596  14.148  67.582  1.00  0.00    -0.209 OA 
ENDROOT
BRANCH   2   3
HETATM    3  C   UNL     1     -10.738  14.630  67.018  1.00  0.00    -0.290 C  
HETATM    4  N   UNL     1     -11.446  13.665  66.318  1.00  0.00    -0.323 N  
HETATM    5  O   UNL     1     -11.097  15.799  67.111  1.00  0.00    -0.286 OA 
HETATM    6  C   UNL     1     -12.713  13.978  65.688  1.00  0.00    -0.481 C  
BRANCH   4   7
HETATM    7  C   UNL     1     -11.038  12.303  66.313  1.00  0.00    -0.302 A  
HETATM    8  C   UNL     1     -10.253  11.774  65.293  1.00  0.00    -0.267 A  
HETATM    9  N   UNL     1      -9.951  12.499  64.139  1.00  0.00    -0.584 NA 
HETATM   10  N   UNL     1      -9.800  10.516  65.312  1.00  0.00    -0.262 NA 
HETATM   11  H1  UNL     1      -9.375  12.111  63.391  1.00  0.00     0.000 HD 
HETATM   12  C   UNL     1     -10.158   9.759  66.367  1.00  0.00    -0.243 A  
HETATM   13  H2  UNL     1      -9.531  13.382  64.428  1.00  0.00     0.000 HD 
HETATM   14  N   UNL     1     -10.942  10.166  67.390  1.00  0.00    -0.276 NA 
HETATM   15  H2  UNL     1     -13.105  12.141  67.946  1.00  0.00     0.000 HD 
HETATM   16  H1  UNL     1     -12.480  11.181  69.133  1.00  0.00     0.000 HD 
HETATM   17  C   UNL     1     -11.369  11.436  67.348  1.00  0.00    -0.288 A  
HETATM   18  N   UNL     1     -12.237  11.818  68.374  1.00  0.00    -0.398 NA 
BRANCH  12  19
HETATM   19  C   UNL     1      -9.640   8.377  66.414  1.00  0.00    -0.237 A  
HETATM   20  C   UNL     1      -8.303   6.583  66.303  1.00  0.00    -0.124 A  
HETATM   21  N   UNL     1     -10.440   7.304  66.621  1.00  0.00    -0.206 NA 
HETATM   22  N   UNL     1      -9.590   6.247  66.611  1.00  0.00    -0.155 NA 
HETATM   23  C   UNL     1      -5.916   7.757  65.914  1.00  0.00    -0.038 A  
HETATM   24  N   UNL     1      -7.265   5.740  66.132  1.00  0.00    -0.075 NA 
HETATM   25  C   UNL     1      -8.280   7.969  66.245  1.00  0.00    -0.116 A  
HETATM   26  C   UNL     1      -6.092   6.380  65.931  1.00  0.00    -0.033 A  
HETATM   27  C   UNL     1      -7.030   8.585  66.062  1.00  0.00    -0.068 A  
BRANCH  22  28
HETATM   28  C   UNL     1     -10.085   4.899  66.849  1.00  0.00    -0.222 C  
BRANCH  28  29
HETATM   29  C   UNL     1      -9.732   4.351  68.211  1.00  0.00    -0.171 A  
HETATM   30  C   UNL     1      -9.259   2.410  69.608  1.00  0.00    -0.192 A  
HETATM   31  C   UNL     1      -9.422   3.181  70.756  1.00  0.00    -0.231 A  
HETATM   32  C   UNL     1      -9.407   2.998  68.353  1.00  0.00    -0.187 A  
HETATM   33  C   UNL     1      -9.693   4.543  70.639  1.00  0.00    -0.282 A  
HETATM   34  F   UNL     1      -9.270   2.224  67.267  1.00  0.00    -0.157 F  
HETATM   35  C   UNL     1      -9.849   5.127  69.376  1.00  0.00    -0.269 A  
ENDBRANCH  28  29
ENDBRANCH  22  28
ENDBRANCH  12  19
ENDBRANCH   4   7
ENDBRANCH   2   3
TORSDOF 5
ENDMDL
MODEL      110
REMARK 921   NORMALIZED FREE ENERGY PREDICTED BY IDOCK:   -5.58 KCAL/MOL
REMARK 922        TOTAL FREE ENERGY PREDICTED BY IDOCK:   -8.02 KCAL/MOL
REMARK 923 INTER-LIGAND FREE ENERGY PREDICTED BY IDOCK:   -7.06 KCAL/MOL
REMARK 924 INTRA-LIGAND FREE ENERGY PREDICTED BY IDOCK:   -0.96 KCAL/MOL
REMARK 927      BINDING AFFINITY PREDICTED BY RF-SCORE:    0.00 PKD
ROOT
HETATM    1  C   UNL     1      -7.697   8.326  64.870  1.00  0.00    -0.115 C  
HETATM    2  O   UNL     1      -8.590   7.770  65.833  1.00  0.00    -0.142 OA 
ENDROOT
BRANCH   2   3
HETATM    3  C   UNL     1      -7.983   7.059  66.823  1.00  0.00    -0.108 C  
HETATM    4  N   UNL     1      -8.049   7.684  68.059  1.00  0.00    -0.122 N  
HETATM    5  O   UNL     1      -7.425   5.982  66.639  1.00  0.00    -0.087 OA 
HETATM    6  C   UNL     1      -7.499   7.058  69.245  1.00  0.00    -0.094 C  
BRANCH   4   7
HETATM    7  C   UNL     1      -8.784   8.888  68.243  1.00  0.00    -0.134 A  
HETATM    8  C   UNL     1     -10.165   8.887  68.414  1.00  0.00    -0.199 A  
HETATM    9  N   UNL     1     -10.931   7.730  68.259  1.00  0.00    -0.427 NA 
HETATM   10  N   UNL     1     -10.860  10.002  68.662  1.00  0.00    -0.231 NA 
HETATM   11  H1  UNL     1     -11.943   7.729  68.385  1.00  0.00     0.000 HD 
HETATM   12  C   UNL     1     -10.161  11.152  68.720  1.00  0.00    -0.206 A  
HETATM   13  H2  UNL     1     -10.541   7.015  68.873  1.00  0.00     0.000 HD 
HETATM   14  N   UNL     1      -8.827  11.264  68.535  1.00  0.00    -0.159 NA 
HETATM   15  H2  UNL     1      -6.605   9.867  67.122  1.00  0.00     0.000 HD 
HETATM   16  H1  UNL     1      -6.332  11.180  68.083  1.00  0.00     0.000 HD 
HETATM   17  C   UNL     1      -8.158  10.127  68.301  1.00  0.00    -0.102 A  
HETATM   18  N   UNL     1      -6.792  10.270  68.040  1.00  0.00    -0.069 NA 
BRANCH  12  19
HETATM   19  C   UNL     1     -10.913  12.386  69.022  1.00  0.00    -0.197 A  
HETATM   20  C   UNL     1     -12.344  13.861  69.914  1.00  0.00    -0.300 A  
HETATM   21  N   UNL     1     -10.787  13.517  68.288  1.00  0.00    -0.251 NA 
HETATM   22  N   UNL     1     -11.616  14.403  68.893  1.00  0.00    -0.287 NA 
HETATM   23  C   UNL     1     -13.335  12.427  71.960  1.00  0.00    -0.511 A  
HETATM   24  N   UNL     1     -13.306  14.471  70.635  1.00  0.00    -0.208 NA 
HETATM   25  C   UNL     1     -11.858  12.572  70.079  1.00  0.00    -0.363 A  
HETATM   26  C   UNL     1     -13.776  13.705  71.644  1.00  0.00    -0.246 A  
HETATM   27  C   UNL     1     -12.361  11.828  71.161  1.00  0.00    -0.329 A  
BRANCH  22  28
HETATM   28  C   UNL     1     -11.719  15.770  68.406  1.00  0.00    -0.271 C  
BRANCH  28  29
HETATM   29  C   UNL     1     -10.403  16.358  67.955  1.00  0.00    -0.288 A  
HETATM   30  C   UNL     1      -8.739  16.610  66.190  1.00  0.00    -0.322 A  
HETATM   31  C   UNL     1      -7.817  17.098  67.113  1.00  0.00    -0.211 A  
HETATM   32  C   UNL     1     -10.018  16.253  66.614  1.00  0.00    -0.264 A  
HETATM   33  C   UNL     1      -8.194  17.260  68.445  1.00  0.00    -0.260 A  
HETATM   34  F   UNL     1     -10.875  15.763  65.708  1.00  0.00    -0.312 F  
HETATM   35  C   UNL     1      -9.478  16.893  68.866  1.00  0.00    -0.241 A  
ENDBRANCH  28  29
ENDBRANCH  22  28
ENDBRANCH  12  19
ENDBRANCH   4   7
ENDBRANCH   2   3
TORSDOF 5
ENDMDL
MODEL      111
REMARK 921   NORMALIZED FREE ENERGY PREDICTED BY IDOCK:   -5.58 KCAL/MOL
REMARK 922        TOTAL FREE ENERGY PREDICTED BY IDOCK:   -8.01 KCAL/MOL
REMARK 923 INTER-LIGAND FREE ENERGY PREDICTED BY IDOCK:   -7.12 KCAL/MOL
REMARK 924 INTRA-LIGAND FREE ENERGY PREDICTED BY IDOCK:   -0.89 KCAL/MOL
REMARK 927      BINDING AFFINITY PREDICTED BY RF-SCORE:    0.00 PKD
ROOT
HETATM    1  C   UNL     1     -11.135  16.375  70.045  1.00  0.00    -0.294 C  
HETATM    2  O   UNL     1     -11.454  16.360  68.654  1.00  0.00    -0.349 OA 
ENDROOT
BRANCH   2   3
HETATM    3  C   UNL     1     -10.660  17.154  67.884  1.00  0.00    -0.376 C  
HETATM    4  N   UNL     1      -9.603  16.467  67.307  1.00  0.00    -0.239 N  
HETATM    5  O   UNL     1     -10.854  18.355  67.726  1.00  0.00    -0.384 OA 
HETATM    6  C   UNL     1      -8.676  17.135  66.415  1.00  0.00    -0.256 C  
BRANCH   4   7
HETATM    7  C   UNL     1      -9.470  15.059  67.446  1.00  0.00    -0.201 A  
HETATM    8  C   UNL     1     -10.224  14.170  66.685  1.00  0.00    -0.270 A  
HETATM    9  N   UNL     1     -11.265  14.601  65.859  1.00  0.00    -0.333 NA 
HETATM   10  N   UNL     1     -10.058  12.845  66.750  1.00  0.00    -0.234 NA 
HETATM   11  H1  UNL     1     -11.818  13.950  65.301  1.00  0.00     0.000 HD 
HETATM   12  C   UNL     1      -9.128  12.393  67.612  1.00  0.00    -0.186 A  
HETATM   13  H2  UNL     1     -10.889  15.308  65.228  1.00  0.00     0.000 HD 
HETATM   14  N   UNL     1      -8.368  13.167  68.418  1.00  0.00    -0.149 NA 
HETATM   15  H2  UNL     1      -8.465  15.827  69.761  1.00  0.00     0.000 HD 
HETATM   16  H1  UNL     1      -7.134  14.857  69.853  1.00  0.00     0.000 HD 
HETATM   17  C   UNL     1      -8.550  14.492  68.320  1.00  0.00    -0.171 A  
HETATM   18  N   UNL     1      -7.810  15.273  69.211  1.00  0.00    -0.206 NA 
BRANCH  12  19
HETATM   19  C   UNL     1      -8.914  10.934  67.672  1.00  0.00    -0.140 A  
HETATM   20  C   UNL     1      -8.601   8.788  67.111  1.00  0.00    -0.117 A  
HETATM   21  N   UNL     1      -8.950  10.237  68.833  1.00  0.00    -0.154 NA 
HETATM   22  N   UNL     1      -8.693   8.958  68.463  1.00  0.00    -0.133 NA 
HETATM   23  C   UNL     1      -8.260   9.006  64.454  1.00  0.00    -0.165 A  
HETATM   24  N   UNL     1      -8.442   7.623  66.451  1.00  0.00    -0.130 NA 
HETATM   25  C   UNL     1      -8.661  10.062  66.567  1.00  0.00    -0.131 A  
HETATM   26  C   UNL     1      -8.284   7.788  65.119  1.00  0.00    -0.132 A  
HETATM   27  C   UNL     1      -8.463  10.180  65.180  1.00  0.00    -0.167 A  
BRANCH  22  28
HETATM   28  C   UNL     1      -8.604   7.903  69.462  1.00  0.00    -0.137 C  
BRANCH  28  29
HETATM   29  C   UNL     1      -9.796   7.837  70.387  1.00  0.00    -0.183 A  
HETATM   30  C   UNL     1     -10.704   8.151  72.628  1.00  0.00    -0.421 A  
HETATM   31  C   UNL     1     -11.841   7.425  72.283  1.00  0.00    -0.307 A  
HETATM   32  C   UNL     1      -9.701   8.356  71.683  1.00  0.00    -0.219 A  
HETATM   33  C   UNL     1     -11.983   6.943  70.983  1.00  0.00    -0.422 A  
HETATM   34  F   UNL     1      -8.607   9.037  72.052  1.00  0.00    -0.223 F  
HETATM   35  C   UNL     1     -10.968   7.145  70.039  1.00  0.00    -0.287 A  
ENDBRANCH  28  29
ENDBRANCH  22  28
ENDBRANCH  12  19
ENDBRANCH   4   7
ENDBRANCH   2   3
TORSDOF 5
ENDMDL
MODEL      112
REMARK 921   NORMALIZED FREE ENERGY PREDICTED BY IDOCK:   -5.56 KCAL/MOL
REMARK 922        TOTAL FREE ENERGY PREDICTED BY IDOCK:   -7.99 KCAL/MOL
REMARK 923 INTER-LIGAND FREE ENERGY PREDICTED BY IDOCK:   -7.56 KCAL/MOL
REMARK 924 INTRA-LIGAND FREE ENERGY PREDICTED BY IDOCK:   -0.43 KCAL/MOL
REMARK 927      BINDING AFFINITY PREDICTED BY RF-SCORE:    0.00 PKD
ROOT
HETATM    1  C   UNL     1      -7.277   4.510  66.044  1.00  0.00    -0.076 C  
HETATM    2  O   UNL     1      -7.895   5.421  66.952  1.00  0.00    -0.099 OA 
ENDROOT
BRANCH   2   3
HETATM    3  C   UNL     1      -8.557   4.828  67.984  1.00  0.00    -0.102 C  
HETATM    4  N   UNL     1      -9.338   5.716  68.707  1.00  0.00    -0.121 N  
HETATM    5  O   UNL     1      -8.464   3.634  68.251  1.00  0.00    -0.088 OA 
HETATM    6  C   UNL     1     -10.155   5.262  69.815  1.00  0.00    -0.264 C  
BRANCH   4   7
HETATM    7  C   UNL     1      -9.486   7.072  68.305  1.00  0.00    -0.128 A  
HETATM    8  C   UNL     1     -10.500   7.477  67.442  1.00  0.00    -0.297 A  
HETATM    9  N   UNL     1     -11.332   6.560  66.794  1.00  0.00    -0.800 NA 
HETATM   10  N   UNL     1     -10.697   8.757  67.113  1.00  0.00    -0.221 NA 
HETATM   11  H1  UNL     1     -12.075   6.856  66.162  1.00  0.00     0.000 HD 
HETATM   12  C   UNL     1      -9.848   9.657  67.645  1.00  0.00    -0.164 A  
HETATM   13  H2  UNL     1     -11.750   5.963  67.507  1.00  0.00     0.000 HD 
HETATM   14  N   UNL     1      -8.814   9.365  68.465  1.00  0.00    -0.128 NA 
HETATM   15  H2  UNL     1      -6.960   7.109  69.065  1.00  0.00     0.000 HD 
HETATM   16  H1  UNL     1      -6.921   8.516  69.925  1.00  0.00     0.000 HD 
HETATM   17  C   UNL     1      -8.651   8.074  68.785  1.00  0.00    -0.128 A  
HETATM   18  N   UNL     1      -7.535   7.781  69.573  1.00  0.00    -0.092 NA 
BRANCH  12  19
HETATM   19  C   UNL     1     -10.074  11.078  67.314  1.00  0.00    -0.189 A  
HETATM   20  C   UNL     1     -10.519  12.979  66.216  1.00  0.00    -0.276 A  
HETATM   21  N   UNL     1      -9.847  12.079  68.197  1.00  0.00    -0.196 NA 
HETATM   22  N   UNL     1     -10.187  13.205  67.521  1.00  0.00    -0.223 NA 
HETATM   23  C   UNL     1     -11.316  12.012  63.838  1.00  0.00    -0.503 A  
HETATM   24  N   UNL     1     -10.811  13.908  65.283  1.00  0.00    -0.316 NA 
HETATM   25  C   UNL     1     -10.532  11.600  66.064  1.00  0.00    -0.294 A  
HETATM   26  C   UNL     1     -11.197  13.370  64.105  1.00  0.00    -0.350 A  
HETATM   27  C   UNL     1     -10.968  11.093  64.827  1.00  0.00    -0.218 A  
BRANCH  22  28
HETATM   28  C   UNL     1     -10.118  14.506  68.170  1.00  0.00    -0.227 C  
BRANCH  28  29
HETATM   29  C   UNL     1     -10.915  14.592  69.449  1.00  0.00    -0.279 A  
HETATM   30  C   UNL     1     -13.035  14.236  70.601  1.00  0.00    -0.318 A  
HETATM   31  C   UNL     1     -12.604  15.026  71.664  1.00  0.00    -0.409 A  
HETATM   32  C   UNL     1     -12.190  14.020  69.513  1.00  0.00    -0.308 A  
HETATM   33  C   UNL     1     -11.318  15.564  71.646  1.00  0.00    -0.462 A  
HETATM   34  F   UNL     1     -12.643  13.276  68.494  1.00  0.00    -0.145 F  
HETATM   35  C   UNL     1     -10.477  15.350  70.547  1.00  0.00    -0.140 A  
ENDBRANCH  28  29
ENDBRANCH  22  28
ENDBRANCH  12  19
ENDBRANCH   4   7
ENDBRANCH   2   3
TORSDOF 5
ENDMDL
MODEL      113
REMARK 921   NORMALIZED FREE ENERGY PREDICTED BY IDOCK:   -5.56 KCAL/MOL
REMARK 922        TOTAL FREE ENERGY PREDICTED BY IDOCK:   -7.99 KCAL/MOL
REMARK 923 INTER-LIGAND FREE ENERGY PREDICTED BY IDOCK:   -6.89 KCAL/MOL
REMARK 924 INTRA-LIGAND FREE ENERGY PREDICTED BY IDOCK:   -1.10 KCAL/MOL
REMARK 927      BINDING AFFINITY PREDICTED BY RF-SCORE:    0.00 PKD
ROOT
HETATM    1  C   UNL     1     -11.167  15.852  70.051  1.00  0.00    -0.353 C  
HETATM    2  O   UNL     1     -10.220  15.484  69.049  1.00  0.00    -0.207 OA 
ENDROOT
BRANCH   2   3
HETATM    3  C   UNL     1     -10.380  16.125  67.858  1.00  0.00    -0.277 C  
HETATM    4  N   UNL     1     -10.071  15.326  66.768  1.00  0.00    -0.252 N  
HETATM    5  O   UNL     1     -10.750  17.291  67.761  1.00  0.00    -0.368 OA 
HETATM    6  C   UNL     1     -10.225  15.818  65.413  1.00  0.00    -0.349 C  
BRANCH   4   7
HETATM    7  C   UNL     1      -9.735  13.954  66.925  1.00  0.00    -0.268 A  
HETATM    8  C   UNL     1      -8.423  13.537  67.132  1.00  0.00    -0.166 A  
HETATM    9  N   UNL     1      -7.342  14.418  67.041  1.00  0.00    -0.335 NA 
HETATM   10  N   UNL     1      -8.100  12.259  67.354  1.00  0.00    -0.166 NA 
HETATM   11  H1  UNL     1      -6.381  14.113  67.192  1.00  0.00     0.000 HD 
HETATM   12  C   UNL     1      -9.111  11.369  67.350  1.00  0.00    -0.160 A  
HETATM   13  H2  UNL     1      -7.524  15.198  67.671  1.00  0.00     0.000 HD 
HETATM   14  N   UNL     1     -10.410  11.665  67.127  1.00  0.00    -0.212 NA 
HETATM   15  H2  UNL     1     -12.064  13.702  65.712  1.00  0.00     0.000 HD 
HETATM   16  H1  UNL     1     -12.749  12.503  66.614  1.00  0.00     0.000 HD 
HETATM   17  C   UNL     1     -10.703  12.957  66.919  1.00  0.00    -0.257 A  
HETATM   18  N   UNL     1     -12.038  13.235  66.618  1.00  0.00    -0.385 NA 
BRANCH  12  19
HETATM   19  C   UNL     1      -8.771   9.959  67.624  1.00  0.00    -0.121 A  
HETATM   20  C   UNL     1      -8.328   7.776  67.389  1.00  0.00    -0.123 A  
HETATM   21  N   UNL     1      -8.650   9.467  68.880  1.00  0.00    -0.128 NA 
HETATM   22  N   UNL     1      -8.319   8.164  68.698  1.00  0.00    -0.125 NA 
HETATM   23  C   UNL     1      -8.234   7.566  64.711  1.00  0.00    -0.068 A  
HETATM   24  N   UNL     1      -8.129   6.530  66.913  1.00  0.00    -0.111 NA 
HETATM   25  C   UNL     1      -8.541   8.933  66.655  1.00  0.00    -0.130 A  
HETATM   26  C   UNL     1      -8.099   6.478  65.563  1.00  0.00    -0.127 A  
HETATM   27  C   UNL     1      -8.472   8.829  65.254  1.00  0.00    -0.191 A  
BRANCH  22  28
HETATM   28  C   UNL     1      -8.058   7.302  69.841  1.00  0.00    -0.127 C  
BRANCH  28  29
HETATM   29  C   UNL     1      -9.184   7.262  70.846  1.00  0.00    -0.155 A  
HETATM   30  C   UNL     1     -11.524   6.766  71.322  1.00  0.00    -0.347 A  
HETATM   31  C   UNL     1     -11.442   7.471  72.520  1.00  0.00    -0.376 A  
HETATM   32  C   UNL     1     -10.400   6.661  70.504  1.00  0.00    -0.199 A  
HETATM   33  C   UNL     1     -10.228   8.035  72.907  1.00  0.00    -0.384 A  
HETATM   34  F   UNL     1     -10.517   5.997  69.345  1.00  0.00    -0.218 F  
HETATM   35  C   UNL     1      -9.104   7.933  72.077  1.00  0.00    -0.198 A  
ENDBRANCH  28  29
ENDBRANCH  22  28
ENDBRANCH  12  19
ENDBRANCH   4   7
ENDBRANCH   2   3
TORSDOF 5
ENDMDL
MODEL      114
REMARK 921   NORMALIZED FREE ENERGY PREDICTED BY IDOCK:   -5.50 KCAL/MOL
REMARK 922        TOTAL FREE ENERGY PREDICTED BY IDOCK:   -7.91 KCAL/MOL
REMARK 923 INTER-LIGAND FREE ENERGY PREDICTED BY IDOCK:   -7.37 KCAL/MOL
REMARK 924 INTRA-LIGAND FREE ENERGY PREDICTED BY IDOCK:   -0.54 KCAL/MOL
REMARK 927      BINDING AFFINITY PREDICTED BY RF-SCORE:    0.00 PKD
ROOT
HETATM    1  C   UNL     1     -13.211  13.929  65.445  1.00  0.00     0.001 C  
HETATM    2  O   UNL     1     -11.974  13.860  64.738  1.00  0.00    -0.367 OA 
ENDROOT
BRANCH   2   3
HETATM    3  C   UNL     1     -11.022  14.727  65.179  1.00  0.00    -0.393 C  
HETATM    4  N   UNL     1     -10.232  14.197  66.187  1.00  0.00    -0.295 N  
HETATM    5  O   UNL     1     -10.884  15.863  64.737  1.00  0.00    -0.533 OA 
HETATM    6  C   UNL     1      -9.132  14.955  66.752  1.00  0.00    -0.270 C  
BRANCH   4   7
HETATM    7  C   UNL     1     -10.369  12.845  66.605  1.00  0.00    -0.251 A  
HETATM    8  C   UNL     1      -9.894  11.786  65.835  1.00  0.00    -0.238 A  
HETATM    9  N   UNL     1      -9.401  11.973  64.542  1.00  0.00    -0.425 NA 
HETATM   10  N   UNL     1      -9.950  10.515  66.247  1.00  0.00    -0.213 NA 
HETATM   11  H1  UNL     1      -9.054  11.197  63.978  1.00  0.00     0.000 HD 
HETATM   12  C   UNL     1     -10.511  10.292  67.451  1.00  0.00    -0.251 A  
HETATM   13  H2  UNL     1      -8.665  12.677  64.589  1.00  0.00     0.000 HD 
HETATM   14  N   UNL     1     -11.030  11.244  68.259  1.00  0.00    -0.205 NA 
HETATM   15  H2  UNL     1     -12.257  13.955  68.076  1.00  0.00     0.000 HD 
HETATM   16  H1  UNL     1     -11.980  13.224  69.529  1.00  0.00     0.000 HD 
HETATM   17  C   UNL     1     -10.948  12.509  67.822  1.00  0.00    -0.234 A  
HETATM   18  N   UNL     1     -11.554  13.471  68.635  1.00  0.00    -0.305 NA 
BRANCH  12  19
HETATM   19  C   UNL     1     -10.551   8.897  67.930  1.00  0.00    -0.183 A  
HETATM   20  C   UNL     1     -10.343   6.671  68.070  1.00  0.00    -0.191 A  
HETATM   21  N   UNL     1     -11.160   8.539  69.086  1.00  0.00     0.091 NA 
HETATM   22  N   UNL     1     -10.958   7.200  69.168  1.00  0.00    -0.162 NA 
HETATM   23  C   UNL     1      -8.913   6.159  65.852  1.00  0.00    -0.133 A  
HETATM   24  N   UNL     1     -10.095   5.367  67.830  1.00  0.00    -0.165 NA 
HETATM   25  C   UNL     1      -9.992   7.754  67.277  1.00  0.00    -0.277 A  
HETATM   26  C   UNL     1      -9.382   5.164  66.700  1.00  0.00    -0.137 A  
HETATM   27  C   UNL     1      -9.227   7.490  66.127  1.00  0.00    -0.156 A  
BRANCH  22  28
HETATM   28  C   UNL     1     -11.439   6.450  70.319  1.00  0.00    -0.402 C  
BRANCH  28  29
HETATM   29  C   UNL     1     -10.484   6.449  71.489  1.00  0.00    -0.256 A  
HETATM   30  C   UNL     1      -9.792   7.445  73.604  1.00  0.00    -0.365 A  
HETATM   31  C   UNL     1      -8.573   6.777  73.534  1.00  0.00    -0.139 A  
HETATM   32  C   UNL     1     -10.735   7.271  72.592  1.00  0.00    -0.278 A  
HETATM   33  C   UNL     1      -8.321   5.911  72.471  1.00  0.00    -0.116 A  
HETATM   34  F   UNL     1     -11.889   7.948  72.674  1.00  0.00    -0.363 F  
HETATM   35  C   UNL     1      -9.268   5.746  71.453  1.00  0.00    -0.157 A  
ENDBRANCH  28  29
ENDBRANCH  22  28
ENDBRANCH  12  19
ENDBRANCH   4   7
ENDBRANCH   2   3
TORSDOF 5
ENDMDL
MODEL      115
REMARK 921   NORMALIZED FREE ENERGY PREDICTED BY IDOCK:   -5.49 KCAL/MOL
REMARK 922        TOTAL FREE ENERGY PREDICTED BY IDOCK:   -7.91 KCAL/MOL
REMARK 923 INTER-LIGAND FREE ENERGY PREDICTED BY IDOCK:   -7.07 KCAL/MOL
REMARK 924 INTRA-LIGAND FREE ENERGY PREDICTED BY IDOCK:   -0.83 KCAL/MOL
REMARK 927      BINDING AFFINITY PREDICTED BY RF-SCORE:    0.00 PKD
ROOT
HETATM    1  C   UNL     1     -12.304  12.882  63.343  1.00  0.00    -0.410 C  
HETATM    2  O   UNL     1     -12.212  12.997  64.762  1.00  0.00    -0.387 OA 
ENDROOT
BRANCH   2   3
HETATM    3  C   UNL     1     -11.583  14.123  65.198  1.00  0.00    -0.344 C  
HETATM    4  N   UNL     1     -10.769  13.898  66.297  1.00  0.00    -0.284 N  
HETATM    5  O   UNL     1     -11.730  15.225  64.678  1.00  0.00    -0.392 OA 
HETATM    6  C   UNL     1      -9.980  14.969  66.875  1.00  0.00    -0.244 C  
BRANCH   4   7
HETATM    7  C   UNL     1     -10.559  12.589  66.810  1.00  0.00    -0.233 A  
HETATM    8  C   UNL     1      -9.703  11.684  66.187  1.00  0.00    -0.229 A  
HETATM    9  N   UNL     1      -9.125  11.946  64.943  1.00  0.00    -0.355 NA 
HETATM   10  N   UNL     1      -9.438  10.476  66.696  1.00  0.00    -0.165 NA 
HETATM   11  H1  UNL     1      -8.499  11.284  64.487  1.00  0.00     0.000 HD 
HETATM   12  C   UNL     1     -10.059  10.155  67.847  1.00  0.00    -0.176 A  
HETATM   13  H2  UNL     1      -8.638  12.840  65.009  1.00  0.00     0.000 HD 
HETATM   14  N   UNL     1     -10.930  10.946  68.512  1.00  0.00    -0.210 NA 
HETATM   15  H2  UNL     1     -12.859  13.154  67.972  1.00  0.00     0.000 HD 
HETATM   16  H1  UNL     1     -12.568  12.611  69.502  1.00  0.00     0.000 HD 
HETATM   17  C   UNL     1     -11.165  12.154  67.982  1.00  0.00    -0.264 A  
HETATM   18  N   UNL     1     -12.123  12.930  68.641  1.00  0.00    -0.227 NA 
BRANCH  12  19
HETATM   19  C   UNL     1      -9.752   8.836  68.435  1.00  0.00    -0.162 A  
HETATM   20  C   UNL     1      -9.593   6.629  68.785  1.00  0.00    -0.131 A  
HETATM   21  N   UNL     1      -9.219   8.693  69.672  1.00  0.00    -0.155 NA 
HETATM   22  N   UNL     1      -9.078   7.353  69.823  1.00  0.00    -0.142 NA 
HETATM   23  C   UNL     1     -10.499   5.680  66.439  1.00  0.00    -0.256 A  
HETATM   24  N   UNL     1      -9.678   5.286  68.699  1.00  0.00    -0.136 NA 
HETATM   25  C   UNL     1      -9.970   7.560  67.828  1.00  0.00    -0.214 A  
HETATM   26  C   UNL     1     -10.147   4.862  67.504  1.00  0.00    -0.132 A  
HETATM   27  C   UNL     1     -10.425   7.065  66.593  1.00  0.00    -0.209 A  
BRANCH  22  28
HETATM   28  C   UNL     1      -8.485   6.803  71.033  1.00  0.00    -0.132 C  
BRANCH  28  29
HETATM   29  C   UNL     1      -9.483   6.150  71.959  1.00  0.00    -0.161 A  
HETATM   30  C   UNL     1      -9.985   4.364  73.541  1.00  0.00    -0.178 A  
HETATM   31  C   UNL     1     -11.346   4.642  73.441  1.00  0.00    -0.394 A  
HETATM   32  C   UNL     1      -9.070   5.119  72.810  1.00  0.00    -0.133 A  
HETATM   33  C   UNL     1     -11.778   5.698  72.640  1.00  0.00    -0.256 A  
HETATM   34  F   UNL     1      -7.769   4.812  72.907  1.00  0.00    -0.085 F  
HETATM   35  C   UNL     1     -10.854   6.448  71.902  1.00  0.00    -0.279 A  
ENDBRANCH  28  29
ENDBRANCH  22  28
ENDBRANCH  12  19
ENDBRANCH   4   7
ENDBRANCH   2   3
TORSDOF 5
ENDMDL
MODEL      116
REMARK 921   NORMALIZED FREE ENERGY PREDICTED BY IDOCK:   -5.46 KCAL/MOL
REMARK 922        TOTAL FREE ENERGY PREDICTED BY IDOCK:   -7.87 KCAL/MOL
REMARK 923 INTER-LIGAND FREE ENERGY PREDICTED BY IDOCK:   -7.09 KCAL/MOL
REMARK 924 INTRA-LIGAND FREE ENERGY PREDICTED BY IDOCK:   -0.78 KCAL/MOL
REMARK 927      BINDING AFFINITY PREDICTED BY RF-SCORE:    0.00 PKD
ROOT
HETATM    1  C   UNL     1      -9.234   7.357  73.864  1.00  0.00    -0.265 C  
HETATM    2  O   UNL     1      -9.969   7.853  72.746  1.00  0.00    -0.231 OA 
ENDROOT
BRANCH   2   3
HETATM    3  C   UNL     1     -11.116   7.171  72.476  1.00  0.00    -0.280 C  
HETATM    4  N   UNL     1     -11.798   7.670  71.377  1.00  0.00    -0.285 N  
HETATM    5  O   UNL     1     -11.511   6.219  73.143  1.00  0.00    -0.098 OA 
HETATM    6  C   UNL     1     -13.018   7.044  70.906  1.00  0.00    -0.040 C  
BRANCH   4   7
HETATM    7  C   UNL     1     -11.257   8.716  70.581  1.00  0.00    -0.252 A  
HETATM    8  C   UNL     1     -11.610  10.048  70.777  1.00  0.00    -0.360 A  
HETATM    9  N   UNL     1     -12.629  10.422  71.656  1.00  0.00    -0.419 NA 
HETATM   10  N   UNL     1     -11.055  11.049  70.087  1.00  0.00    -0.185 NA 
HETATM   11  H1  UNL     1     -12.888  11.398  71.800  1.00  0.00     0.000 HD 
HETATM   12  C   UNL     1     -10.137  10.712  69.161  1.00  0.00    -0.216 A  
HETATM   13  H2  UNL     1     -12.417  10.019  72.568  1.00  0.00     0.000 HD 
HETATM   14  N   UNL     1      -9.750   9.450  68.870  1.00  0.00    -0.160 NA 
HETATM   15  H2  UNL     1     -10.811   6.666  68.980  1.00  0.00     0.000 HD 
HETATM   16  H1  UNL     1      -9.267   6.987  68.497  1.00  0.00     0.000 HD 
HETATM   17  C   UNL     1     -10.315   8.470  69.588  1.00  0.00    -0.218 A  
HETATM   18  N   UNL     1      -9.958   7.168  69.226  1.00  0.00    -0.165 NA 
BRANCH  12  19
HETATM   19  C   UNL     1      -9.496  11.810  68.413  1.00  0.00    -0.188 A  
HETATM   20  C   UNL     1      -7.998  13.272  67.614  1.00  0.00    -0.176 A  
HETATM   21  N   UNL     1     -10.196  12.674  67.639  1.00  0.00    -0.214 NA 
HETATM   22  N   UNL     1      -9.252  13.501  67.124  1.00  0.00    -0.227 NA 
HETATM   23  C   UNL     1      -5.726  12.287  68.658  1.00  0.00    -0.053 A  
HETATM   24  N   UNL     1      -6.885  13.988  67.355  1.00  0.00    -0.226 NA 
HETATM   25  C   UNL     1      -8.102  12.131  68.395  1.00  0.00    -0.149 A  
HETATM   26  C   UNL     1      -5.774  13.456  67.910  1.00  0.00    -0.129 A  
HETATM   27  C   UNL     1      -6.912  11.603  68.926  1.00  0.00    -0.109 A  
BRANCH  22  28
HETATM   28  C   UNL     1      -9.623  14.555  66.191  1.00  0.00    -0.297 C  
BRANCH  28  29
HETATM   29  C   UNL     1      -9.969  15.865  66.857  1.00  0.00    -0.253 A  
HETATM   30  C   UNL     1     -10.642  18.197  66.625  1.00  0.00    -0.296 A  
HETATM   31  C   UNL     1     -10.291  18.443  67.950  1.00  0.00    -0.425 A  
HETATM   32  C   UNL     1     -10.487  16.917  66.094  1.00  0.00    -0.272 A  
HETATM   33  C   UNL     1      -9.822  17.399  68.744  1.00  0.00    -0.311 A  
HETATM   34  F   UNL     1     -10.809  16.717  64.809  1.00  0.00    -0.372 F  
HETATM   35  C   UNL     1      -9.660  16.117  68.204  1.00  0.00    -0.217 A  
ENDBRANCH  28  29
ENDBRANCH  22  28
ENDBRANCH  12  19
ENDBRANCH   4   7
ENDBRANCH   2   3
TORSDOF 5
ENDMDL
MODEL      117
REMARK 921   NORMALIZED FREE ENERGY PREDICTED BY IDOCK:   -5.46 KCAL/MOL
REMARK 922        TOTAL FREE ENERGY PREDICTED BY IDOCK:   -7.86 KCAL/MOL
REMARK 923 INTER-LIGAND FREE ENERGY PREDICTED BY IDOCK:   -6.92 KCAL/MOL
REMARK 924 INTRA-LIGAND FREE ENERGY PREDICTED BY IDOCK:   -0.94 KCAL/MOL
REMARK 927      BINDING AFFINITY PREDICTED BY RF-SCORE:    0.00 PKD
ROOT
HETATM    1  C   UNL     1     -10.208   4.888  65.772  1.00  0.00    -0.180 C  
HETATM    2  O   UNL     1      -9.751   5.989  66.555  1.00  0.00    -0.154 OA 
ENDROOT
BRANCH   2   3
HETATM    3  C   UNL     1      -8.584   5.764  67.220  1.00  0.00    -0.109 C  
HETATM    4  N   UNL     1      -7.939   6.932  67.594  1.00  0.00    -0.112 N  
HETATM    5  O   UNL     1      -8.145   4.642  67.455  1.00  0.00    -0.100 OA 
HETATM    6  C   UNL     1      -6.705   6.895  68.354  1.00  0.00    -0.068 C  
BRANCH   4   7
HETATM    7  C   UNL     1      -8.531   8.207  67.381  1.00  0.00    -0.126 A  
HETATM    8  C   UNL     1      -8.286   8.948  66.228  1.00  0.00    -0.117 A  
HETATM    9  N   UNL     1      -7.328   8.561  65.288  1.00  0.00    -0.083 NA 
HETATM   10  N   UNL     1      -8.891  10.114  65.979  1.00  0.00    -0.140 NA 
HETATM   11  H1  UNL     1      -7.149   9.103  64.443  1.00  0.00     0.000 HD 
HETATM   12  C   UNL     1      -9.749  10.563  66.915  1.00  0.00    -0.180 A  
HETATM   13  H2  UNL     1      -7.540   7.605  65.004  1.00  0.00     0.000 HD 
HETATM   14  N   UNL     1     -10.030   9.939  68.080  1.00  0.00    -0.147 NA 
HETATM   15  H2  UNL     1      -8.766   8.044  70.004  1.00  0.00     0.000 HD 
HETATM   16  H1  UNL     1     -10.313   8.581  70.205  1.00  0.00     0.000 HD 
HETATM   17  C   UNL     1      -9.417   8.767  68.294  1.00  0.00    -0.141 A  
HETATM   18  N   UNL     1      -9.662   8.171  69.534  1.00  0.00    -0.168 NA 
BRANCH  12  19
HETATM   19  C   UNL     1     -10.446  11.834  66.639  1.00  0.00    -0.224 A  
HETATM   20  C   UNL     1     -11.528  13.509  65.616  1.00  0.00    -0.315 A  
HETATM   21  N   UNL     1     -10.552  12.825  67.557  1.00  0.00    -0.227 NA 
HETATM   22  N   UNL     1     -11.265  13.791  66.926  1.00  0.00    -0.305 NA 
HETATM   23  C   UNL     1     -12.003  12.406  63.210  1.00  0.00    -0.509 A  
HETATM   24  N   UNL     1     -12.135  14.314  64.721  1.00  0.00    -0.425 NA 
HETATM   25  C   UNL     1     -11.080  12.212  65.413  1.00  0.00    -0.362 A  
HETATM   26  C   UNL     1     -12.341  13.715  63.527  1.00  0.00    -0.201 A  
HETATM   27  C   UNL     1     -11.345  11.627  64.162  1.00  0.00    -0.397 A  
BRANCH  22  28
HETATM   28  C   UNL     1     -11.624  15.017  67.622  1.00  0.00    -0.312 C  
BRANCH  28  29
HETATM   29  C   UNL     1     -10.477  15.986  67.782  1.00  0.00    -0.298 A  
HETATM   30  C   UNL     1      -9.005  17.646  66.769  1.00  0.00    -0.272 A  
HETATM   31  C   UNL     1      -8.139  17.559  67.857  1.00  0.00    -0.230 A  
HETATM   32  C   UNL     1     -10.163  16.870  66.744  1.00  0.00    -0.306 A  
HETATM   33  C   UNL     1      -8.457  16.725  68.927  1.00  0.00    -0.217 A  
HETATM   34  F   UNL     1     -10.963  16.956  65.672  1.00  0.00    -0.268 F  
HETATM   35  C   UNL     1      -9.618  15.942  68.892  1.00  0.00    -0.230 A  
ENDBRANCH  28  29
ENDBRANCH  22  28
ENDBRANCH  12  19
ENDBRANCH   4   7
ENDBRANCH   2   3
TORSDOF 5
ENDMDL
MODEL      118
REMARK 921   NORMALIZED FREE ENERGY PREDICTED BY IDOCK:   -5.42 KCAL/MOL
REMARK 922        TOTAL FREE ENERGY PREDICTED BY IDOCK:   -7.81 KCAL/MOL
REMARK 923 INTER-LIGAND FREE ENERGY PREDICTED BY IDOCK:   -6.79 KCAL/MOL
REMARK 924 INTRA-LIGAND FREE ENERGY PREDICTED BY IDOCK:   -1.01 KCAL/MOL
REMARK 927      BINDING AFFINITY PREDICTED BY RF-SCORE:    0.00 PKD
ROOT
HETATM    1  C   UNL     1      -6.514  18.688  69.308  1.00  0.00    -0.270 C  
HETATM    2  O   UNL     1      -7.691  17.994  68.899  1.00  0.00    -0.278 OA 
ENDROOT
BRANCH   2   3
HETATM    3  C   UNL     1      -8.711  18.800  68.494  1.00  0.00    -0.346 C  
HETATM    4  N   UNL     1      -9.744  18.103  67.887  1.00  0.00    -0.288 N  
HETATM    5  O   UNL     1      -8.710  20.018  68.643  1.00  0.00    -0.146 OA 
HETATM    6  C   UNL     1     -10.939  18.785  67.432  1.00  0.00    -0.213 C  
BRANCH   4   7
HETATM    7  C   UNL     1      -9.742  16.683  67.818  1.00  0.00    -0.240 A  
HETATM    8  C   UNL     1      -9.193  16.000  66.736  1.00  0.00    -0.240 A  
HETATM    9  N   UNL     1      -8.756  16.662  65.586  1.00  0.00    -0.325 NA 
HETATM   10  N   UNL     1      -9.117  14.666  66.691  1.00  0.00    -0.263 NA 
HETATM   11  H1  UNL     1      -8.354  16.161  64.794  1.00  0.00     0.000 HD 
HETATM   12  C   UNL     1      -9.620  13.994  67.744  1.00  0.00    -0.216 A  
HETATM   13  H2  UNL     1      -8.088  17.376  65.874  1.00  0.00     0.000 HD 
HETATM   14  N   UNL     1     -10.203  14.560  68.825  1.00  0.00    -0.241 NA 
HETATM   15  H2  UNL     1     -11.682  17.038  69.570  1.00  0.00     0.000 HD 
HETATM   16  H1  UNL     1     -11.297  15.888  70.688  1.00  0.00     0.000 HD 
HETATM   17  C   UNL     1     -10.252  15.899  68.845  1.00  0.00    -0.226 A  
HETATM   18  N   UNL     1     -10.922  16.464  69.934  1.00  0.00    -0.361 NA 
BRANCH  12  19
HETATM   19  C   UNL     1      -9.516  12.522  67.720  1.00  0.00    -0.197 A  
HETATM   20  C   UNL     1      -8.768  10.430  67.433  1.00  0.00    -0.125 A  
HETATM   21  N   UNL     1     -10.558  11.710  68.020  1.00  0.00    -0.194 NA 
HETATM   22  N   UNL     1     -10.051  10.458  67.898  1.00  0.00    -0.166 NA 
HETATM   23  C   UNL     1      -6.210  10.898  66.752  1.00  0.00    -0.093 A  
HETATM   24  N   UNL     1      -8.041   9.336  67.129  1.00  0.00    -0.109 NA 
HETATM   25  C   UNL     1      -8.358  11.754  67.379  1.00  0.00    -0.159 A  
HETATM   26  C   UNL     1      -6.767   9.627  66.785  1.00  0.00    -0.075 A  
HETATM   27  C   UNL     1      -7.015  12.000  67.042  1.00  0.00    -0.095 A  
BRANCH  22  28
HETATM   28  C   UNL     1     -10.877   9.296  68.190  1.00  0.00    -0.090 C  
BRANCH  28  29
HETATM   29  C   UNL     1     -10.701   8.759  69.591  1.00  0.00    -0.212 A  
HETATM   30  C   UNL     1     -11.116   9.017  71.980  1.00  0.00    -0.371 A  
HETATM   31  C   UNL     1     -10.148   8.058  72.264  1.00  0.00    -0.311 A  
HETATM   32  C   UNL     1     -11.389   9.353  70.654  1.00  0.00    -0.292 A  
HETATM   33  C   UNL     1      -9.487   7.414  71.219  1.00  0.00    -0.159 A  
HETATM   34  F   UNL     1     -12.308  10.299  70.413  1.00  0.00    -0.315 F  
HETATM   35  C   UNL     1      -9.759   7.761  69.890  1.00  0.00    -0.176 A  
ENDBRANCH  28  29
ENDBRANCH  22  28
ENDBRANCH  12  19
ENDBRANCH   4   7
ENDBRANCH   2   3
TORSDOF 5
ENDMDL
MODEL      119
REMARK 921   NORMALIZED FREE ENERGY PREDICTED BY IDOCK:   -5.39 KCAL/MOL
REMARK 922        TOTAL FREE ENERGY PREDICTED BY IDOCK:   -7.77 KCAL/MOL
REMARK 923 INTER-LIGAND FREE ENERGY PREDICTED BY IDOCK:   -6.76 KCAL/MOL
REMARK 924 INTRA-LIGAND FREE ENERGY PREDICTED BY IDOCK:   -1.00 KCAL/MOL
REMARK 927      BINDING AFFINITY PREDICTED BY RF-SCORE:    0.00 PKD
ROOT
HETATM    1  C   UNL     1     -13.769   8.503  72.498  1.00  0.00    -0.221 C  
HETATM    2  O   UNL     1     -13.072   7.940  71.388  1.00  0.00    -0.313 OA 
ENDROOT
BRANCH   2   3
HETATM    3  C   UNL     1     -12.402   6.787  71.667  1.00  0.00    -0.362 C  
HETATM    4  N   UNL     1     -11.135   6.748  71.107  1.00  0.00    -0.259 N  
HETATM    5  O   UNL     1     -12.875   5.875  72.337  1.00  0.00     0.043 OA 
HETATM    6  C   UNL     1     -10.252   5.621  71.333  1.00  0.00    -0.214 C  
BRANCH   4   7
HETATM    7  C   UNL     1     -10.595   7.866  70.414  1.00  0.00    -0.228 A  
HETATM    8  C   UNL     1     -10.767   8.036  69.044  1.00  0.00    -0.088 A  
HETATM    9  N   UNL     1     -11.341   7.047  68.241  1.00  0.00    -0.468 NA 
HETATM   10  N   UNL     1     -10.329   9.118  68.391  1.00  0.00    -0.201 NA 
HETATM   11  H1  UNL     1     -11.468   7.172  67.237  1.00  0.00     0.000 HD 
HETATM   12  C   UNL     1      -9.683  10.046  69.123  1.00  0.00    -0.209 A  
HETATM   13  H2  UNL     1     -12.248   6.810  68.641  1.00  0.00     0.000 HD 
HETATM   14  N   UNL     1      -9.435   9.961  70.449  1.00  0.00    -0.134 NA 
HETATM   15  H2  UNL     1      -9.060   7.890  72.560  1.00  0.00     0.000 HD 
HETATM   16  H1  UNL     1      -9.058   9.501  72.915  1.00  0.00     0.000 HD 
HETATM   17  C   UNL     1      -9.898   8.870  71.075  1.00  0.00    -0.253 A  
HETATM   18  N   UNL     1      -9.569   8.764  72.430  1.00  0.00    -0.281 NA 
BRANCH  12  19
HETATM   19  C   UNL     1      -9.221  11.258  68.420  1.00  0.00    -0.178 A  
HETATM   20  C   UNL     1      -7.955  12.938  67.648  1.00  0.00    -0.167 A  
HETATM   21  N   UNL     1     -10.062  12.080  67.748  1.00  0.00    -0.190 NA 
HETATM   22  N   UNL     1      -9.254  13.045  67.242  1.00  0.00    -0.205 NA 
HETATM   23  C   UNL     1      -5.524  12.168  68.499  1.00  0.00    -0.053 A  
HETATM   24  N   UNL     1      -6.950  13.797  67.381  1.00  0.00    -0.161 NA 
HETATM   25  C   UNL     1      -7.877  11.745  68.351  1.00  0.00    -0.141 A  
HETATM   26  C   UNL     1      -5.753  13.368  67.838  1.00  0.00    -0.129 A  
HETATM   27  C   UNL     1      -6.604  11.331  68.780  1.00  0.00    -0.062 A  
BRANCH  22  28
HETATM   28  C   UNL     1      -9.801  14.103  66.406  1.00  0.00    -0.296 C  
BRANCH  28  29
HETATM   29  C   UNL     1     -10.086  15.384  67.154  1.00  0.00    -0.245 A  
HETATM   30  C   UNL     1      -9.421  17.670  67.683  1.00  0.00    -0.258 A  
HETATM   31  C   UNL     1     -10.310  17.693  68.755  1.00  0.00    -0.348 A  
HETATM   32  C   UNL     1      -9.322  16.526  66.892  1.00  0.00    -0.232 A  
HETATM   33  C   UNL     1     -11.120  16.586  69.003  1.00  0.00    -0.284 A  
HETATM   34  F   UNL     1      -8.439  16.525  65.883  1.00  0.00    -0.341 F  
HETATM   35  C   UNL     1     -11.010  15.438  68.210  1.00  0.00    -0.288 A  
ENDBRANCH  28  29
ENDBRANCH  22  28
ENDBRANCH  12  19
ENDBRANCH   4   7
ENDBRANCH   2   3
TORSDOF 5
ENDMDL
MODEL      120
REMARK 921   NORMALIZED FREE ENERGY PREDICTED BY IDOCK:   -5.39 KCAL/MOL
REMARK 922        TOTAL FREE ENERGY PREDICTED BY IDOCK:   -7.77 KCAL/MOL
REMARK 923 INTER-LIGAND FREE ENERGY PREDICTED BY IDOCK:   -7.13 KCAL/MOL
REMARK 924 INTRA-LIGAND FREE ENERGY PREDICTED BY IDOCK:   -0.64 KCAL/MOL
REMARK 927      BINDING AFFINITY PREDICTED BY RF-SCORE:    0.00 PKD
ROOT
HETATM    1  C   UNL     1      -9.923  17.818  68.939  1.00  0.00    -0.332 C  
HETATM    2  O   UNL     1     -10.360  16.611  68.318  1.00  0.00    -0.273 OA 
ENDROOT
BRANCH   2   3
HETATM    3  C   UNL     1     -10.552  16.705  66.973  1.00  0.00    -0.247 C  
HETATM    4  N   UNL     1     -10.466  15.482  66.326  1.00  0.00    -0.297 N  
HETATM    5  O   UNL     1     -10.770  17.764  66.393  1.00  0.00    -0.247 OA 
HETATM    6  C   UNL     1     -10.690  15.374  64.898  1.00  0.00    -0.393 C  
BRANCH   4   7
HETATM    7  C   UNL     1     -10.302  14.270  67.050  1.00  0.00    -0.267 A  
HETATM    8  C   UNL     1     -11.385  13.465  67.392  1.00  0.00    -0.309 A  
HETATM    9  N   UNL     1     -12.705  13.874  67.188  1.00  0.00    -0.268 NA 
HETATM   10  N   UNL     1     -11.241  12.287  68.008  1.00  0.00    -0.249 NA 
HETATM   11  H1  UNL     1     -13.499  13.285  67.439  1.00  0.00     0.000 HD 
HETATM   12  C   UNL     1      -9.984  11.909  68.307  1.00  0.00    -0.202 A  
HETATM   13  H2  UNL     1     -12.804  14.126  66.205  1.00  0.00     0.000 HD 
HETATM   14  N   UNL     1      -8.870  12.630  68.049  1.00  0.00    -0.188 NA 
HETATM   15  H2  UNL     1      -8.037  15.469  67.678  1.00  0.00     0.000 HD 
HETATM   16  H1  UNL     1      -6.972  14.222  67.498  1.00  0.00     0.000 HD 
HETATM   17  C   UNL     1      -9.047  13.801  67.420  1.00  0.00    -0.221 A  
HETATM   18  N   UNL     1      -7.894  14.566  67.226  1.00  0.00    -0.195 NA 
BRANCH  12  19
HETATM   19  C   UNL     1      -9.809  10.597  68.959  1.00  0.00    -0.205 A  
HETATM   20  C   UNL     1      -8.928   8.825  70.010  1.00  0.00    -0.158 A  
HETATM   21  N   UNL     1     -10.784   9.657  68.983  1.00  0.00    -0.220 NA 
HETATM   22  N   UNL     1     -10.239   8.628  69.680  1.00  0.00    -0.203 NA 
HETATM   23  C   UNL     1      -6.490   9.769  70.633  1.00  0.00    -0.109 A  
HETATM   24  N   UNL     1      -8.107   7.946  70.619  1.00  0.00    -0.100 NA 
HETATM   25  C   UNL     1      -8.635  10.126  69.627  1.00  0.00    -0.170 A  
HETATM   26  C   UNL     1      -6.892   8.468  70.902  1.00  0.00    -0.052 A  
HETATM   27  C   UNL     1      -7.368  10.628  69.970  1.00  0.00     0.013 A  
BRANCH  22  28
HETATM   28  C   UNL     1     -11.016   7.429  69.956  1.00  0.00    -0.248 C  
BRANCH  28  29
HETATM   29  C   UNL     1     -10.661   6.256  69.074  1.00  0.00    -0.362 A  
HETATM   30  C   UNL     1      -9.412   4.182  68.783  1.00  0.00    -0.231 A  
HETATM   31  C   UNL     1      -9.651   4.217  67.411  1.00  0.00    -0.222 A  
HETATM   32  C   UNL     1      -9.922   5.191  69.599  1.00  0.00    -0.243 A  
HETATM   33  C   UNL     1     -10.429   5.240  66.872  1.00  0.00    -0.313 A  
HETATM   34  F   UNL     1      -9.653   5.144  70.911  1.00  0.00    -0.182 F  
HETATM   35  C   UNL     1     -10.932   6.254  67.696  1.00  0.00    -0.438 A  
ENDBRANCH  28  29
ENDBRANCH  22  28
ENDBRANCH  12  19
ENDBRANCH   4   7
ENDBRANCH   2   3
TORSDOF 5
ENDMDL
MODEL      121
REMARK 921   NORMALIZED FREE ENERGY PREDICTED BY IDOCK:   -5.38 KCAL/MOL
REMARK 922        TOTAL FREE ENERGY PREDICTED BY IDOCK:   -7.76 KCAL/MOL
REMARK 923 INTER-LIGAND FREE ENERGY PREDICTED BY IDOCK:   -7.52 KCAL/MOL
REMARK 924 INTRA-LIGAND FREE ENERGY PREDICTED BY IDOCK:   -0.24 KCAL/MOL
REMARK 927      BINDING AFFINITY PREDICTED BY RF-SCORE:    0.00 PKD
ROOT
HETATM    1  C   UNL     1      -9.723  16.449  65.656  1.00  0.00    -0.130 C  
HETATM    2  O   UNL     1     -10.635  15.363  65.811  1.00  0.00    -0.310 OA 
ENDROOT
BRANCH   2   3
HETATM    3  C   UNL     1     -11.465  15.166  64.750  1.00  0.00    -0.383 C  
HETATM    4  N   UNL     1     -11.791  13.833  64.557  1.00  0.00    -0.398 N  
HETATM    5  O   UNL     1     -11.875  16.074  64.034  1.00  0.00    -0.762 OA 
HETATM    6  C   UNL     1     -12.703  13.431  63.504  1.00  0.00     0.176 C  
BRANCH   4   7
HETATM    7  C   UNL     1     -11.367  12.826  65.466  1.00  0.00    -0.312 A  
HETATM    8  C   UNL     1     -11.785  12.809  66.794  1.00  0.00    -0.392 A  
HETATM    9  N   UNL     1     -12.514  13.861  67.354  1.00  0.00    -0.432 NA 
HETATM   10  N   UNL     1     -11.454  11.829  67.641  1.00  0.00    -0.375 NA 
HETATM   11  H1  UNL     1     -12.821  13.849  68.326  1.00  0.00     0.000 HD 
HETATM   12  C   UNL     1     -10.668  10.849  67.156  1.00  0.00    -0.270 A  
HETATM   13  H2  UNL     1     -13.336  14.013  66.770  1.00  0.00     0.000 HD 
HETATM   14  N   UNL     1     -10.182  10.789  65.897  1.00  0.00    -0.257 NA 
HETATM   15  H2  UNL     1      -9.463  12.613  63.651  1.00  0.00     0.000 HD 
HETATM   16  H1  UNL     1      -9.367  10.973  63.501  1.00  0.00     0.000 HD 
HETATM   17  C   UNL     1     -10.542  11.780  65.069  1.00  0.00    -0.288 A  
HETATM   18  N   UNL     1      -9.972  11.741  63.793  1.00  0.00    -0.341 NA 
BRANCH  12  19
HETATM   19  C   UNL     1     -10.320   9.746  68.073  1.00  0.00    -0.207 A  
HETATM   20  C   UNL     1      -9.251   8.435  69.542  1.00  0.00    -0.154 A  
HETATM   21  N   UNL     1     -11.071   8.624  68.185  1.00  0.00     0.199 NA 
HETATM   22  N   UNL     1     -10.431   7.886  69.126  1.00  0.00    -0.220 NA 
HETATM   23  C   UNL     1      -7.179  10.011  70.209  1.00  0.00    -0.155 A  
HETATM   24  N   UNL     1      -8.361   7.889  70.395  1.00  0.00    -0.120 NA 
HETATM   25  C   UNL     1      -9.183   9.682  68.938  1.00  0.00    -0.147 A  
HETATM   26  C   UNL     1      -7.336   8.718  70.690  1.00  0.00    -0.072 A  
HETATM   27  C   UNL     1      -8.111  10.515  69.301  1.00  0.00    -0.152 A  
BRANCH  22  28
HETATM   28  C   UNL     1     -10.973   6.606  69.556  1.00  0.00    -0.313 C  
BRANCH  28  29
HETATM   29  C   UNL     1     -10.298   5.413  68.922  1.00  0.00    -0.260 A  
HETATM   30  C   UNL     1      -9.871   4.093  66.916  1.00  0.00    -0.197 A  
HETATM   31  C   UNL     1      -9.386   3.045  67.695  1.00  0.00    -0.242 A  
HETATM   32  C   UNL     1     -10.313   5.264  67.531  1.00  0.00    -0.162 A  
HETATM   33  C   UNL     1      -9.312   3.191  69.079  1.00  0.00    -0.230 A  
HETATM   34  F   UNL     1     -10.798   6.245  66.757  1.00  0.00    -0.324 F  
HETATM   35  C   UNL     1      -9.765   4.366  69.691  1.00  0.00    -0.289 A  
ENDBRANCH  28  29
ENDBRANCH  22  28
ENDBRANCH  12  19
ENDBRANCH   4   7
ENDBRANCH   2   3
TORSDOF 5
ENDMDL
MODEL      122
REMARK 921   NORMALIZED FREE ENERGY PREDICTED BY IDOCK:   -5.35 KCAL/MOL
REMARK 922        TOTAL FREE ENERGY PREDICTED BY IDOCK:   -7.71 KCAL/MOL
REMARK 923 INTER-LIGAND FREE ENERGY PREDICTED BY IDOCK:   -6.78 KCAL/MOL
REMARK 924 INTRA-LIGAND FREE ENERGY PREDICTED BY IDOCK:   -0.93 KCAL/MOL
REMARK 927      BINDING AFFINITY PREDICTED BY RF-SCORE:    0.00 PKD
ROOT
HETATM    1  C   UNL     1      -7.163   3.845  66.960  1.00  0.00    -0.064 C  
HETATM    2  O   UNL     1      -8.309   4.210  67.726  1.00  0.00    -0.094 OA 
ENDROOT
BRANCH   2   3
HETATM    3  C   UNL     1      -8.099   4.254  69.071  1.00  0.00    -0.071 C  
HETATM    4  N   UNL     1      -8.291   5.518  69.608  1.00  0.00    -0.101 N  
HETATM    5  O   UNL     1      -7.764   3.279  69.737  1.00  0.00    -0.044 OA 
HETATM    6  C   UNL     1      -8.159   5.753  71.032  1.00  0.00    -0.120 C  
BRANCH   4   7
HETATM    7  C   UNL     1      -8.766   6.597  68.814  1.00  0.00    -0.128 A  
HETATM    8  C   UNL     1     -10.125   6.868  68.680  1.00  0.00    -0.162 A  
HETATM    9  N   UNL     1     -11.105   6.009  69.182  1.00  0.00    -0.370 NA 
HETATM   10  N   UNL     1     -10.585   7.922  67.997  1.00  0.00    -0.174 NA 
HETATM   11  H1  UNL     1     -12.101   6.207  69.083  1.00  0.00     0.000 HD 
HETATM   12  C   UNL     1      -9.665   8.717  67.417  1.00  0.00    -0.175 A  
HETATM   13  H2  UNL     1     -10.914   5.865  70.173  1.00  0.00     0.000 HD 
HETATM   14  N   UNL     1      -8.328   8.523  67.459  1.00  0.00    -0.127 NA 
HETATM   15  H2  UNL     1      -6.364   6.301  67.764  1.00  0.00     0.000 HD 
HETATM   16  H1  UNL     1      -5.883   7.875  67.654  1.00  0.00     0.000 HD 
HETATM   17  C   UNL     1      -7.899   7.465  68.161  1.00  0.00    -0.122 A  
HETATM   18  N   UNL     1      -6.520   7.238  68.134  1.00  0.00    -0.044 NA 
BRANCH  12  19
HETATM   19  C   UNL     1     -10.159   9.900  66.686  1.00  0.00    -0.233 A  
HETATM   20  C   UNL     1     -10.510  11.456  65.113  1.00  0.00    -0.295 A  
HETATM   21  N   UNL     1     -10.936  10.846  67.266  1.00  0.00    -0.291 NA 
HETATM   22  N   UNL     1     -11.181  11.733  66.270  1.00  0.00    -0.323 NA 
HETATM   23  C   UNL     1      -9.208  10.368  63.028  1.00  0.00    -0.312 A  
HETATM   24  N   UNL     1     -10.487  12.204  63.992  1.00  0.00    -0.352 NA 
HETATM   25  C   UNL     1      -9.897  10.229  65.319  1.00  0.00    -0.372 A  
HETATM   26  C   UNL     1      -9.813  11.617  62.979  1.00  0.00    -0.305 A  
HETATM   27  C   UNL     1      -9.232   9.649  64.224  1.00  0.00    -0.235 A  
BRANCH  22  28
HETATM   28  C   UNL     1     -12.035  12.888  66.504  1.00  0.00    -0.377 C  
BRANCH  28  29
HETATM   29  C   UNL     1     -11.301  14.090  67.050  1.00  0.00    -0.346 A  
HETATM   30  C   UNL     1     -10.420  15.279  68.988  1.00  0.00    -0.248 A  
HETATM   31  C   UNL     1     -10.262  16.432  68.223  1.00  0.00    -0.255 A  
HETATM   32  C   UNL     1     -10.928  14.123  68.398  1.00  0.00    -0.254 A  
HETATM   33  C   UNL     1     -10.578  16.409  66.866  1.00  0.00    -0.252 A  
HETATM   34  F   UNL     1     -11.093  13.036  69.165  1.00  0.00    -0.264 F  
HETATM   35  C   UNL     1     -11.095  15.246  66.280  1.00  0.00    -0.273 A  
ENDBRANCH  28  29
ENDBRANCH  22  28
ENDBRANCH  12  19
ENDBRANCH   4   7
ENDBRANCH   2   3
TORSDOF 5
ENDMDL
MODEL      123
REMARK 921   NORMALIZED FREE ENERGY PREDICTED BY IDOCK:   -5.33 KCAL/MOL
REMARK 922        TOTAL FREE ENERGY PREDICTED BY IDOCK:   -7.70 KCAL/MOL
REMARK 923 INTER-LIGAND FREE ENERGY PREDICTED BY IDOCK:   -6.74 KCAL/MOL
REMARK 924 INTRA-LIGAND FREE ENERGY PREDICTED BY IDOCK:   -0.95 KCAL/MOL
REMARK 927      BINDING AFFINITY PREDICTED BY RF-SCORE:    0.00 PKD
ROOT
HETATM    1  C   UNL     1     -10.339  11.722  63.232  1.00  0.00    -0.402 C  
HETATM    2  O   UNL     1     -10.537  11.603  64.640  1.00  0.00    -0.280 OA 
ENDROOT
BRANCH   2   3
HETATM    3  C   UNL     1     -10.415  12.772  65.328  1.00  0.00    -0.292 C  
HETATM    4  N   UNL     1     -10.124  12.582  66.670  1.00  0.00    -0.227 N  
HETATM    5  O   UNL     1     -10.557  13.878  64.816  1.00  0.00    -0.391 OA 
HETATM    6  C   UNL     1      -9.910  13.710  67.556  1.00  0.00    -0.227 C  
BRANCH   4   7
HETATM    7  C   UNL     1      -9.879  11.286  67.200  1.00  0.00    -0.190 A  
HETATM    8  C   UNL     1     -10.887  10.530  67.792  1.00  0.00    -0.294 A  
HETATM    9  N   UNL     1     -12.156  11.056  68.043  1.00  0.00    -0.727 NA 
HETATM   10  N   UNL     1     -10.690   9.282  68.228  1.00  0.00    -0.185 NA 
HETATM   11  H1  UNL     1     -12.895  10.502  68.476  1.00  0.00     0.000 HD 
HETATM   12  C   UNL     1      -9.447   8.780  68.089  1.00  0.00    -0.140 A  
HETATM   13  H2  UNL     1     -12.519  11.425  67.165  1.00  0.00     0.000 HD 
HETATM   14  N   UNL     1      -8.394   9.442  67.560  1.00  0.00    -0.121 NA 
HETATM   15  H2  UNL     1      -7.417  12.235  67.195  1.00  0.00     0.000 HD 
HETATM   16  H1  UNL     1      -6.593  10.941  66.587  1.00  0.00     0.000 HD 
HETATM   17  C   UNL     1      -8.627  10.686  67.121  1.00  0.00    -0.127 A  
HETATM   18  N   UNL     1      -7.512  11.381  66.645  1.00  0.00    -0.136 NA 
BRANCH  12  19
HETATM   19  C   UNL     1      -9.224   7.393  68.539  1.00  0.00    -0.142 A  
HETATM   20  C   UNL     1      -9.172   5.156  68.648  1.00  0.00    -0.119 A  
HETATM   21  N   UNL     1      -8.758   7.092  69.775  1.00  0.00    -0.141 NA 
HETATM   22  N   UNL     1      -8.679   5.738  69.782  1.00  0.00    -0.125 NA 
HETATM   23  C   UNL     1      -9.998   4.511  66.173  1.00  0.00    -0.267 A  
HETATM   24  N   UNL     1      -9.306   3.836  68.410  1.00  0.00    -0.161 NA 
HETATM   25  C   UNL     1      -9.463   6.202  67.785  1.00  0.00    -0.115 A  
HETATM   26  C   UNL     1      -9.733   3.567  67.156  1.00  0.00    -0.008 A  
HETATM   27  C   UNL     1      -9.876   5.866  66.483  1.00  0.00    -0.189 A  
BRANCH  22  28
HETATM   28  C   UNL     1      -8.169   5.033  70.948  1.00  0.00    -0.108 C  
BRANCH  28  29
HETATM   29  C   UNL     1      -9.249   4.463  71.837  1.00  0.00    -0.174 A  
HETATM   30  C   UNL     1     -10.858   4.816  73.634  1.00  0.00    -0.377 A  
HETATM   31  C   UNL     1     -11.016   3.440  73.780  1.00  0.00    -0.307 A  
HETATM   32  C   UNL     1      -9.988   5.313  72.666  1.00  0.00    -0.163 A  
HETATM   33  C   UNL     1     -10.330   2.573  72.930  1.00  0.00    -0.239 A  
HETATM   34  F   UNL     1      -9.838   6.642  72.567  1.00  0.00    -0.164 F  
HETATM   35  C   UNL     1      -9.451   3.079  71.965  1.00  0.00    -0.204 A  
ENDBRANCH  28  29
ENDBRANCH  22  28
ENDBRANCH  12  19
ENDBRANCH   4   7
ENDBRANCH   2   3
TORSDOF 5
ENDMDL
MODEL      124
REMARK 921   NORMALIZED FREE ENERGY PREDICTED BY IDOCK:   -5.30 KCAL/MOL
REMARK 922        TOTAL FREE ENERGY PREDICTED BY IDOCK:   -7.65 KCAL/MOL
REMARK 923 INTER-LIGAND FREE ENERGY PREDICTED BY IDOCK:   -6.88 KCAL/MOL
REMARK 924 INTRA-LIGAND FREE ENERGY PREDICTED BY IDOCK:   -0.77 KCAL/MOL
REMARK 927      BINDING AFFINITY PREDICTED BY RF-SCORE:    0.00 PKD
ROOT
HETATM    1  C   UNL     1     -12.912   8.302  72.674  1.00  0.00    -0.030 C  
HETATM    2  O   UNL     1     -12.534   7.485  71.567  1.00  0.00    -0.318 OA 
ENDROOT
BRANCH   2   3
HETATM    3  C   UNL     1     -11.685   6.468  71.880  1.00  0.00    -0.324 C  
HETATM    4  N   UNL     1     -10.484   6.533  71.190  1.00  0.00    -0.216 N  
HETATM    5  O   UNL     1     -11.958   5.580  72.681  1.00  0.00    -0.245 OA 
HETATM    6  C   UNL     1      -9.433   5.563  71.425  1.00  0.00    -0.148 C  
BRANCH   4   7
HETATM    7  C   UNL     1     -10.176   7.630  70.340  1.00  0.00    -0.203 A  
HETATM    8  C   UNL     1     -10.546   7.647  68.998  1.00  0.00    -0.174 A  
HETATM    9  N   UNL     1     -11.098   6.530  68.367  1.00  0.00    -0.503 NA 
HETATM   10  N   UNL     1     -10.328   8.701  68.204  1.00  0.00    -0.219 NA 
HETATM   11  H1  UNL     1     -11.369   6.543  67.384  1.00  0.00     0.000 HD 
HETATM   12  C   UNL     1      -9.707   9.760  68.759  1.00  0.00    -0.161 A  
HETATM   13  H2  UNL     1     -11.910   6.237  68.910  1.00  0.00     0.000 HD 
HETATM   14  N   UNL     1      -9.279   9.830  70.039  1.00  0.00    -0.234 NA 
HETATM   15  H2  UNL     1      -8.387   8.026  72.238  1.00  0.00     0.000 HD 
HETATM   16  H1  UNL     1      -8.530   9.655  72.456  1.00  0.00     0.000 HD 
HETATM   17  C   UNL     1      -9.523   8.763  70.811  1.00  0.00    -0.206 A  
HETATM   18  N   UNL     1      -9.009   8.823  72.110  1.00  0.00    -0.385 NA 
BRANCH  12  19
HETATM   19  C   UNL     1      -9.488  10.941  67.902  1.00  0.00    -0.159 A  
HETATM   20  C   UNL     1      -9.437  12.343  66.156  1.00  0.00    -0.199 A  
HETATM   21  N   UNL     1      -8.788  12.024  68.315  1.00  0.00    -0.184 NA 
HETATM   22  N   UNL     1      -8.834  12.874  67.260  1.00  0.00    -0.198 NA 
HETATM   23  C   UNL     1     -10.906  10.975  64.367  1.00  0.00    -0.263 A  
HETATM   24  N   UNL     1      -9.549  12.916  64.940  1.00  0.00     0.134 NA 
HETATM   25  C   UNL     1      -9.945  11.117  66.558  1.00  0.00    -0.252 A  
HETATM   26  C   UNL     1     -10.288  12.184  64.077  1.00  0.00    -0.385 A  
HETATM   27  C   UNL     1     -10.730  10.409  65.631  1.00  0.00     0.005 A  
BRANCH  22  28
HETATM   28  C   UNL     1      -8.217  14.190  67.343  1.00  0.00    -0.193 C  
BRANCH  28  29
HETATM   29  C   UNL     1      -9.163  15.279  67.792  1.00  0.00    -0.187 A  
HETATM   30  C   UNL     1     -10.400  17.308  67.245  1.00  0.00    -0.331 A  
HETATM   31  C   UNL     1     -10.631  17.546  68.598  1.00  0.00    -0.288 A  
HETATM   32  C   UNL     1      -9.679  16.181  66.855  1.00  0.00    -0.236 A  
HETATM   33  C   UNL     1     -10.172  16.634  69.547  1.00  0.00    -0.191 A  
HETATM   34  F   UNL     1      -9.451  15.992  65.547  1.00  0.00    -0.336 F  
HETATM   35  C   UNL     1      -9.442  15.507  69.149  1.00  0.00    -0.246 A  
ENDBRANCH  28  29
ENDBRANCH  22  28
ENDBRANCH  12  19
ENDBRANCH   4   7
ENDBRANCH   2   3
TORSDOF 5
ENDMDL
MODEL      125
REMARK 921   NORMALIZED FREE ENERGY PREDICTED BY IDOCK:   -5.28 KCAL/MOL
REMARK 922        TOTAL FREE ENERGY PREDICTED BY IDOCK:   -7.63 KCAL/MOL
REMARK 923 INTER-LIGAND FREE ENERGY PREDICTED BY IDOCK:   -7.72 KCAL/MOL
REMARK 924 INTRA-LIGAND FREE ENERGY PREDICTED BY IDOCK:    0.09 KCAL/MOL
REMARK 927      BINDING AFFINITY PREDICTED BY RF-SCORE:    0.00 PKD
ROOT
HETATM    1  C   UNL     1     -11.492  16.519  72.411  1.00  0.00     0.121 C  
HETATM    2  O   UNL     1     -11.595  15.110  72.210  1.00  0.00    -0.414 OA 
ENDROOT
BRANCH   2   3
HETATM    3  C   UNL     1     -12.696  14.538  72.773  1.00  0.00    -0.371 C  
HETATM    4  N   UNL     1     -13.255  13.547  71.982  1.00  0.00    -0.419 N  
HETATM    5  O   UNL     1     -13.150  14.873  73.862  1.00  0.00    -0.396 OA 
HETATM    6  C   UNL     1     -14.406  12.790  72.434  1.00  0.00     0.327 C  
BRANCH   4   7
HETATM    7  C   UNL     1     -12.642  13.130  70.769  1.00  0.00    -0.260 A  
HETATM    8  C   UNL     1     -12.403  14.017  69.723  1.00  0.00    -0.291 A  
HETATM    9  N   UNL     1     -12.890  15.326  69.736  1.00  0.00    -0.608 NA 
HETATM   10  N   UNL     1     -11.761  13.658  68.607  1.00  0.00    -0.332 NA 
HETATM   11  H1  UNL     1     -12.715  15.976  68.970  1.00  0.00     0.000 HD 
HETATM   12  C   UNL     1     -11.364  12.374  68.522  1.00  0.00    -0.293 A  
HETATM   13  H2  UNL     1     -12.571  15.768  70.597  1.00  0.00     0.000 HD 
HETATM   14  N   UNL     1     -11.576  11.428  69.464  1.00  0.00    -0.300 NA 
HETATM   15  H2  UNL     1     -13.495  10.797  71.657  1.00  0.00     0.000 HD 
HETATM   16  H1  UNL     1     -12.171   9.858  71.366  1.00  0.00     0.000 HD 
HETATM   17  C   UNL     1     -12.212  11.823  70.576  1.00  0.00    -0.347 A  
HETATM   18  N   UNL     1     -12.487  10.818  71.507  1.00  0.00    -0.364 NA 
BRANCH  12  19
HETATM   19  C   UNL     1     -10.629  11.972  67.308  1.00  0.00    -0.222 A  
HETATM   20  C   UNL     1     -10.076  11.539  65.180  1.00  0.00    -0.268 A  
HETATM   21  N   UNL     1      -9.411  11.379  67.353  1.00  0.00    -0.166 NA 
HETATM   22  N   UNL     1      -9.082  11.192  66.051  1.00  0.00    -0.198 NA 
HETATM   23  C   UNL     1     -12.191  12.579  63.889  1.00  0.00    -0.590 A  
HETATM   24  N   UNL     1     -10.070  11.381  63.841  1.00  0.00    -0.309 NA 
HETATM   25  C   UNL     1     -11.067  12.123  65.955  1.00  0.00    -0.360 A  
HETATM   26  C   UNL     1     -11.159  11.913  63.242  1.00  0.00    -0.308 A  
HETATM   27  C   UNL     1     -12.165  12.685  65.280  1.00  0.00    -0.532 A  
BRANCH  22  28
HETATM   28  C   UNL     1      -7.798  10.609  65.689  1.00  0.00    -0.123 C  
BRANCH  28  29
HETATM   29  C   UNL     1      -7.848   9.116  65.466  1.00  0.00    -0.095 A  
HETATM   30  C   UNL     1      -7.954   7.256  63.894  1.00  0.00    -0.078 A  
HETATM   31  C   UNL     1      -8.295   6.386  64.927  1.00  0.00    -0.062 A  
HETATM   32  C   UNL     1      -7.727   8.603  64.170  1.00  0.00    -0.129 A  
HETATM   33  C   UNL     1      -8.370   6.864  66.234  1.00  0.00    -0.126 A  
HETATM   34  F   UNL     1      -7.426   9.420  63.151  1.00  0.00    -0.105 F  
HETATM   35  C   UNL     1      -8.149   8.220  66.505  1.00  0.00    -0.105 A  
ENDBRANCH  28  29
ENDBRANCH  22  28
ENDBRANCH  12  19
ENDBRANCH   4   7
ENDBRANCH   2   3
TORSDOF 5
ENDMDL
MODEL      126
REMARK 921   NORMALIZED FREE ENERGY PREDICTED BY IDOCK:   -5.27 KCAL/MOL
REMARK 922        TOTAL FREE ENERGY PREDICTED BY IDOCK:   -7.61 KCAL/MOL
REMARK 923 INTER-LIGAND FREE ENERGY PREDICTED BY IDOCK:   -7.08 KCAL/MOL
REMARK 924 INTRA-LIGAND FREE ENERGY PREDICTED BY IDOCK:   -0.54 KCAL/MOL
REMARK 927      BINDING AFFINITY PREDICTED BY RF-SCORE:    0.00 PKD
ROOT
HETATM    1  C   UNL     1      -9.759   8.198  72.697  1.00  0.00    -0.290 C  
HETATM    2  O   UNL     1     -10.550   9.114  71.942  1.00  0.00    -0.348 OA 
ENDROOT
BRANCH   2   3
HETATM    3  C   UNL     1     -11.876   8.810  71.894  1.00  0.00    -0.367 C  
HETATM    4  N   UNL     1     -12.595   9.650  71.058  1.00  0.00    -0.304 N  
HETATM    5  O   UNL     1     -12.384   7.893  72.533  1.00  0.00    -0.253 OA 
HETATM    6  C   UNL     1     -14.015   9.452  70.840  1.00  0.00     0.225 C  
BRANCH   4   7
HETATM    7  C   UNL     1     -11.950  10.640  70.268  1.00  0.00    -0.339 A  
HETATM    8  C   UNL     1     -12.059  11.997  70.557  1.00  0.00    -0.311 A  
HETATM    9  N   UNL     1     -12.930  12.479  71.537  1.00  0.00    -0.343 NA 
HETATM   10  N   UNL     1     -11.400  12.935  69.869  1.00  0.00    -0.051 NA 
HETATM   11  H1  UNL     1     -13.010  13.473  71.749  1.00  0.00     0.000 HD 
HETATM   12  C   UNL     1     -10.626  12.510  68.853  1.00  0.00    -0.118 A  
HETATM   13  H2  UNL     1     -12.718  11.991  72.407  1.00  0.00     0.000 HD 
HETATM   14  N   UNL     1     -10.478  11.222  68.470  1.00  0.00    -0.189 NA 
HETATM   15  H2  UNL     1     -11.978   8.646  68.540  1.00  0.00     0.000 HD 
HETATM   16  H1  UNL     1     -10.444   8.741  67.941  1.00  0.00     0.000 HD 
HETATM   17  C   UNL     1     -11.143  10.305  69.187  1.00  0.00    -0.235 A  
HETATM   18  N   UNL     1     -11.037   8.987  68.734  1.00  0.00     0.082 NA 
BRANCH  12  19
HETATM   19  C   UNL     1      -9.869  13.532  68.104  1.00  0.00    -0.237 A  
HETATM   20  C   UNL     1      -8.223  14.827  67.308  1.00  0.00    -0.213 A  
HETATM   21  N   UNL     1     -10.472  14.463  67.326  1.00  0.00    -0.268 NA 
HETATM   22  N   UNL     1      -9.444  15.185  66.812  1.00  0.00    -0.229 NA 
HETATM   23  C   UNL     1      -6.071  13.611  68.364  1.00  0.00    -0.096 A  
HETATM   24  N   UNL     1      -7.040  15.421  67.052  1.00  0.00    -0.211 NA 
HETATM   25  C   UNL     1      -8.450  13.705  68.091  1.00  0.00    -0.175 A  
HETATM   26  C   UNL     1      -5.993  14.776  67.613  1.00  0.00    -0.038 A  
HETATM   27  C   UNL     1      -7.323  13.056  68.628  1.00  0.00    -0.097 A  
BRANCH  22  28
HETATM   28  C   UNL     1      -9.699  16.269  65.876  1.00  0.00    -0.321 C  
BRANCH  28  29
HETATM   29  C   UNL     1      -9.679  17.640  66.510  1.00  0.00    -0.310 A  
HETATM   30  C   UNL     1      -8.397  19.617  67.137  1.00  0.00    -0.334 A  
HETATM   31  C   UNL     1      -9.432  20.039  67.967  1.00  0.00    -0.427 A  
HETATM   32  C   UNL     1      -8.530  18.433  66.414  1.00  0.00    -0.245 A  
HETATM   33  C   UNL     1     -10.607  19.293  68.039  1.00  0.00    -0.431 A  
HETATM   34  F   UNL     1      -7.507  18.040  65.642  1.00  0.00    -0.270 F  
HETATM   35  C   UNL     1     -10.732  18.100  67.316  1.00  0.00    -0.336 A  
ENDBRANCH  28  29
ENDBRANCH  22  28
ENDBRANCH  12  19
ENDBRANCH   4   7
ENDBRANCH   2   3
TORSDOF 5
ENDMDL
MODEL      127
REMARK 921   NORMALIZED FREE ENERGY PREDICTED BY IDOCK:   -5.26 KCAL/MOL
REMARK 922        TOTAL FREE ENERGY PREDICTED BY IDOCK:   -7.61 KCAL/MOL
REMARK 923 INTER-LIGAND FREE ENERGY PREDICTED BY IDOCK:   -6.51 KCAL/MOL
REMARK 924 INTRA-LIGAND FREE ENERGY PREDICTED BY IDOCK:   -1.09 KCAL/MOL
REMARK 927      BINDING AFFINITY PREDICTED BY RF-SCORE:    0.00 PKD
ROOT
HETATM    1  C   UNL     1      -9.277  18.112  66.388  1.00  0.00    -0.255 C  
HETATM    2  O   UNL     1      -9.512  16.840  66.989  1.00  0.00    -0.223 OA 
ENDROOT
BRANCH   2   3
HETATM    3  C   UNL     1     -10.207  16.887  68.159  1.00  0.00    -0.311 C  
HETATM    4  N   UNL     1     -10.567  15.633  68.628  1.00  0.00    -0.235 N  
HETATM    5  O   UNL     1     -10.493  17.933  68.734  1.00  0.00    -0.335 OA 
HETATM    6  C   UNL     1     -11.271  15.478  69.885  1.00  0.00    -0.316 C  
BRANCH   4   7
HETATM    7  C   UNL     1     -10.134  14.446  67.976  1.00  0.00    -0.232 A  
HETATM    8  C   UNL     1      -8.889  13.879  68.231  1.00  0.00    -0.185 A  
HETATM    9  N   UNL     1      -7.929  14.521  69.016  1.00  0.00    -0.242 NA 
HETATM   10  N   UNL     1      -8.498  12.724  67.682  1.00  0.00    -0.165 NA 
HETATM   11  H1  UNL     1      -7.016  14.106  69.202  1.00  0.00     0.000 HD 
HETATM   12  C   UNL     1      -9.365  12.128  66.841  1.00  0.00    -0.203 A  
HETATM   13  H2  UNL     1      -8.359  14.742  69.913  1.00  0.00     0.000 HD 
HETATM   14  N   UNL     1     -10.581  12.611  66.502  1.00  0.00    -0.251 NA 
HETATM   15  H2  UNL     1     -12.008  15.220  66.287  1.00  0.00     0.000 HD 
HETATM   16  H1  UNL     1     -12.773  13.786  66.003  1.00  0.00     0.000 HD 
HETATM   17  C   UNL     1     -10.948  13.764  67.078  1.00  0.00    -0.290 A  
HETATM   18  N   UNL     1     -12.176  14.287  66.662  1.00  0.00    -0.440 NA 
BRANCH  12  19
HETATM   19  C   UNL     1      -8.958  10.837  66.252  1.00  0.00    -0.170 A  
HETATM   20  C   UNL     1      -8.549   9.172  64.810  1.00  0.00    -0.184 A  
HETATM   21  N   UNL     1      -8.563   9.783  67.005  1.00  0.00    -0.124 NA 
HETATM   22  N   UNL     1      -8.263   8.819  66.098  1.00  0.00    -0.113 NA 
HETATM   23  C   UNL     1      -9.031  10.403  62.470  1.00  0.00    -0.291 A  
HETATM   24  N   UNL     1      -8.442   8.393  63.715  1.00  0.00    -0.047 NA 
HETATM   25  C   UNL     1      -8.929  10.505  64.862  1.00  0.00    -0.222 A  
HETATM   26  C   UNL     1      -8.703   9.057  62.567  1.00  0.00    -0.190 A  
HETATM   27  C   UNL     1      -9.162  11.156  63.637  1.00  0.00    -0.167 A  
BRANCH  22  28
HETATM   28  C   UNL     1      -7.751   7.528  66.534  1.00  0.00    -0.097 C  
BRANCH  28  29
HETATM   29  C   UNL     1      -8.598   6.862  67.592  1.00  0.00    -0.121 A  
HETATM   30  C   UNL     1     -10.750   5.913  68.233  1.00  0.00    -0.319 A  
HETATM   31  C   UNL     1     -10.377   5.941  69.574  1.00  0.00    -0.314 A  
HETATM   32  C   UNL     1      -9.861   6.363  67.258  1.00  0.00    -0.138 A  
HETATM   33  C   UNL     1      -9.104   6.385  69.927  1.00  0.00    -0.142 A  
HETATM   34  F   UNL     1     -10.259   6.347  65.978  1.00  0.00    -0.072 F  
HETATM   35  C   UNL     1      -8.218   6.844  68.944  1.00  0.00    -0.121 A  
ENDBRANCH  28  29
ENDBRANCH  22  28
ENDBRANCH  12  19
ENDBRANCH   4   7
ENDBRANCH   2   3
TORSDOF 5
ENDMDL
MODEL      128
REMARK 921   NORMALIZED FREE ENERGY PREDICTED BY IDOCK:   -5.23 KCAL/MOL
REMARK 922        TOTAL FREE ENERGY PREDICTED BY IDOCK:   -7.56 KCAL/MOL
REMARK 923 INTER-LIGAND FREE ENERGY PREDICTED BY IDOCK:   -6.91 KCAL/MOL
REMARK 924 INTRA-LIGAND FREE ENERGY PREDICTED BY IDOCK:   -0.65 KCAL/MOL
REMARK 927      BINDING AFFINITY PREDICTED BY RF-SCORE:    0.00 PKD
ROOT
HETATM    1  C   UNL     1      -9.367  14.436  68.241  1.00  0.00    -0.206 C  
HETATM    2  O   UNL     1      -9.385  14.188  66.837  1.00  0.00    -0.243 OA 
ENDROOT
BRANCH   2   3
HETATM    3  C   UNL     1     -10.507  14.626  66.201  1.00  0.00    -0.302 C  
HETATM    4  N   UNL     1     -11.236  13.601  65.620  1.00  0.00    -0.296 N  
HETATM    5  O   UNL     1     -10.832  15.808  66.139  1.00  0.00    -0.309 OA 
HETATM    6  C   UNL     1     -12.487  13.866  64.938  1.00  0.00    -0.391 C  
BRANCH   4   7
HETATM    7  C   UNL     1     -10.869  12.238  65.794  1.00  0.00    -0.278 A  
HETATM    8  C   UNL     1     -10.099  11.558  64.854  1.00  0.00    -0.268 A  
HETATM    9  N   UNL     1      -9.775  12.117  63.617  1.00  0.00    -0.589 NA 
HETATM   10  N   UNL     1      -9.685  10.300  65.038  1.00  0.00    -0.283 NA 
HETATM   11  H1  UNL     1      -9.212  11.619  62.928  1.00  0.00     0.000 HD 
HETATM   12  C   UNL     1     -10.064   9.698  66.181  1.00  0.00    -0.258 A  
HETATM   13  H2  UNL     1      -9.330  13.018  63.790  1.00  0.00     0.000 HD 
HETATM   14  N   UNL     1     -10.836  10.257  67.139  1.00  0.00    -0.246 NA 
HETATM   15  H2  UNL     1     -12.940  12.350  67.425  1.00  0.00     0.000 HD 
HETATM   16  H1  UNL     1     -12.344  11.535  68.730  1.00  0.00     0.000 HD 
HETATM   17  C   UNL     1     -11.226  11.522  66.931  1.00  0.00    -0.298 A  
HETATM   18  N   UNL     1     -12.082  12.060  67.895  1.00  0.00    -0.494 NA 
BRANCH  12  19
HETATM   19  C   UNL     1      -9.588   8.319  66.410  1.00  0.00    -0.230 A  
HETATM   20  C   UNL     1      -9.177   6.317  67.327  1.00  0.00    -0.118 A  
HETATM   21  N   UNL     1      -8.747   7.686  65.558  1.00  0.00    -0.102 NA 
HETATM   22  N   UNL     1      -8.573   6.460  66.110  1.00  0.00    -0.139 NA 
HETATM   23  C   UNL     1     -10.725   6.441  69.522  1.00  0.00    -0.347 A  
HETATM   24  N   UNL     1      -9.104   5.249  68.147  1.00  0.00    -0.109 NA 
HETATM   25  C   UNL     1      -9.912   7.478  67.520  1.00  0.00    -0.228 A  
HETATM   26  C   UNL     1      -9.893   5.366  69.238  1.00  0.00    -0.182 A  
HETATM   27  C   UNL     1     -10.737   7.536  68.657  1.00  0.00    -0.111 A  
BRANCH  22  28
HETATM   28  C   UNL     1      -7.751   5.459  65.445  1.00  0.00    -0.092 C  
BRANCH  28  29
HETATM   29  C   UNL     1      -8.544   4.448  64.653  1.00  0.00    -0.134 A  
HETATM   30  C   UNL     1      -9.368   2.163  64.440  1.00  0.00    -0.132 A  
HETATM   31  C   UNL     1      -9.691   2.390  63.105  1.00  0.00    -0.098 A  
HETATM   32  C   UNL     1      -8.808   3.188  65.201  1.00  0.00    -0.129 A  
HETATM   33  C   UNL     1      -9.485   3.653  62.551  1.00  0.00    -0.101 A  
HETATM   34  F   UNL     1      -8.485   2.931  66.476  1.00  0.00    -0.087 F  
HETATM   35  C   UNL     1      -8.915   4.676  63.318  1.00  0.00    -0.113 A  
ENDBRANCH  28  29
ENDBRANCH  22  28
ENDBRANCH  12  19
ENDBRANCH   4   7
ENDBRANCH   2   3
TORSDOF 5
ENDMDL
MODEL      129
REMARK 921   NORMALIZED FREE ENERGY PREDICTED BY IDOCK:   -5.18 KCAL/MOL
REMARK 922        TOTAL FREE ENERGY PREDICTED BY IDOCK:   -7.50 KCAL/MOL
REMARK 923 INTER-LIGAND FREE ENERGY PREDICTED BY IDOCK:   -6.89 KCAL/MOL
REMARK 924 INTRA-LIGAND FREE ENERGY PREDICTED BY IDOCK:   -0.62 KCAL/MOL
REMARK 927      BINDING AFFINITY PREDICTED BY RF-SCORE:    0.00 PKD
ROOT
HETATM    1  C   UNL     1     -10.288  15.449  65.528  1.00  0.00    -0.387 C  
HETATM    2  O   UNL     1     -10.349  14.191  64.859  1.00  0.00    -0.411 OA 
ENDROOT
BRANCH   2   3
HETATM    3  C   UNL     1     -11.539  13.931  64.250  1.00  0.00    -0.355 C  
HETATM    4  N   UNL     1     -11.851  12.581  64.225  1.00  0.00    -0.368 N  
HETATM    5  O   UNL     1     -12.255  14.802  63.765  1.00  0.00    -0.555 OA 
HETATM    6  C   UNL     1     -13.102  12.114  63.660  1.00  0.00    -0.039 C  
BRANCH   4   7
HETATM    7  C   UNL     1     -11.036  11.618  64.879  1.00  0.00    -0.284 A  
HETATM    8  C   UNL     1     -10.164  10.792  64.175  1.00  0.00    -0.344 A  
HETATM    9  N   UNL     1     -10.151  10.747  62.779  1.00  0.00    -0.750 NA 
HETATM   10  N   UNL     1      -9.338   9.934  64.782  1.00  0.00    -0.262 NA 
HETATM   11  H1  UNL     1      -9.513  10.142  62.263  1.00  0.00     0.000 HD 
HETATM   12  C   UNL     1      -9.396   9.883  66.126  1.00  0.00    -0.181 A  
HETATM   13  H2  UNL     1     -10.021  11.699  62.439  1.00  0.00     0.000 HD 
HETATM   14  N   UNL     1     -10.228  10.616  66.899  1.00  0.00    -0.214 NA 
HETATM   15  H2  UNL     1     -12.880  11.968  66.733  1.00  0.00     0.000 HD 
HETATM   16  H1  UNL     1     -11.938  12.067  68.084  1.00  0.00     0.000 HD 
HETATM   17  C   UNL     1     -11.035  11.476  66.262  1.00  0.00    -0.275 A  
HETATM   18  N   UNL     1     -11.939  12.172  67.069  1.00  0.00    -0.598 NA 
BRANCH  12  19
HETATM   19  C   UNL     1      -8.468   8.961  66.809  1.00  0.00    -0.115 A  
HETATM   20  C   UNL     1      -6.821   7.505  67.238  1.00  0.00    -0.071 A  
HETATM   21  N   UNL     1      -8.617   8.604  68.107  1.00  0.00    -0.140 NA 
HETATM   22  N   UNL     1      -7.569   7.776  68.348  1.00  0.00    -0.107 NA 
HETATM   23  C   UNL     1      -5.540   7.482  64.875  1.00  0.00    -0.033 A  
HETATM   24  N   UNL     1      -5.780   6.652  67.153  1.00  0.00    -0.013 NA 
HETATM   25  C   UNL     1      -7.327   8.318  66.235  1.00  0.00    -0.078 A  
HETATM   26  C   UNL     1      -5.178   6.672  65.943  1.00  0.00    -0.018 A  
HETATM   27  C   UNL     1      -6.647   8.322  65.004  1.00  0.00    -0.059 A  
BRANCH  22  28
HETATM   28  C   UNL     1      -7.361   7.213  69.674  1.00  0.00    -0.085 C  
BRANCH  28  29
HETATM   29  C   UNL     1      -8.334   6.114  70.029  1.00  0.00    -0.125 A  
HETATM   30  C   UNL     1      -9.830   5.120  71.679  1.00  0.00    -0.230 A  
HETATM   31  C   UNL     1      -9.886   3.943  70.936  1.00  0.00    -0.213 A  
HETATM   32  C   UNL     1      -9.066   6.192  71.219  1.00  0.00    -0.143 A  
HETATM   33  C   UNL     1      -9.207   3.861  69.722  1.00  0.00    -0.213 A  
HETATM   34  F   UNL     1      -9.012   7.302  71.968  1.00  0.00    -0.128 F  
HETATM   35  C   UNL     1      -8.435   4.938  69.269  1.00  0.00    -0.092 A  
ENDBRANCH  28  29
ENDBRANCH  22  28
ENDBRANCH  12  19
ENDBRANCH   4   7
ENDBRANCH   2   3
TORSDOF 5
ENDMDL
MODEL      130
REMARK 921   NORMALIZED FREE ENERGY PREDICTED BY IDOCK:   -5.18 KCAL/MOL
REMARK 922        TOTAL FREE ENERGY PREDICTED BY IDOCK:   -7.49 KCAL/MOL
REMARK 923 INTER-LIGAND FREE ENERGY PREDICTED BY IDOCK:   -6.40 KCAL/MOL
REMARK 924 INTRA-LIGAND FREE ENERGY PREDICTED BY IDOCK:   -1.09 KCAL/MOL
REMARK 927      BINDING AFFINITY PREDICTED BY RF-SCORE:    0.00 PKD
ROOT
HETATM    1  C   UNL     1      -9.991  19.611  68.959  1.00  0.00    -0.399 C  
HETATM    2  O   UNL     1      -9.767  18.718  67.869  1.00  0.00    -0.307 OA 
ENDROOT
BRANCH   2   3
HETATM    3  C   UNL     1      -8.761  19.092  67.031  1.00  0.00    -0.294 C  
HETATM    4  N   UNL     1      -7.911  18.046  66.704  1.00  0.00    -0.240 N  
HETATM    5  O   UNL     1      -8.616  20.237  66.615  1.00  0.00    -0.292 OA 
HETATM    6  C   UNL     1      -6.808  18.239  65.784  1.00  0.00    -0.275 C  
BRANCH   4   7
HETATM    7  C   UNL     1      -8.171  16.717  67.136  1.00  0.00    -0.179 A  
HETATM    8  C   UNL     1      -9.029  15.871  66.439  1.00  0.00    -0.326 A  
HETATM    9  N   UNL     1      -9.807  16.322  65.371  1.00  0.00    -0.483 NA 
HETATM   10  N   UNL     1      -9.226  14.596  66.791  1.00  0.00    -0.251 NA 
HETATM   11  H1  UNL     1     -10.436  15.702  64.860  1.00  0.00     0.000 HD 
HETATM   12  C   UNL     1      -8.564  14.158  67.879  1.00  0.00    -0.178 A  
HETATM   13  H2  UNL     1      -9.182  16.757  64.693  1.00  0.00     0.000 HD 
HETATM   14  N   UNL     1      -7.736  14.905  68.642  1.00  0.00    -0.120 NA 
HETATM   15  H2  UNL     1      -7.301  17.756  69.401  1.00  0.00     0.000 HD 
HETATM   16  H1  UNL     1      -6.294  16.557  69.919  1.00  0.00     0.000 HD 
HETATM   17  C   UNL     1      -7.550  16.176  68.256  1.00  0.00    -0.146 A  
HETATM   18  N   UNL     1      -6.749  16.954  69.097  1.00  0.00    -0.222 NA 
BRANCH  12  19
HETATM   19  C   UNL     1      -8.749  12.744  68.260  1.00  0.00    -0.168 A  
HETATM   20  C   UNL     1      -9.612  10.829  69.038  1.00  0.00    -0.180 A  
HETATM   21  N   UNL     1      -7.754  11.829  68.180  1.00  0.00    -0.116 NA 
HETATM   22  N   UNL     1      -8.329  10.673  68.596  1.00  0.00    -0.129 NA 
HETATM   23  C   UNL     1     -12.139  11.586  69.551  1.00  0.00    -0.351 A  
HETATM   24  N   UNL     1     -10.398   9.883  69.590  1.00  0.00    -0.224 NA 
HETATM   25  C   UNL     1      -9.947  12.146  68.762  1.00  0.00    -0.066 A  
HETATM   26  C   UNL     1     -11.654  10.317  69.836  1.00  0.00    -0.256 A  
HETATM   27  C   UNL     1     -11.274  12.539  69.012  1.00  0.00    -0.321 A  
BRANCH  22  28
HETATM   28  C   UNL     1      -7.569   9.432  68.607  1.00  0.00    -0.080 C  
BRANCH  28  29
HETATM   29  C   UNL     1      -7.909   8.499  67.469  1.00  0.00    -0.099 A  
HETATM   30  C   UNL     1      -8.428   6.235  66.726  1.00  0.00    -0.111 A  
HETATM   31  C   UNL     1      -8.201   6.604  65.403  1.00  0.00    -0.138 A  
HETATM   32  C   UNL     1      -8.288   7.180  67.741  1.00  0.00    -0.118 A  
HETATM   33  C   UNL     1      -7.873   7.925  65.102  1.00  0.00    -0.114 A  
HETATM   34  F   UNL     1      -8.488   6.789  69.008  1.00  0.00    -0.122 F  
HETATM   35  C   UNL     1      -7.727   8.868  66.126  1.00  0.00    -0.098 A  
ENDBRANCH  28  29
ENDBRANCH  22  28
ENDBRANCH  12  19
ENDBRANCH   4   7
ENDBRANCH   2   3
TORSDOF 5
ENDMDL
MODEL      131
REMARK 921   NORMALIZED FREE ENERGY PREDICTED BY IDOCK:   -5.17 KCAL/MOL
REMARK 922        TOTAL FREE ENERGY PREDICTED BY IDOCK:   -7.48 KCAL/MOL
REMARK 923 INTER-LIGAND FREE ENERGY PREDICTED BY IDOCK:   -6.60 KCAL/MOL
REMARK 924 INTRA-LIGAND FREE ENERGY PREDICTED BY IDOCK:   -0.88 KCAL/MOL
REMARK 927      BINDING AFFINITY PREDICTED BY RF-SCORE:    0.00 PKD
ROOT
HETATM    1  C   UNL     1      -7.357  15.803  69.409  1.00  0.00    -0.217 C  
HETATM    2  O   UNL     1      -7.543  14.498  68.863  1.00  0.00    -0.129 OA 
ENDROOT
BRANCH   2   3
HETATM    3  C   UNL     1      -6.582  14.115  67.977  1.00  0.00    -0.151 C  
HETATM    4  N   UNL     1      -6.535  12.742  67.789  1.00  0.00    -0.119 N  
HETATM    5  O   UNL     1      -5.830  14.902  67.411  1.00  0.00    -0.341 OA 
HETATM    6  C   UNL     1      -5.608  12.148  66.847  1.00  0.00    -0.007 C  
BRANCH   4   7
HETATM    7  C   UNL     1      -7.486  11.877  68.397  1.00  0.00    -0.102 A  
HETATM    8  C   UNL     1      -8.795  11.781  67.933  1.00  0.00    -0.165 A  
HETATM    9  N   UNL     1      -9.298  12.638  66.952  1.00  0.00    -0.222 NA 
HETATM   10  N   UNL     1      -9.679  10.919  68.446  1.00  0.00    -0.169 NA 
HETATM   11  H1  UNL     1     -10.257  12.568  66.612  1.00  0.00     0.000 HD 
HETATM   12  C   UNL     1      -9.252  10.146  69.462  1.00  0.00    -0.204 A  
HETATM   13  H2  UNL     1      -8.678  12.584  66.145  1.00  0.00     0.000 HD 
HETATM   14  N   UNL     1      -8.015  10.184  70.006  1.00  0.00    -0.150 NA 
HETATM   15  H2  UNL     1      -5.756  12.095  70.378  1.00  0.00     0.000 HD 
HETATM   16  H1  UNL     1      -5.652  10.522  70.865  1.00  0.00     0.000 HD 
HETATM   17  C   UNL     1      -7.149  11.050  69.462  1.00  0.00    -0.113 A  
HETATM   18  N   UNL     1      -5.899  11.129  70.083  1.00  0.00    -0.108 NA 
BRANCH  12  19
HETATM   19  C   UNL     1     -10.209   9.169  70.018  1.00  0.00    -0.204 A  
HETATM   20  C   UNL     1     -11.921   8.232  71.118  1.00  0.00    -0.265 A  
HETATM   21  N   UNL     1     -10.044   7.831  69.892  1.00  0.00    -0.199 NA 
HETATM   22  N   UNL     1     -11.128   7.301  70.511  1.00  0.00    -0.261 NA 
HETATM   23  C   UNL     1     -13.267  10.420  71.912  1.00  0.00    -0.535 A  
HETATM   24  N   UNL     1     -13.009   7.997  71.879  1.00  0.00    -0.322 NA 
HETATM   25  C   UNL     1     -11.399   9.465  70.753  1.00  0.00    -0.363 A  
HETATM   26  C   UNL     1     -13.643   9.129  72.259  1.00  0.00    -0.489 A  
HETATM   27  C   UNL     1     -12.113  10.609  71.151  1.00  0.00    -0.445 A  
BRANCH  22  28
HETATM   28  C   UNL     1     -11.328   5.859  70.545  1.00  0.00    -0.145 C  
BRANCH  28  29
HETATM   29  C   UNL     1     -10.114   5.065  70.127  1.00  0.00    -0.338 A  
HETATM   30  C   UNL     1      -8.934   3.845  68.376  1.00  0.00    -0.165 A  
HETATM   31  C   UNL     1      -8.082   3.284  69.324  1.00  0.00    -0.065 A  
HETATM   32  C   UNL     1      -9.932   4.731  68.781  1.00  0.00    -0.112 A  
HETATM   33  C   UNL     1      -8.211   3.643  70.665  1.00  0.00    -0.073 A  
HETATM   34  F   UNL     1     -10.752   5.234  67.848  1.00  0.00    -0.225 F  
HETATM   35  C   UNL     1      -9.220   4.527  71.067  1.00  0.00    -0.200 A  
ENDBRANCH  28  29
ENDBRANCH  22  28
ENDBRANCH  12  19
ENDBRANCH   4   7
ENDBRANCH   2   3
TORSDOF 5
ENDMDL
MODEL      132
REMARK 921   NORMALIZED FREE ENERGY PREDICTED BY IDOCK:   -5.17 KCAL/MOL
REMARK 922        TOTAL FREE ENERGY PREDICTED BY IDOCK:   -7.48 KCAL/MOL
REMARK 923 INTER-LIGAND FREE ENERGY PREDICTED BY IDOCK:   -6.40 KCAL/MOL
REMARK 924 INTRA-LIGAND FREE ENERGY PREDICTED BY IDOCK:   -1.08 KCAL/MOL
REMARK 927      BINDING AFFINITY PREDICTED BY RF-SCORE:    0.00 PKD
ROOT
HETATM    1  C   UNL     1     -11.851  14.475  69.763  1.00  0.00    -0.315 C  
HETATM    2  O   UNL     1     -10.974  13.835  68.838  1.00  0.00    -0.244 OA 
ENDROOT
BRANCH   2   3
HETATM    3  C   UNL     1     -11.454  13.753  67.567  1.00  0.00    -0.330 C  
HETATM    4  N   UNL     1     -11.212  12.524  66.973  1.00  0.00    -0.284 N  
HETATM    5  O   UNL     1     -12.033  14.676  67.002  1.00  0.00    -0.382 OA 
HETATM    6  C   UNL     1     -11.691  12.232  65.636  1.00  0.00    -0.382 C  
BRANCH   4   7
HETATM    7  C   UNL     1     -10.618  11.455  67.697  1.00  0.00    -0.202 A  
HETATM    8  C   UNL     1     -11.346  10.684  68.599  1.00  0.00    -0.281 A  
HETATM    9  N   UNL     1     -12.654  11.009  68.966  1.00  0.00    -0.559 NA 
HETATM   10  N   UNL     1     -10.822   9.629  69.232  1.00  0.00    -0.222 NA 
HETATM   11  H1  UNL     1     -13.187  10.445  69.626  1.00  0.00     0.000 HD 
HETATM   12  C   UNL     1      -9.530   9.348  68.974  1.00  0.00    -0.160 A  
HETATM   13  H2  UNL     1     -13.204  11.091  68.112  1.00  0.00     0.000 HD 
HETATM   14  N   UNL     1      -8.729  10.051  68.143  1.00  0.00    -0.121 NA 
HETATM   15  H2  UNL     1      -8.449  12.815  67.060  1.00  0.00     0.000 HD 
HETATM   16  H1  UNL     1      -7.451  11.591  66.583  1.00  0.00     0.000 HD 
HETATM   17  C   UNL     1      -9.288  11.095  67.515  1.00  0.00    -0.168 A  
HETATM   18  N   UNL     1      -8.428  11.855  66.717  1.00  0.00    -0.180 NA 
BRANCH  12  19
HETATM   19  C   UNL     1      -8.948   8.168  69.643  1.00  0.00    -0.154 A  
HETATM   20  C   UNL     1      -8.276   6.696  71.193  1.00  0.00    -0.120 A  
HETATM   21  N   UNL     1      -8.236   7.228  68.978  1.00  0.00    -0.124 NA 
HETATM   22  N   UNL     1      -7.902   6.324  69.933  1.00  0.00    -0.108 NA 
HETATM   23  C   UNL     1      -9.420   7.727  73.396  1.00  0.00    -0.349 A  
HETATM   24  N   UNL     1      -8.003   6.048  72.343  1.00  0.00    -0.105 NA 
HETATM   25  C   UNL     1      -9.027   7.852  71.036  1.00  0.00    -0.152 A  
HETATM   26  C   UNL     1      -8.594   6.612  73.420  1.00  0.00    -0.122 A  
HETATM   27  C   UNL     1      -9.643   8.381  72.184  1.00  0.00    -0.367 A  
BRANCH  22  28
HETATM   28  C   UNL     1      -7.156   5.123  69.586  1.00  0.00    -0.055 C  
BRANCH  28  29
HETATM   29  C   UNL     1      -7.751   4.347  68.436  1.00  0.00    -0.075 A  
HETATM   30  C   UNL     1      -9.397   2.724  67.658  1.00  0.00    -0.222 A  
HETATM   31  C   UNL     1      -8.713   2.591  66.452  1.00  0.00    -0.125 A  
HETATM   32  C   UNL     1      -8.919   3.601  68.631  1.00  0.00    -0.127 A  
HETATM   33  C   UNL     1      -7.577   3.362  66.214  1.00  0.00    -0.077 A  
HETATM   34  F   UNL     1      -9.584   3.690  69.791  1.00  0.00    -0.225 F  
HETATM   35  C   UNL     1      -7.097   4.235  67.198  1.00  0.00    -0.067 A  
ENDBRANCH  28  29
ENDBRANCH  22  28
ENDBRANCH  12  19
ENDBRANCH   4   7
ENDBRANCH   2   3
TORSDOF 5
ENDMDL
MODEL      133
REMARK 921   NORMALIZED FREE ENERGY PREDICTED BY IDOCK:   -5.16 KCAL/MOL
REMARK 922        TOTAL FREE ENERGY PREDICTED BY IDOCK:   -7.47 KCAL/MOL
REMARK 923 INTER-LIGAND FREE ENERGY PREDICTED BY IDOCK:   -6.51 KCAL/MOL
REMARK 924 INTRA-LIGAND FREE ENERGY PREDICTED BY IDOCK:   -0.96 KCAL/MOL
REMARK 927      BINDING AFFINITY PREDICTED BY RF-SCORE:    0.00 PKD
ROOT
HETATM    1  C   UNL     1      -8.977   4.298  71.374  1.00  0.00    -0.119 C  
HETATM    2  O   UNL     1      -9.431   4.433  70.029  1.00  0.00    -0.143 OA 
ENDROOT
BRANCH   2   3
HETATM    3  C   UNL     1      -8.564   3.962  69.090  1.00  0.00    -0.079 C  
HETATM    4  N   UNL     1      -8.373   4.844  68.038  1.00  0.00    -0.099 N  
HETATM    5  O   UNL     1      -8.017   2.866  69.163  1.00  0.00    -0.052 OA 
HETATM    6  C   UNL     1      -7.447   4.539  66.965  1.00  0.00    -0.081 C  
BRANCH   4   7
HETATM    7  C   UNL     1      -8.957   6.140  68.041  1.00  0.00    -0.113 A  
HETATM    8  C   UNL     1      -8.385   7.204  68.734  1.00  0.00    -0.126 A  
HETATM    9  N   UNL     1      -7.297   7.029  69.593  1.00  0.00    -0.083 NA 
HETATM   10  N   UNL     1      -8.881   8.444  68.687  1.00  0.00    -0.136 NA 
HETATM   11  H1  UNL     1      -6.878   7.808  70.101  1.00  0.00     0.000 HD 
HETATM   12  C   UNL     1      -9.989   8.626  67.944  1.00  0.00    -0.188 A  
HETATM   13  H2  UNL     1      -6.557   6.567  69.066  1.00  0.00     0.000 HD 
HETATM   14  N   UNL     1     -10.639   7.657  67.262  1.00  0.00    -0.317 NA 
HETATM   15  H2  UNL     1     -11.064   4.707  67.359  1.00  0.00     0.000 HD 
HETATM   16  H1  UNL     1     -11.681   5.633  66.141  1.00  0.00     0.000 HD 
HETATM   17  C   UNL     1     -10.110   6.426  67.320  1.00  0.00    -0.163 A  
HETATM   18  N   UNL     1     -10.834   5.423  66.670  1.00  0.00    -0.231 NA 
BRANCH  12  19
HETATM   19  C   UNL     1     -10.530   9.996  67.859  1.00  0.00    -0.231 A  
HETATM   20  C   UNL     1     -11.565  11.926  68.332  1.00  0.00    -0.317 A  
HETATM   21  N   UNL     1     -10.478  10.734  66.724  1.00  0.00    -0.243 NA 
HETATM   22  N   UNL     1     -11.054  11.914  67.066  1.00  0.00    -0.284 NA 
HETATM   23  C   UNL     1     -12.168  11.552  70.925  1.00  0.00    -0.425 A  
HETATM   24  N   UNL     1     -12.267  12.921  68.912  1.00  0.00    -0.125 NA 
HETATM   25  C   UNL     1     -11.175  10.726  68.907  1.00  0.00    -0.328 A  
HETATM   26  C   UNL     1     -12.552  12.679  70.210  1.00  0.00     0.027 A  
HETATM   27  C   UNL     1     -11.472  10.536  70.268  1.00  0.00    -0.416 A  
BRANCH  22  28
HETATM   28  C   UNL     1     -11.143  12.999  66.100  1.00  0.00    -0.287 C  
BRANCH  28  29
HETATM   29  C   UNL     1     -10.216  14.154  66.394  1.00  0.00    -0.292 A  
HETATM   30  C   UNL     1      -9.357  16.343  65.746  1.00  0.00    -0.152 A  
HETATM   31  C   UNL     1      -8.293  16.201  66.632  1.00  0.00    -0.321 A  
HETATM   32  C   UNL     1     -10.308  15.329  65.639  1.00  0.00    -0.366 A  
HETATM   33  C   UNL     1      -8.208  15.063  67.432  1.00  0.00    -0.215 A  
HETATM   34  F   UNL     1     -11.307  15.482  64.759  1.00  0.00    -0.373 F  
HETATM   35  C   UNL     1      -9.161  14.044  67.315  1.00  0.00    -0.231 A  
ENDBRANCH  28  29
ENDBRANCH  22  28
ENDBRANCH  12  19
ENDBRANCH   4   7
ENDBRANCH   2   3
TORSDOF 5
ENDMDL
MODEL      134
REMARK 921   NORMALIZED FREE ENERGY PREDICTED BY IDOCK:   -5.13 KCAL/MOL
REMARK 922        TOTAL FREE ENERGY PREDICTED BY IDOCK:   -7.43 KCAL/MOL
REMARK 923 INTER-LIGAND FREE ENERGY PREDICTED BY IDOCK:   -6.53 KCAL/MOL
REMARK 924 INTRA-LIGAND FREE ENERGY PREDICTED BY IDOCK:   -0.91 KCAL/MOL
REMARK 927      BINDING AFFINITY PREDICTED BY RF-SCORE:    0.00 PKD
ROOT
HETATM    1  C   UNL     1      -9.311   3.509  66.976  1.00  0.00    -0.194 C  
HETATM    2  O   UNL     1      -9.354   4.595  67.900  1.00  0.00    -0.121 OA 
ENDROOT
BRANCH   2   3
HETATM    3  C   UNL     1      -9.018   4.263  69.178  1.00  0.00    -0.107 C  
HETATM    4  N   UNL     1      -8.825   5.368  69.992  1.00  0.00    -0.124 N  
HETATM    5  O   UNL     1      -8.890   3.105  69.565  1.00  0.00    -0.072 OA 
HETATM    6  C   UNL     1      -8.507   5.215  71.398  1.00  0.00    -0.124 C  
BRANCH   4   7
HETATM    7  C   UNL     1      -9.073   6.687  69.523  1.00  0.00    -0.144 A  
HETATM    8  C   UNL     1     -10.360   7.211  69.447  1.00  0.00    -0.198 A  
HETATM    9  N   UNL     1     -11.493   6.427  69.674  1.00  0.00    -0.563 NA 
HETATM   10  N   UNL     1     -10.603   8.473  69.079  1.00  0.00    -0.194 NA 
HETATM   11  H1  UNL     1     -12.437   6.811  69.619  1.00  0.00     0.000 HD 
HETATM   12  C   UNL     1      -9.535   9.228  68.759  1.00  0.00    -0.150 A  
HETATM   13  H2  UNL     1     -11.390   5.988  70.588  1.00  0.00     0.000 HD 
HETATM   14  N   UNL     1      -8.251   8.806  68.767  1.00  0.00    -0.115 NA 
HETATM   15  H2  UNL     1      -6.687   6.285  68.470  1.00  0.00     0.000 HD 
HETATM   16  H1  UNL     1      -5.956   7.724  68.813  1.00  0.00     0.000 HD 
HETATM   17  C   UNL     1      -8.039   7.540  69.152  1.00  0.00    -0.123 A  
HETATM   18  N   UNL     1      -6.715   7.098  69.085  1.00  0.00    -0.048 NA 
BRANCH  12  19
HETATM   19  C   UNL     1      -9.788  10.631  68.380  1.00  0.00    -0.161 A  
HETATM   20  C   UNL     1     -10.619  12.709  68.280  1.00  0.00    -0.237 A  
HETATM   21  N   UNL     1      -9.195  11.218  67.312  1.00  0.00    -0.164 NA 
HETATM   22  N   UNL     1      -9.671  12.488  67.322  1.00  0.00    -0.199 NA 
HETATM   23  C   UNL     1     -12.218  12.716  70.440  1.00  0.00    -0.368 A  
HETATM   24  N   UNL     1     -11.330  13.839  68.469  1.00  0.00    -0.266 NA 
HETATM   25  C   UNL     1     -10.666  11.549  69.038  1.00  0.00    -0.233 A  
HETATM   26  C   UNL     1     -12.124  13.787  69.562  1.00  0.00    -0.334 A  
HETATM   27  C   UNL     1     -11.487  11.557  70.179  1.00  0.00    -0.258 A  
BRANCH  22  28
HETATM   28  C   UNL     1      -9.219  13.455  66.332  1.00  0.00    -0.116 C  
BRANCH  28  29
HETATM   29  C   UNL     1     -10.221  13.717  65.234  1.00  0.00    -0.355 A  
HETATM   30  C   UNL     1     -11.674  15.305  64.086  1.00  0.00    -0.115 A  
HETATM   31  C   UNL     1     -12.346  14.257  63.462  1.00  0.00     0.271 A  
HETATM   32  C   UNL     1     -10.619  15.029  64.955  1.00  0.00    -0.412 A  
HETATM   33  C   UNL     1     -11.934  12.944  63.684  1.00  0.00    -0.613 A  
HETATM   34  F   UNL     1     -10.008  16.057  65.560  1.00  0.00    -0.325 F  
HETATM   35  C   UNL     1     -10.879  12.673  64.564  1.00  0.00    -0.365 A  
ENDBRANCH  28  29
ENDBRANCH  22  28
ENDBRANCH  12  19
ENDBRANCH   4   7
ENDBRANCH   2   3
TORSDOF 5
ENDMDL
MODEL      135
REMARK 921   NORMALIZED FREE ENERGY PREDICTED BY IDOCK:   -5.13 KCAL/MOL
REMARK 922        TOTAL FREE ENERGY PREDICTED BY IDOCK:   -7.43 KCAL/MOL
REMARK 923 INTER-LIGAND FREE ENERGY PREDICTED BY IDOCK:   -6.73 KCAL/MOL
REMARK 924 INTRA-LIGAND FREE ENERGY PREDICTED BY IDOCK:   -0.70 KCAL/MOL
REMARK 927      BINDING AFFINITY PREDICTED BY RF-SCORE:    0.00 PKD
ROOT
HETATM    1  C   UNL     1      -7.795  14.340  67.334  1.00  0.00    -0.187 C  
HETATM    2  O   UNL     1      -9.214  14.194  67.302  1.00  0.00    -0.201 OA 
ENDROOT
BRANCH   2   3
HETATM    3  C   UNL     1      -9.770  14.347  66.069  1.00  0.00    -0.294 C  
HETATM    4  N   UNL     1     -10.286  13.167  65.556  1.00  0.00    -0.286 N  
HETATM    5  O   UNL     1      -9.801  15.417  65.469  1.00  0.00    -0.342 OA 
HETATM    6  C   UNL     1     -10.961  13.141  64.274  1.00  0.00    -0.403 C  
BRANCH   4   7
HETATM    7  C   UNL     1     -10.308  11.971  66.325  1.00  0.00    -0.221 A  
HETATM    8  C   UNL     1     -11.242  11.764  67.337  1.00  0.00    -0.297 A  
HETATM    9  N   UNL     1     -12.107  12.774  67.765  1.00  0.00    -0.321 NA 
HETATM   10  N   UNL     1     -11.322  10.617  68.018  1.00  0.00    -0.377 NA 
HETATM   11  H1  UNL     1     -12.790  12.622  68.506  1.00  0.00     0.000 HD 
HETATM   12  C   UNL     1     -10.435   9.656  67.695  1.00  0.00    -0.261 A  
HETATM   13  H2  UNL     1     -12.606  13.122  66.947  1.00  0.00     0.000 HD 
HETATM   14  N   UNL     1      -9.471   9.769  66.755  1.00  0.00    -0.157 NA 
HETATM   15  H2  UNL     1      -7.829  11.874  65.426  1.00  0.00     0.000 HD 
HETATM   16  H1  UNL     1      -7.727  10.287  64.986  1.00  0.00     0.000 HD 
HETATM   17  C   UNL     1      -9.424  10.927  66.081  1.00  0.00    -0.200 A  
HETATM   18  N   UNL     1      -8.376  11.054  65.165  1.00  0.00     0.005 NA 
BRANCH  12  19
HETATM   19  C   UNL     1     -10.533   8.374  68.419  1.00  0.00    -0.164 A  
HETATM   20  C   UNL     1     -10.838   6.829  70.013  1.00  0.00    -0.266 A  
HETATM   21  N   UNL     1     -10.164   7.193  67.868  1.00  0.00    -0.176 NA 
HETATM   22  N   UNL     1     -10.423   6.278  68.835  1.00  0.00    -0.206 NA 
HETATM   23  C   UNL     1     -11.842   8.342  71.995  1.00  0.00    -0.417 A  
HETATM   24  N   UNL     1     -11.080   6.180  71.170  1.00  0.00    -0.292 NA 
HETATM   25  C   UNL     1     -10.997   8.184  69.759  1.00  0.00    -0.133 A  
HETATM   26  C   UNL     1     -11.574   6.987  72.135  1.00  0.00    -0.282 A  
HETATM   27  C   UNL     1     -11.540   8.973  70.788  1.00  0.00    -0.313 A  
BRANCH  22  28
HETATM   28  C   UNL     1     -10.192   4.861  68.592  1.00  0.00    -0.042 C  
BRANCH  28  29
HETATM   29  C   UNL     1      -9.434   4.577  67.317  1.00  0.00    -0.184 A  
HETATM   30  C   UNL     1      -7.320   4.639  66.102  1.00  0.00    -0.077 A  
HETATM   31  C   UNL     1      -7.991   4.422  64.901  1.00  0.00    -0.094 A  
HETATM   32  C   UNL     1      -8.041   4.707  67.294  1.00  0.00    -0.102 A  
HETATM   33  C   UNL     1      -9.372   4.238  64.906  1.00  0.00    -0.165 A  
HETATM   34  F   UNL     1      -7.371   4.942  68.430  1.00  0.00    -0.062 F  
HETATM   35  C   UNL     1     -10.092   4.314  66.104  1.00  0.00    -0.210 A  
ENDBRANCH  28  29
ENDBRANCH  22  28
ENDBRANCH  12  19
ENDBRANCH   4   7
ENDBRANCH   2   3
TORSDOF 5
ENDMDL
MODEL      136
REMARK 921   NORMALIZED FREE ENERGY PREDICTED BY IDOCK:   -5.10 KCAL/MOL
REMARK 922        TOTAL FREE ENERGY PREDICTED BY IDOCK:   -7.39 KCAL/MOL
REMARK 923 INTER-LIGAND FREE ENERGY PREDICTED BY IDOCK:   -6.74 KCAL/MOL
REMARK 924 INTRA-LIGAND FREE ENERGY PREDICTED BY IDOCK:   -0.66 KCAL/MOL
REMARK 927      BINDING AFFINITY PREDICTED BY RF-SCORE:    0.00 PKD
ROOT
HETATM    1  C   UNL     1     -10.706  18.631  65.595  1.00  0.00    -0.086 C  
HETATM    2  O   UNL     1     -10.709  18.413  67.005  1.00  0.00    -0.380 OA 
ENDROOT
BRANCH   2   3
HETATM    3  C   UNL     1      -9.693  19.025  67.674  1.00  0.00    -0.315 C  
HETATM    4  N   UNL     1      -8.921  18.141  68.411  1.00  0.00    -0.289 N  
HETATM    5  O   UNL     1      -9.489  20.234  67.635  1.00  0.00    -0.370 OA 
HETATM    6  C   UNL     1      -7.763  18.600  69.154  1.00  0.00    -0.080 C  
BRANCH   4   7
HETATM    7  C   UNL     1      -9.139  16.738  68.354  1.00  0.00    -0.233 A  
HETATM    8  C   UNL     1     -10.176  16.125  69.052  1.00  0.00    -0.250 A  
HETATM    9  N   UNL     1     -10.963  16.822  69.971  1.00  0.00    -0.388 NA 
HETATM   10  N   UNL     1     -10.440  14.818  68.950  1.00  0.00    -0.243 NA 
HETATM   11  H1  UNL     1     -11.723  16.373  70.483  1.00  0.00     0.000 HD 
HETATM   12  C   UNL     1      -9.635  14.099  68.144  1.00  0.00    -0.218 A  
HETATM   13  H2  UNL     1     -11.348  17.637  69.496  1.00  0.00     0.000 HD 
HETATM   14  N   UNL     1      -8.584  14.590  67.451  1.00  0.00    -0.188 NA 
HETATM   15  H2  UNL     1      -6.615  16.824  67.592  1.00  0.00     0.000 HD 
HETATM   16  H1  UNL     1      -6.644  15.772  66.322  1.00  0.00     0.000 HD 
HETATM   17  C   UNL     1      -8.354  15.905  67.565  1.00  0.00    -0.163 A  
HETATM   18  N   UNL     1      -7.221  16.383  66.900  1.00  0.00    -0.220 NA 
BRANCH  12  19
HETATM   19  C   UNL     1      -9.933  12.661  68.000  1.00  0.00    -0.220 A  
HETATM   20  C   UNL     1     -10.248  10.610  67.153  1.00  0.00    -0.216 A  
HETATM   21  N   UNL     1     -10.422  11.910  69.016  1.00  0.00    -0.130 NA 
HETATM   22  N   UNL     1     -10.538  10.666  68.487  1.00  0.00    -0.187 NA 
HETATM   23  C   UNL     1      -9.348  10.958  64.644  1.00  0.00    -0.256 A  
HETATM   24  N   UNL     1     -10.361   9.537  66.345  1.00  0.00    -0.214 NA 
HETATM   25  C   UNL     1      -9.776  11.871  66.818  1.00  0.00    -0.218 A  
HETATM   26  C   UNL     1      -9.904   9.768  65.094  1.00  0.00    -0.224 A  
HETATM   27  C   UNL     1      -9.287  12.049  65.512  1.00  0.00    -0.042 A  
BRANCH  22  28
HETATM   28  C   UNL     1     -10.998   9.555  69.306  1.00  0.00    -0.145 C  
BRANCH  28  29
HETATM   29  C   UNL     1      -9.997   9.107  70.344  1.00  0.00    -0.263 A  
HETATM   30  C   UNL     1      -7.885   7.998  70.849  1.00  0.00    -0.089 A  
HETATM   31  C   UNL     1      -8.234   7.919  72.194  1.00  0.00    -0.160 A  
HETATM   32  C   UNL     1      -8.759   8.595  69.942  1.00  0.00    -0.133 A  
HETATM   33  C   UNL     1      -9.439   8.469  72.628  1.00  0.00    -0.295 A  
HETATM   34  F   UNL     1      -8.407   8.634  68.649  1.00  0.00    -0.115 F  
HETATM   35  C   UNL     1     -10.317   9.060  71.711  1.00  0.00    -0.407 A  
ENDBRANCH  28  29
ENDBRANCH  22  28
ENDBRANCH  12  19
ENDBRANCH   4   7
ENDBRANCH   2   3
TORSDOF 5
ENDMDL
MODEL      137
REMARK 921   NORMALIZED FREE ENERGY PREDICTED BY IDOCK:   -5.09 KCAL/MOL
REMARK 922        TOTAL FREE ENERGY PREDICTED BY IDOCK:   -7.38 KCAL/MOL
REMARK 923 INTER-LIGAND FREE ENERGY PREDICTED BY IDOCK:   -6.28 KCAL/MOL
REMARK 924 INTRA-LIGAND FREE ENERGY PREDICTED BY IDOCK:   -1.10 KCAL/MOL
REMARK 927      BINDING AFFINITY PREDICTED BY RF-SCORE:    0.00 PKD
ROOT
HETATM    1  C   UNL     1     -11.468  15.230  71.653  1.00  0.00    -0.405 C  
HETATM    2  O   UNL     1     -10.849  14.715  70.475  1.00  0.00    -0.035 OA 
ENDROOT
BRANCH   2   3
HETATM    3  C   UNL     1     -11.476  15.050  69.314  1.00  0.00    -0.307 C  
HETATM    4  N   UNL     1     -11.459  14.031  68.375  1.00  0.00    -0.287 N  
HETATM    5  O   UNL     1     -11.995  16.145  69.117  1.00  0.00    -0.281 OA 
HETATM    6  C   UNL     1     -12.119  14.183  67.094  1.00  0.00    -0.397 C  
BRANCH   4   7
HETATM    7  C   UNL     1     -10.927  12.749  68.682  1.00  0.00    -0.260 A  
HETATM    8  C   UNL     1     -11.606  11.845  69.493  1.00  0.00    -0.327 A  
HETATM    9  N   UNL     1     -12.769  12.196  70.182  1.00  0.00     0.134 NA 
HETATM   10  N   UNL     1     -11.154  10.609  69.731  1.00  0.00    -0.277 NA 
HETATM   11  H1  UNL     1     -13.268  11.534  70.776  1.00  0.00     0.000 HD 
HETATM   12  C   UNL     1      -9.982  10.272  69.159  1.00  0.00    -0.222 A  
HETATM   13  H2  UNL     1     -13.434  12.564  69.501  1.00  0.00     0.000 HD 
HETATM   14  N   UNL     1      -9.230  11.085  68.384  1.00  0.00    -0.168 NA 
HETATM   15  H2  UNL     1      -8.708  13.992  67.978  1.00  0.00     0.000 HD 
HETATM   16  H1  UNL     1      -8.004  12.843  67.026  1.00  0.00     0.000 HD 
HETATM   17  C   UNL     1      -9.717  12.313  68.155  1.00  0.00    -0.213 A  
HETATM   18  N   UNL     1      -8.893  13.163  67.413  1.00  0.00    -0.194 NA 
BRANCH  12  19
HETATM   19  C   UNL     1      -9.487   8.901  69.389  1.00  0.00    -0.161 A  
HETATM   20  C   UNL     1      -8.968   6.737  69.130  1.00  0.00    -0.132 A  
HETATM   21  N   UNL     1      -9.015   8.486  70.588  1.00  0.00    -0.150 NA 
HETATM   22  N   UNL     1      -8.652   7.197  70.377  1.00  0.00    -0.141 NA 
HETATM   23  C   UNL     1      -9.547   6.388  66.528  1.00  0.00    -0.185 A  
HETATM   24  N   UNL     1      -8.811   5.481  68.667  1.00  0.00    -0.108 NA 
HETATM   25  C   UNL     1      -9.441   7.839  68.432  1.00  0.00    -0.148 A  
HETATM   26  C   UNL     1      -9.124   5.358  67.358  1.00  0.00    -0.111 A  
HETATM   27  C   UNL     1      -9.726   7.662  67.067  1.00  0.00    -0.255 A  
BRANCH  22  28
HETATM   28  C   UNL     1      -8.047   6.414  71.445  1.00  0.00    -0.113 C  
BRANCH  28  29
HETATM   29  C   UNL     1      -9.050   5.707  72.325  1.00  0.00    -0.144 A  
HETATM   30  C   UNL     1     -10.246   5.613  74.448  1.00  0.00    -0.295 A  
HETATM   31  C   UNL     1     -10.627   4.299  74.189  1.00  0.00    -0.323 A  
HETATM   32  C   UNL     1      -9.473   6.305  73.517  1.00  0.00    -0.141 A  
HETATM   33  C   UNL     1     -10.261   3.699  72.985  1.00  0.00    -0.232 A  
HETATM   34  F   UNL     1      -9.101   7.560  73.805  1.00  0.00    -0.211 F  
HETATM   35  C   UNL     1      -9.478   4.396  72.057  1.00  0.00    -0.196 A  
ENDBRANCH  28  29
ENDBRANCH  22  28
ENDBRANCH  12  19
ENDBRANCH   4   7
ENDBRANCH   2   3
TORSDOF 5
ENDMDL
MODEL      138
REMARK 921   NORMALIZED FREE ENERGY PREDICTED BY IDOCK:   -5.08 KCAL/MOL
REMARK 922        TOTAL FREE ENERGY PREDICTED BY IDOCK:   -7.37 KCAL/MOL
REMARK 923 INTER-LIGAND FREE ENERGY PREDICTED BY IDOCK:   -6.59 KCAL/MOL
REMARK 924 INTRA-LIGAND FREE ENERGY PREDICTED BY IDOCK:   -0.78 KCAL/MOL
REMARK 927      BINDING AFFINITY PREDICTED BY RF-SCORE:    0.00 PKD
ROOT
HETATM    1  C   UNL     1     -11.481  14.291  67.260  1.00  0.00    -0.352 C  
HETATM    2  O   UNL     1     -10.462  13.300  67.139  1.00  0.00    -0.246 OA 
ENDROOT
BRANCH   2   3
HETATM    3  C   UNL     1     -10.488  12.603  65.969  1.00  0.00    -0.268 C  
HETATM    4  N   UNL     1     -10.087  11.284  66.116  1.00  0.00    -0.228 N  
HETATM    5  O   UNL     1     -10.821  13.094  64.895  1.00  0.00    -0.302 OA 
HETATM    6  C   UNL     1     -10.095  10.370  64.991  1.00  0.00    -0.309 C  
BRANCH   4   7
HETATM    7  C   UNL     1      -9.797  10.734  67.395  1.00  0.00    -0.177 A  
HETATM    8  C   UNL     1     -10.801  10.431  68.310  1.00  0.00    -0.254 A  
HETATM    9  N   UNL     1     -12.133  10.791  68.095  1.00  0.00    -0.759 NA 
HETATM   10  N   UNL     1     -10.551   9.846  69.486  1.00  0.00    -0.226 NA 
HETATM   11  H1  UNL     1     -12.869  10.569  68.766  1.00  0.00     0.000 HD 
HETATM   12  C   UNL     1      -9.262   9.574  69.766  1.00  0.00    -0.208 A  
HETATM   13  H2  UNL     1     -12.414  10.416  67.190  1.00  0.00     0.000 HD 
HETATM   14  N   UNL     1      -8.212   9.859  68.963  1.00  0.00    -0.115 NA 
HETATM   15  H2  UNL     1      -7.447  11.789  66.823  1.00  0.00     0.000 HD 
HETATM   16  H1  UNL     1      -6.443  10.565  67.287  1.00  0.00     0.000 HD 
HETATM   17  C   UNL     1      -8.498  10.433  67.786  1.00  0.00    -0.114 A  
HETATM   18  N   UNL     1      -7.397  10.786  67.000  1.00  0.00    -0.104 NA 
BRANCH  12  19
HETATM   19  C   UNL     1      -8.975   8.902  71.048  1.00  0.00    -0.241 A  
HETATM   20  C   UNL     1      -7.921   8.002  72.808  1.00  0.00    -0.148 A  
HETATM   21  N   UNL     1      -9.938   8.315  71.797  1.00  0.00    -0.197 NA 
HETATM   22  N   UNL     1      -9.276   7.839  72.881  1.00  0.00    -0.184 NA 
HETATM   23  C   UNL     1      -5.390   8.766  72.326  1.00  0.00    -0.053 A  
HETATM   24  N   UNL     1      -7.004   7.552  73.688  1.00  0.00    -0.083 NA 
HETATM   25  C   UNL     1      -7.694   8.758  71.668  1.00  0.00    -0.117 A  
HETATM   26  C   UNL     1      -5.748   7.956  73.395  1.00  0.00    -0.050 A  
HETATM   27  C   UNL     1      -6.373   9.175  71.425  1.00  0.00    -0.077 A  
BRANCH  22  28
HETATM   28  C   UNL     1      -9.997   7.170  73.953  1.00  0.00    -0.318 C  
BRANCH  28  29
HETATM   29  C   UNL     1     -10.049   5.668  73.808  1.00  0.00    -0.220 A  
HETATM   30  C   UNL     1     -11.290   3.694  73.093  1.00  0.00    -0.088 A  
HETATM   31  C   UNL     1     -10.416   2.873  73.803  1.00  0.00    -0.244 A  
HETATM   32  C   UNL     1     -11.096   5.074  73.095  1.00  0.00    -0.326 A  
HETATM   33  C   UNL     1      -9.335   3.437  74.478  1.00  0.00    -0.117 A  
HETATM   34  F   UNL     1     -11.968   5.840  72.424  1.00  0.00    -0.351 F  
HETATM   35  C   UNL     1      -9.150   4.825  74.483  1.00  0.00    -0.114 A  
ENDBRANCH  28  29
ENDBRANCH  22  28
ENDBRANCH  12  19
ENDBRANCH   4   7
ENDBRANCH   2   3
TORSDOF 5
ENDMDL
MODEL      139
REMARK 921   NORMALIZED FREE ENERGY PREDICTED BY IDOCK:   -5.07 KCAL/MOL
REMARK 922        TOTAL FREE ENERGY PREDICTED BY IDOCK:   -7.36 KCAL/MOL
REMARK 923 INTER-LIGAND FREE ENERGY PREDICTED BY IDOCK:   -6.28 KCAL/MOL
REMARK 924 INTRA-LIGAND FREE ENERGY PREDICTED BY IDOCK:   -1.08 KCAL/MOL
REMARK 927      BINDING AFFINITY PREDICTED BY RF-SCORE:    0.00 PKD
ROOT
HETATM    1  C   UNL     1      -9.206   4.174  72.528  1.00  0.00    -0.115 C  
HETATM    2  O   UNL     1      -9.802   5.383  72.063  1.00  0.00    -0.161 OA 
ENDROOT
BRANCH   2   3
HETATM    3  C   UNL     1     -11.130   5.502  72.341  1.00  0.00    -0.256 C  
HETATM    4  N   UNL     1     -11.694   6.652  71.811  1.00  0.00    -0.303 N  
HETATM    5  O   UNL     1     -11.759   4.682  73.002  1.00  0.00    -0.196 OA 
HETATM    6  C   UNL     1     -13.109   6.929  71.962  1.00  0.00    -0.100 C  
BRANCH   4   7
HETATM    7  C   UNL     1     -10.948   7.528  70.976  1.00  0.00    -0.251 A  
HETATM    8  C   UNL     1     -10.923   7.382  69.592  1.00  0.00    -0.172 A  
HETATM    9  N   UNL     1     -11.497   6.280  68.953  1.00  0.00    -0.495 NA 
HETATM   10  N   UNL     1     -10.287   8.240  68.788  1.00  0.00    -0.211 NA 
HETATM   11  H1  UNL     1     -11.479   6.173  67.939  1.00  0.00     0.000 HD 
HETATM   12  C   UNL     1      -9.640   9.261  69.382  1.00  0.00    -0.168 A  
HETATM   13  H2  UNL     1     -12.469   6.217  69.255  1.00  0.00     0.000 HD 
HETATM   14  N   UNL     1      -9.574   9.473  70.716  1.00  0.00    -0.243 NA 
HETATM   15  H2  UNL     1      -9.706   7.938  73.268  1.00  0.00     0.000 HD 
HETATM   16  H1  UNL     1      -9.569   9.581  73.250  1.00  0.00     0.000 HD 
HETATM   17  C   UNL     1     -10.233   8.602  71.493  1.00  0.00    -0.274 A  
HETATM   18  N   UNL     1     -10.094   8.793  72.870  1.00  0.00     0.179 NA 
BRANCH  12  19
HETATM   19  C   UNL     1      -8.958  10.232  68.505  1.00  0.00    -0.134 A  
HETATM   20  C   UNL     1      -7.459  11.242  67.181  1.00  0.00    -0.130 A  
HETATM   21  N   UNL     1      -9.450  11.470  68.264  1.00  0.00    -0.184 NA 
HETATM   22  N   UNL     1      -8.553  12.026  67.412  1.00  0.00    -0.163 NA 
HETATM   23  C   UNL     1      -5.666   9.267  66.852  1.00  0.00    -0.048 A  
HETATM   24  N   UNL     1      -6.370  11.566  66.455  1.00  0.00    -0.103 NA 
HETATM   25  C   UNL     1      -7.722  10.035  67.812  1.00  0.00    -0.090 A  
HETATM   26  C   UNL     1      -5.497  10.542  66.328  1.00  0.00    -0.073 A  
HETATM   27  C   UNL     1      -6.795   8.995  67.625  1.00  0.00    -0.070 A  
BRANCH  22  28
HETATM   28  C   UNL     1      -8.768  13.365  66.883  1.00  0.00    -0.142 C  
BRANCH  28  29
HETATM   29  C   UNL     1     -10.117  13.554  66.231  1.00  0.00    -0.298 A  
HETATM   30  C   UNL     1     -12.423  14.327  66.419  1.00  0.00    -0.287 A  
HETATM   31  C   UNL     1     -12.760  13.640  65.255  1.00  0.00    -0.478 A  
HETATM   32  C   UNL     1     -11.111  14.285  66.891  1.00  0.00    -0.312 A  
HETATM   33  C   UNL     1     -11.775  12.949  64.552  1.00  0.00    -0.416 A  
HETATM   34  F   UNL     1     -10.823  14.934  68.027  1.00  0.00    -0.243 F  
HETATM   35  C   UNL     1     -10.461  12.904  65.035  1.00  0.00    -0.337 A  
ENDBRANCH  28  29
ENDBRANCH  22  28
ENDBRANCH  12  19
ENDBRANCH   4   7
ENDBRANCH   2   3
TORSDOF 5
ENDMDL
MODEL      140
REMARK 921   NORMALIZED FREE ENERGY PREDICTED BY IDOCK:   -5.07 KCAL/MOL
REMARK 922        TOTAL FREE ENERGY PREDICTED BY IDOCK:   -7.36 KCAL/MOL
REMARK 923 INTER-LIGAND FREE ENERGY PREDICTED BY IDOCK:   -7.29 KCAL/MOL
REMARK 924 INTRA-LIGAND FREE ENERGY PREDICTED BY IDOCK:   -0.07 KCAL/MOL
REMARK 927      BINDING AFFINITY PREDICTED BY RF-SCORE:    0.00 PKD
ROOT
HETATM    1  C   UNL     1      -6.259  10.107  64.297  1.00  0.00    -0.132 C  
HETATM    2  O   UNL     1      -7.038   9.072  64.895  1.00  0.00    -0.089 OA 
ENDROOT
BRANCH   2   3
HETATM    3  C   UNL     1      -6.309   8.095  65.501  1.00  0.00    -0.048 C  
HETATM    4  N   UNL     1      -6.541   8.013  66.865  1.00  0.00    -0.056 N  
HETATM    5  O   UNL     1      -5.521   7.369  64.903  1.00  0.00    -0.032 OA 
HETATM    6  C   UNL     1      -5.892   7.000  67.675  1.00  0.00    -0.021 C  
BRANCH   4   7
HETATM    7  C   UNL     1      -7.530   8.813  67.499  1.00  0.00    -0.089 A  
HETATM    8  C   UNL     1      -7.211  10.009  68.137  1.00  0.00    -0.081 A  
HETATM    9  N   UNL     1      -5.889  10.415  68.331  1.00  0.00    -0.040 NA 
HETATM   10  N   UNL     1      -8.138  10.809  68.673  1.00  0.00    -0.128 NA 
HETATM   11  H1  UNL     1      -5.654  11.291  68.798  1.00  0.00     0.000 HD 
HETATM   12  C   UNL     1      -9.417  10.396  68.589  1.00  0.00    -0.167 A  
HETATM   13  H2  UNL     1      -5.427  10.414  67.422  1.00  0.00     0.000 HD 
HETATM   14  N   UNL     1      -9.828   9.240  68.022  1.00  0.00    -0.157 NA 
HETATM   15  H2  UNL     1      -8.800   6.501  67.448  1.00  0.00     0.000 HD 
HETATM   16  H1  UNL     1     -10.297   6.987  66.955  1.00  0.00     0.000 HD 
HETATM   17  C   UNL     1      -8.876   8.466  67.483  1.00  0.00    -0.135 A  
HETATM   18  N   UNL     1      -9.309   7.242  66.967  1.00  0.00    -0.142 NA 
BRANCH  12  19
HETATM   19  C   UNL     1     -10.453  11.285  69.150  1.00  0.00    -0.160 A  
HETATM   20  C   UNL     1     -12.165  12.093  70.348  1.00  0.00    -0.294 A  
HETATM   21  N   UNL     1     -10.693  12.526  68.665  1.00  0.00    -0.237 NA 
HETATM   22  N   UNL     1     -11.687  13.007  69.453  1.00  0.00    -0.312 NA 
HETATM   23  C   UNL     1     -12.581  10.066  72.064  1.00  0.00    -0.379 A  
HETATM   24  N   UNL     1     -13.204  12.254  71.192  1.00  0.00    -0.013 NA 
HETATM   25  C   UNL     1     -11.336  10.987  70.235  1.00  0.00    -0.291 A  
HETATM   26  C   UNL     1     -13.375  11.205  72.027  1.00  0.00    -0.278 A  
HETATM   27  C   UNL     1     -11.539   9.934  71.145  1.00  0.00    -0.468 A  
BRANCH  22  28
HETATM   28  C   UNL     1     -12.193  14.358  69.262  1.00  0.00    -0.239 C  
BRANCH  28  29
HETATM   29  C   UNL     1     -12.574  15.053  70.547  1.00  0.00    -0.420 A  
HETATM   30  C   UNL     1     -11.869  16.014  72.675  1.00  0.00    -0.611 A  
HETATM   31  C   UNL     1     -13.188  16.028  73.119  1.00  0.00    -0.633 A  
HETATM   32  C   UNL     1     -11.575  15.537  71.398  1.00  0.00    -0.419 A  
HETATM   33  C   UNL     1     -14.207  15.600  72.270  1.00  0.00    -0.538 A  
HETATM   34  F   UNL     1     -10.293  15.513  71.008  1.00  0.00    -0.255 F  
HETATM   35  C   UNL     1     -13.905  15.115  70.992  1.00  0.00    -0.423 A  
ENDBRANCH  28  29
ENDBRANCH  22  28
ENDBRANCH  12  19
ENDBRANCH   4   7
ENDBRANCH   2   3
TORSDOF 5
ENDMDL
MODEL      141
REMARK 921   NORMALIZED FREE ENERGY PREDICTED BY IDOCK:   -5.06 KCAL/MOL
REMARK 922        TOTAL FREE ENERGY PREDICTED BY IDOCK:   -7.35 KCAL/MOL
REMARK 923 INTER-LIGAND FREE ENERGY PREDICTED BY IDOCK:   -6.43 KCAL/MOL
REMARK 924 INTRA-LIGAND FREE ENERGY PREDICTED BY IDOCK:   -0.92 KCAL/MOL
REMARK 927      BINDING AFFINITY PREDICTED BY RF-SCORE:    0.00 PKD
ROOT
HETATM    1  C   UNL     1     -12.927   9.803  72.236  1.00  0.00    -0.333 C  
HETATM    2  O   UNL     1     -12.372   8.781  71.410  1.00  0.00    -0.299 OA 
ENDROOT
BRANCH   2   3
HETATM    3  C   UNL     1     -11.477   7.970  72.039  1.00  0.00    -0.309 C  
HETATM    4  N   UNL     1     -10.417   7.599  71.227  1.00  0.00    -0.206 N  
HETATM    5  O   UNL     1     -11.602   7.598  73.202  1.00  0.00    -0.251 OA 
HETATM    6  C   UNL     1      -9.337   6.776  71.735  1.00  0.00    -0.147 C  
BRANCH   4   7
HETATM    7  C   UNL     1     -10.266   8.128  69.916  1.00  0.00    -0.204 A  
HETATM    8  C   UNL     1      -9.656   9.357  69.683  1.00  0.00    -0.188 A  
HETATM    9  N   UNL     1      -9.298  10.215  70.726  1.00  0.00    -0.143 NA 
HETATM   10  N   UNL     1      -9.441   9.834  68.453  1.00  0.00    -0.139 NA 
HETATM   11  H1  UNL     1      -8.850  11.116  70.556  1.00  0.00     0.000 HD 
HETATM   12  C   UNL     1      -9.865   9.073  67.426  1.00  0.00    -0.190 A  
HETATM   13  H2  UNL     1      -8.706   9.691  71.370  1.00  0.00     0.000 HD 
HETATM   14  N   UNL     1     -10.497   7.884  67.544  1.00  0.00    -0.259 NA 
HETATM   15  H2  UNL     1     -12.223   6.412  69.479  1.00  0.00     0.000 HD 
HETATM   16  H1  UNL     1     -11.713   5.720  68.071  1.00  0.00     0.000 HD 
HETATM   17  C   UNL     1     -10.686   7.428  68.790  1.00  0.00    -0.118 A  
HETATM   18  N   UNL     1     -11.404   6.234  68.897  1.00  0.00    -0.317 NA 
BRANCH  12  19
HETATM   19  C   UNL     1      -9.607   9.574  66.062  1.00  0.00    -0.251 A  
HETATM   20  C   UNL     1      -9.700  10.745  64.154  1.00  0.00    -0.309 A  
HETATM   21  N   UNL     1      -8.757   8.959  65.206  1.00  0.00    -0.183 NA 
HETATM   22  N   UNL     1      -8.790   9.729  64.090  1.00  0.00    -0.216 NA 
HETATM   23  C   UNL     1     -11.407  12.703  64.849  1.00  0.00    -0.347 A  
HETATM   24  N   UNL     1     -10.017  11.611  63.171  1.00  0.00    -0.400 NA 
HETATM   25  C   UNL     1     -10.196  10.725  65.450  1.00  0.00    -0.341 A  
HETATM   26  C   UNL     1     -10.884  12.569  63.569  1.00  0.00    -0.397 A  
HETATM   27  C   UNL     1     -11.073  11.759  65.821  1.00  0.00    -0.351 A  
BRANCH  22  28
HETATM   28  C   UNL     1      -7.954   9.405  62.943  1.00  0.00    -0.135 C  
BRANCH  28  29
HETATM   29  C   UNL     1      -7.183   8.116  63.095  1.00  0.00    -0.091 A  
HETATM   30  C   UNL     1      -5.157   6.986  63.846  1.00  0.00    -0.028 A  
HETATM   31  C   UNL     1      -5.506   5.851  63.119  1.00  0.00    -0.017 A  
HETATM   32  C   UNL     1      -5.996   8.100  63.834  1.00  0.00    -0.066 A  
HETATM   33  C   UNL     1      -6.710   5.825  62.417  1.00  0.00    -0.035 A  
HETATM   34  F   UNL     1      -5.620   9.187  64.523  1.00  0.00    -0.058 F  
HETATM   35  C   UNL     1      -7.545   6.949  62.403  1.00  0.00    -0.098 A  
ENDBRANCH  28  29
ENDBRANCH  22  28
ENDBRANCH  12  19
ENDBRANCH   4   7
ENDBRANCH   2   3
TORSDOF 5
ENDMDL
MODEL      142
REMARK 921   NORMALIZED FREE ENERGY PREDICTED BY IDOCK:   -5.04 KCAL/MOL
REMARK 922        TOTAL FREE ENERGY PREDICTED BY IDOCK:   -7.32 KCAL/MOL
REMARK 923 INTER-LIGAND FREE ENERGY PREDICTED BY IDOCK:   -6.50 KCAL/MOL
REMARK 924 INTRA-LIGAND FREE ENERGY PREDICTED BY IDOCK:   -0.82 KCAL/MOL
REMARK 927      BINDING AFFINITY PREDICTED BY RF-SCORE:    0.00 PKD
ROOT
HETATM    1  C   UNL     1      -5.523   5.559  68.358  1.00  0.00    -0.008 C  
HETATM    2  O   UNL     1      -6.285   5.631  67.155  1.00  0.00    -0.032 OA 
ENDROOT
BRANCH   2   3
HETATM    3  C   UNL     1      -7.004   4.509  66.873  1.00  0.00    -0.063 C  
HETATM    4  N   UNL     1      -8.364   4.667  67.089  1.00  0.00    -0.105 N  
HETATM    5  O   UNL     1      -6.498   3.463  66.478  1.00  0.00    -0.038 OA 
HETATM    6  C   UNL     1      -9.297   3.596  66.800  1.00  0.00    -0.190 C  
BRANCH   4   7
HETATM    7  C   UNL     1      -8.914   5.924  67.460  1.00  0.00    -0.107 A  
HETATM    8  C   UNL     1      -9.219   6.901  66.517  1.00  0.00    -0.163 A  
HETATM    9  N   UNL     1      -8.859   6.772  65.174  1.00  0.00    -0.358 NA 
HETATM   10  N   UNL     1      -9.805   8.058  66.842  1.00  0.00    -0.224 NA 
HETATM   11  H1  UNL     1      -9.082   7.488  64.482  1.00  0.00     0.000 HD 
HETATM   12  C   UNL     1     -10.077   8.255  68.146  1.00  0.00    -0.200 A  
HETATM   13  H2  UNL     1      -9.233   5.886  64.836  1.00  0.00     0.000 HD 
HETATM   14  N   UNL     1      -9.792   7.387  69.142  1.00  0.00    -0.165 NA 
HETATM   15  H2  UNL     1      -7.858   5.205  69.769  1.00  0.00     0.000 HD 
HETATM   16  H1  UNL     1      -9.083   5.603  70.801  1.00  0.00     0.000 HD 
HETATM   17  C   UNL     1      -9.216   6.231  68.782  1.00  0.00    -0.125 A  
HETATM   18  N   UNL     1      -8.862   5.377  69.831  1.00  0.00    -0.123 NA 
BRANCH  12  19
HETATM   19  C   UNL     1     -10.750   9.515  68.514  1.00  0.00    -0.182 A  
HETATM   20  C   UNL     1     -11.952  11.069  69.591  1.00  0.00    -0.353 A  
HETATM   21  N   UNL     1     -10.808  10.583  67.683  1.00  0.00    -0.279 NA 
HETATM   22  N   UNL     1     -11.484  11.522  68.391  1.00  0.00    -0.270 NA 
HETATM   23  C   UNL     1     -12.433   9.811  71.918  1.00  0.00    -0.451 A  
HETATM   24  N   UNL     1     -12.729  11.743  70.463  1.00  0.00    -0.117 NA 
HETATM   25  C   UNL     1     -11.429   9.793  69.742  1.00  0.00    -0.145 A  
HETATM   26  C   UNL     1     -12.947  11.064  71.611  1.00  0.00    -0.456 A  
HETATM   27  C   UNL     1     -11.663   9.141  70.966  1.00  0.00    -0.363 A  
BRANCH  22  28
HETATM   28  C   UNL     1     -11.709  12.848  67.834  1.00  0.00    -0.357 C  
BRANCH  28  29
HETATM   29  C   UNL     1     -10.654  13.858  68.218  1.00  0.00    -0.263 A  
HETATM   30  C   UNL     1      -8.329  14.581  68.090  1.00  0.00    -0.147 A  
HETATM   31  C   UNL     1      -8.534  15.466  69.145  1.00  0.00    -0.241 A  
HETATM   32  C   UNL     1      -9.386  13.795  67.632  1.00  0.00    -0.213 A  
HETATM   33  C   UNL     1      -9.802  15.585  69.710  1.00  0.00    -0.268 A  
HETATM   34  F   UNL     1      -9.152  12.934  66.632  1.00  0.00    -0.216 F  
HETATM   35  C   UNL     1     -10.858  14.786  69.252  1.00  0.00    -0.275 A  
ENDBRANCH  28  29
ENDBRANCH  22  28
ENDBRANCH  12  19
ENDBRANCH   4   7
ENDBRANCH   2   3
TORSDOF 5
ENDMDL
MODEL      143
REMARK 921   NORMALIZED FREE ENERGY PREDICTED BY IDOCK:   -5.03 KCAL/MOL
REMARK 922        TOTAL FREE ENERGY PREDICTED BY IDOCK:   -7.31 KCAL/MOL
REMARK 923 INTER-LIGAND FREE ENERGY PREDICTED BY IDOCK:   -6.41 KCAL/MOL
REMARK 924 INTRA-LIGAND FREE ENERGY PREDICTED BY IDOCK:   -0.90 KCAL/MOL
REMARK 927      BINDING AFFINITY PREDICTED BY RF-SCORE:    0.00 PKD
ROOT
HETATM    1  C   UNL     1      -8.627   6.296  65.837  1.00  0.00    -0.148 C  
HETATM    2  O   UNL     1      -9.454   6.291  67.000  1.00  0.00    -0.123 OA 
ENDROOT
BRANCH   2   3
HETATM    3  C   UNL     1      -8.953   5.578  68.046  1.00  0.00    -0.108 C  
HETATM    4  N   UNL     1      -8.877   6.316  69.218  1.00  0.00    -0.123 N  
HETATM    5  O   UNL     1      -8.597   4.408  67.959  1.00  0.00    -0.100 OA 
HETATM    6  C   UNL     1      -8.414   5.714  70.452  1.00  0.00    -0.127 C  
BRANCH   4   7
HETATM    7  C   UNL     1      -9.386   7.641  69.294  1.00  0.00    -0.148 A  
HETATM    8  C   UNL     1      -8.591   8.752  69.024  1.00  0.00    -0.132 A  
HETATM    9  N   UNL     1      -7.214   8.644  68.817  1.00  0.00    -0.074 NA 
HETATM   10  N   UNL     1      -9.073   9.999  69.019  1.00  0.00    -0.160 NA 
HETATM   11  H1  UNL     1      -6.631   9.457  68.619  1.00  0.00     0.000 HD 
HETATM   12  C   UNL     1     -10.379  10.145  69.312  1.00  0.00    -0.223 A  
HETATM   13  H2  UNL     1      -7.064   7.965  68.072  1.00  0.00     0.000 HD 
HETATM   14  N   UNL     1     -11.227   9.138  69.621  1.00  0.00    -0.087 NA 
HETATM   15  H2  UNL     1     -11.167   6.397  70.791  1.00  0.00     0.000 HD 
HETATM   16  H1  UNL     1     -12.563   7.068  70.225  1.00  0.00     0.000 HD 
HETATM   17  C   UNL     1     -10.716   7.899  69.605  1.00  0.00    -0.218 A  
HETATM   18  N   UNL     1     -11.587   6.879  69.997  1.00  0.00    -0.280 NA 
BRANCH  12  19
HETATM   19  C   UNL     1     -10.930  11.513  69.282  1.00  0.00    -0.208 A  
HETATM   20  C   UNL     1     -12.095  13.367  69.757  1.00  0.00    -0.310 A  
HETATM   21  N   UNL     1     -10.669  12.384  68.278  1.00  0.00    -0.222 NA 
HETATM   22  N   UNL     1     -11.336  13.511  68.631  1.00  0.00    -0.268 NA 
HETATM   23  C   UNL     1     -13.206  12.676  72.106  1.00  0.00    -0.527 A  
HETATM   24  N   UNL     1     -12.930  14.281  70.293  1.00  0.00    -0.165 NA 
HETATM   25  C   UNL     1     -11.797  12.106  70.253  1.00  0.00    -0.339 A  
HETATM   26  C   UNL     1     -13.467  13.880  71.467  1.00  0.00    -0.309 A  
HETATM   27  C   UNL     1     -12.361  11.751  71.491  1.00  0.00    -0.056 A  
BRANCH  22  28
HETATM   28  C   UNL     1     -11.257  14.707  67.805  1.00  0.00    -0.308 C  
BRANCH  28  29
HETATM   29  C   UNL     1      -9.913  15.394  67.853  1.00  0.00    -0.221 A  
HETATM   30  C   UNL     1      -8.128  16.547  66.657  1.00  0.00    -0.314 A  
HETATM   31  C   UNL     1      -7.275  16.380  67.745  1.00  0.00    -0.155 A  
HETATM   32  C   UNL     1      -9.434  16.063  66.722  1.00  0.00    -0.231 A  
HETATM   33  C   UNL     1      -7.746  15.763  68.903  1.00  0.00    -0.186 A  
HETATM   34  F   UNL     1     -10.223  16.216  65.649  1.00  0.00    -0.318 F  
HETATM   35  C   UNL     1      -9.056  15.272  68.959  1.00  0.00    -0.225 A  
ENDBRANCH  28  29
ENDBRANCH  22  28
ENDBRANCH  12  19
ENDBRANCH   4   7
ENDBRANCH   2   3
TORSDOF 5
ENDMDL
MODEL      144
REMARK 921   NORMALIZED FREE ENERGY PREDICTED BY IDOCK:   -5.02 KCAL/MOL
REMARK 922        TOTAL FREE ENERGY PREDICTED BY IDOCK:   -7.29 KCAL/MOL
REMARK 923 INTER-LIGAND FREE ENERGY PREDICTED BY IDOCK:   -6.68 KCAL/MOL
REMARK 924 INTRA-LIGAND FREE ENERGY PREDICTED BY IDOCK:   -0.61 KCAL/MOL
REMARK 927      BINDING AFFINITY PREDICTED BY RF-SCORE:    0.00 PKD
ROOT
HETATM    1  C   UNL     1      -8.787   5.640  66.968  1.00  0.00    -0.111 C  
HETATM    2  O   UNL     1      -8.703   6.448  65.796  1.00  0.00    -0.151 OA 
ENDROOT
BRANCH   2   3
HETATM    3  C   UNL     1      -7.587   6.238  65.044  1.00  0.00    -0.090 C  
HETATM    4  N   UNL     1      -7.087   7.402  64.480  1.00  0.00    -0.058 N  
HETATM    5  O   UNL     1      -7.083   5.133  64.875  1.00  0.00    -0.059 OA 
HETATM    6  C   UNL     1      -5.876   7.387  63.684  1.00  0.00    -0.048 C  
BRANCH   4   7
HETATM    7  C   UNL     1      -7.652   8.672  64.777  1.00  0.00    -0.102 A  
HETATM    8  C   UNL     1      -8.658   9.232  63.995  1.00  0.00    -0.186 A  
HETATM    9  N   UNL     1      -9.062   8.659  62.787  1.00  0.00    -0.391 NA 
HETATM   10  N   UNL     1      -9.249  10.391  64.303  1.00  0.00    -0.232 NA 
HETATM   11  H1  UNL     1      -9.799   9.068  62.213  1.00  0.00     0.000 HD 
HETATM   12  C   UNL     1      -8.812  11.018  65.411  1.00  0.00    -0.147 A  
HETATM   13  H2  UNL     1      -9.316   7.689  62.973  1.00  0.00     0.000 HD 
HETATM   14  N   UNL     1      -7.822  10.578  66.218  1.00  0.00    -0.135 NA 
HETATM   15  H2  UNL     1      -5.372   8.883  66.091  1.00  0.00     0.000 HD 
HETATM   16  H1  UNL     1      -5.898   9.543  67.508  1.00  0.00     0.000 HD 
HETATM   17  C   UNL     1      -7.257   9.408  65.889  1.00  0.00    -0.092 A  
HETATM   18  N   UNL     1      -6.187   9.003  66.692  1.00  0.00    -0.060 NA 
BRANCH  12  19
HETATM   19  C   UNL     1      -9.477  12.284  65.778  1.00  0.00    -0.121 A  
HETATM   20  C   UNL     1     -10.772  14.112  65.753  1.00  0.00    -0.299 A  
HETATM   21  N   UNL     1      -9.133  12.998  66.876  1.00  0.00    -0.228 NA 
HETATM   22  N   UNL     1      -9.978  14.059  66.863  1.00  0.00    -0.257 NA 
HETATM   23  C   UNL     1     -12.260  13.644  63.563  1.00  0.00    -0.329 A  
HETATM   24  N   UNL     1     -11.638  15.091  65.423  1.00  0.00    -0.281 NA 
HETATM   25  C   UNL     1     -10.531  12.933  65.062  1.00  0.00    -0.337 A  
HETATM   26  C   UNL     1     -12.354  14.810  64.311  1.00  0.00    -0.320 A  
HETATM   27  C   UNL     1     -11.322  12.678  63.928  1.00  0.00    -0.501 A  
BRANCH  22  28
HETATM   28  C   UNL     1      -9.941  15.048  67.931  1.00  0.00    -0.222 C  
BRANCH  28  29
HETATM   29  C   UNL     1      -9.434  16.401  67.492  1.00  0.00    -0.224 A  
HETATM   30  C   UNL     1      -9.910  18.752  67.051  1.00  0.00    -0.359 A  
HETATM   31  C   UNL     1      -8.705  18.879  66.365  1.00  0.00    -0.308 A  
HETATM   32  C   UNL     1     -10.259  17.524  67.612  1.00  0.00    -0.343 A  
HETATM   33  C   UNL     1      -7.842  17.788  66.277  1.00  0.00    -0.299 A  
HETATM   34  F   UNL     1     -11.437  17.426  68.245  1.00  0.00    -0.145 F  
HETATM   35  C   UNL     1      -8.202  16.555  66.835  1.00  0.00    -0.250 A  
ENDBRANCH  28  29
ENDBRANCH  22  28
ENDBRANCH  12  19
ENDBRANCH   4   7
ENDBRANCH   2   3
TORSDOF 5
ENDMDL
MODEL      145
REMARK 921   NORMALIZED FREE ENERGY PREDICTED BY IDOCK:   -5.01 KCAL/MOL
REMARK 922        TOTAL FREE ENERGY PREDICTED BY IDOCK:   -7.28 KCAL/MOL
REMARK 923 INTER-LIGAND FREE ENERGY PREDICTED BY IDOCK:   -6.46 KCAL/MOL
REMARK 924 INTRA-LIGAND FREE ENERGY PREDICTED BY IDOCK:   -0.82 KCAL/MOL
REMARK 927      BINDING AFFINITY PREDICTED BY RF-SCORE:    0.00 PKD
ROOT
HETATM    1  C   UNL     1      -5.644   7.630  64.224  1.00  0.00    -0.033 C  
HETATM    2  O   UNL     1      -5.535   7.997  65.598  1.00  0.00    -0.028 OA 
ENDROOT
BRANCH   2   3
HETATM    3  C   UNL     1      -5.750   6.976  66.474  1.00  0.00    -0.026 C  
HETATM    4  N   UNL     1      -6.714   7.272  67.425  1.00  0.00    -0.066 N  
HETATM    5  O   UNL     1      -5.146   5.909  66.431  1.00  0.00    -0.005 OA 
HETATM    6  C   UNL     1      -7.114   6.292  68.414  1.00  0.00    -0.083 C  
BRANCH   4   7
HETATM    7  C   UNL     1      -7.452   8.487  67.380  1.00  0.00    -0.093 A  
HETATM    8  C   UNL     1      -8.568   8.640  66.563  1.00  0.00    -0.116 A  
HETATM    9  N   UNL     1      -8.937   7.673  65.625  1.00  0.00    -0.376 NA 
HETATM   10  N   UNL     1      -9.315   9.748  66.565  1.00  0.00    -0.155 NA 
HETATM   11  H1  UNL     1      -9.755   7.785  65.026  1.00  0.00     0.000 HD 
HETATM   12  C   UNL     1      -8.927  10.740  67.389  1.00  0.00    -0.139 A  
HETATM   13  H2  UNL     1      -9.030   6.784  66.115  1.00  0.00     0.000 HD 
HETATM   14  N   UNL     1      -7.843  10.705  68.196  1.00  0.00    -0.107 NA 
HETATM   15  H2  UNL     1      -5.171   9.391  68.353  1.00  0.00     0.000 HD 
HETATM   16  H1  UNL     1      -5.722  10.381  69.551  1.00  0.00     0.000 HD 
HETATM   17  C   UNL     1      -7.122   9.575  68.180  1.00  0.00    -0.079 A  
HETATM   18  N   UNL     1      -5.965   9.583  68.964  1.00  0.00    -0.042 NA 
BRANCH  12  19
HETATM   19  C   UNL     1      -9.760  11.957  67.422  1.00  0.00    -0.184 A  
HETATM   20  C   UNL     1     -11.205  13.582  66.883  1.00  0.00    -0.311 A  
HETATM   21  N   UNL     1      -9.663  12.883  68.406  1.00  0.00    -0.214 NA 
HETATM   22  N   UNL     1     -10.593  13.815  68.081  1.00  0.00    -0.247 NA 
HETATM   23  C   UNL     1     -12.280  12.574  64.634  1.00  0.00    -0.524 A  
HETATM   24  N   UNL     1     -12.100  14.378  66.262  1.00  0.00    -0.397 NA 
HETATM   25  C   UNL     1     -10.747  12.343  66.461  1.00  0.00    -0.265 A  
HETATM   26  C   UNL     1     -12.602  13.829  65.134  1.00  0.00    -0.433 A  
HETATM   27  C   UNL     1     -11.322  11.805  65.296  1.00  0.00    -0.284 A  
BRANCH  22  28
HETATM   28  C   UNL     1     -10.819  14.966  68.944  1.00  0.00    -0.250 C  
BRANCH  28  29
HETATM   29  C   UNL     1     -10.160  16.233  68.454  1.00  0.00    -0.237 A  
HETATM   30  C   UNL     1      -8.205  17.690  68.458  1.00  0.00    -0.292 A  
HETATM   31  C   UNL     1      -8.957  18.721  67.899  1.00  0.00    -0.320 A  
HETATM   32  C   UNL     1      -8.806  16.461  68.722  1.00  0.00    -0.246 A  
HETATM   33  C   UNL     1     -10.295  18.501  67.575  1.00  0.00    -0.440 A  
HETATM   34  F   UNL     1      -8.063  15.496  69.284  1.00  0.00    -0.178 F  
HETATM   35  C   UNL     1     -10.895  17.266  67.850  1.00  0.00    -0.283 A  
ENDBRANCH  28  29
ENDBRANCH  22  28
ENDBRANCH  12  19
ENDBRANCH   4   7
ENDBRANCH   2   3
TORSDOF 5
ENDMDL
MODEL      146
REMARK 921   NORMALIZED FREE ENERGY PREDICTED BY IDOCK:   -4.92 KCAL/MOL
REMARK 922        TOTAL FREE ENERGY PREDICTED BY IDOCK:   -7.16 KCAL/MOL
REMARK 923 INTER-LIGAND FREE ENERGY PREDICTED BY IDOCK:   -6.80 KCAL/MOL
REMARK 924 INTRA-LIGAND FREE ENERGY PREDICTED BY IDOCK:   -0.35 KCAL/MOL
REMARK 927      BINDING AFFINITY PREDICTED BY RF-SCORE:    0.00 PKD
ROOT
HETATM    1  C   UNL     1     -10.051  16.060  70.000  1.00  0.00    -0.039 C  
HETATM    2  O   UNL     1     -10.693  15.251  70.984  1.00  0.00    -0.240 OA 
ENDROOT
BRANCH   2   3
HETATM    3  C   UNL     1     -11.969  15.623  71.277  1.00  0.00    -0.415 C  
HETATM    4  N   UNL     1     -12.910  14.679  70.897  1.00  0.00    -0.349 N  
HETATM    5  O   UNL     1     -12.258  16.689  71.812  1.00  0.00    -0.046 OA 
HETATM    6  C   UNL     1     -14.320  14.876  71.169  1.00  0.00    -0.240 C  
BRANCH   4   7
HETATM    7  C   UNL     1     -12.523  13.419  70.362  1.00  0.00    -0.252 A  
HETATM    8  C   UNL     1     -12.079  13.282  69.050  1.00  0.00    -0.226 A  
HETATM    9  N   UNL     1     -12.137  14.335  68.134  1.00  0.00    -0.551 NA 
HETATM   10  N   UNL     1     -11.643  12.119  68.555  1.00  0.00    -0.293 NA 
HETATM   11  H1  UNL     1     -11.812  14.235  67.173  1.00  0.00     0.000 HD 
HETATM   12  C   UNL     1     -11.667  11.060  69.387  1.00  0.00    -0.323 A  
HETATM   13  H2  UNL     1     -11.650  15.131  68.545  1.00  0.00     0.000 HD 
HETATM   14  N   UNL     1     -12.109  11.080  70.664  1.00  0.00    -0.350 NA 
HETATM   15  H2  UNL     1     -14.005  12.604  72.387  1.00  0.00     0.000 HD 
HETATM   16  H1  UNL     1     -13.053  11.402  72.996  1.00  0.00     0.000 HD 
HETATM   17  C   UNL     1     -12.529  12.263  71.133  1.00  0.00    -0.226 A  
HETATM   18  N   UNL     1     -13.049  12.251  72.430  1.00  0.00    -0.233 NA 
BRANCH  12  19
HETATM   19  C   UNL     1     -11.160   9.777  68.862  1.00  0.00    -0.099 A  
HETATM   20  C   UNL     1     -10.253   8.206  67.547  1.00  0.00    -0.243 A  
HETATM   21  N   UNL     1     -11.328   8.602  69.515  1.00  0.00     0.150 NA 
HETATM   22  N   UNL     1     -10.713   7.688  68.724  1.00  0.00    -0.135 NA 
HETATM   23  C   UNL     1      -9.321   9.717  65.528  1.00  0.00    -0.309 A  
HETATM   24  N   UNL     1      -9.684   7.526  66.531  1.00  0.00    -0.193 NA 
HETATM   25  C   UNL     1     -10.455   9.576  67.634  1.00  0.00    -0.321 A  
HETATM   26  C   UNL     1      -9.241   8.330  65.539  1.00  0.00     0.067 A  
HETATM   27  C   UNL     1      -9.951  10.369  66.588  1.00  0.00    -0.262 A  
BRANCH  22  28
HETATM   28  C   UNL     1     -10.645   6.291  69.124  1.00  0.00    -0.268 C  
BRANCH  28  29
HETATM   29  C   UNL     1      -9.995   6.073  70.470  1.00  0.00    -0.233 A  
HETATM   30  C   UNL     1     -10.210   6.052  72.899  1.00  0.00    -0.207 A  
HETATM   31  C   UNL     1      -8.824   6.040  73.033  1.00  0.00    -0.121 A  
HETATM   32  C   UNL     1     -10.781   6.061  71.627  1.00  0.00    -0.251 A  
HETATM   33  C   UNL     1      -8.020   5.999  71.895  1.00  0.00    -0.107 A  
HETATM   34  F   UNL     1     -12.117   6.099  71.530  1.00  0.00    -0.353 F  
HETATM   35  C   UNL     1      -8.600   6.015  70.620  1.00  0.00    -0.134 A  
ENDBRANCH  28  29
ENDBRANCH  22  28
ENDBRANCH  12  19
ENDBRANCH   4   7
ENDBRANCH   2   3
TORSDOF 5
ENDMDL
MODEL      147
REMARK 921   NORMALIZED FREE ENERGY PREDICTED BY IDOCK:   -4.91 KCAL/MOL
REMARK 922        TOTAL FREE ENERGY PREDICTED BY IDOCK:   -7.15 KCAL/MOL
REMARK 923 INTER-LIGAND FREE ENERGY PREDICTED BY IDOCK:   -6.05 KCAL/MOL
REMARK 924 INTRA-LIGAND FREE ENERGY PREDICTED BY IDOCK:   -1.11 KCAL/MOL
REMARK 927      BINDING AFFINITY PREDICTED BY RF-SCORE:    0.00 PKD
ROOT
HETATM    1  C   UNL     1      -6.586   6.148  69.701  1.00  0.00    -0.047 C  
HETATM    2  O   UNL     1      -7.443   6.501  68.617  1.00  0.00    -0.085 OA 
ENDROOT
BRANCH   2   3
HETATM    3  C   UNL     1      -8.316   5.523  68.245  1.00  0.00    -0.098 C  
HETATM    4  N   UNL     1      -9.416   6.012  67.558  1.00  0.00    -0.112 N  
HETATM    5  O   UNL     1      -8.150   4.335  68.501  1.00  0.00    -0.077 OA 
HETATM    6  C   UNL     1     -10.432   5.117  67.040  1.00  0.00    -0.196 C  
BRANCH   4   7
HETATM    7  C   UNL     1      -9.521   7.385  67.206  1.00  0.00    -0.146 A  
HETATM    8  C   UNL     1      -9.018   7.877  66.005  1.00  0.00    -0.154 A  
HETATM    9  N   UNL     1      -8.243   7.091  65.149  1.00  0.00    -0.190 NA 
HETATM   10  N   UNL     1      -9.173   9.150  65.626  1.00  0.00    -0.225 NA 
HETATM   11  H1  UNL     1      -7.874   7.451  64.269  1.00  0.00     0.000 HD 
HETATM   12  C   UNL     1      -9.832   9.959  66.477  1.00  0.00    -0.215 A  
HETATM   13  H2  UNL     1      -8.773   6.244  64.941  1.00  0.00     0.000 HD 
HETATM   14  N   UNL     1     -10.329   9.590  67.679  1.00  0.00    -0.228 NA 
HETATM   15  H2  UNL     1      -9.834   7.575  69.819  1.00  0.00     0.000 HD 
HETATM   16  H1  UNL     1     -11.097   8.632  69.899  1.00  0.00     0.000 HD 
HETATM   17  C   UNL     1     -10.168   8.305  68.024  1.00  0.00    -0.214 A  
HETATM   18  N   UNL     1     -10.623   7.957  69.299  1.00  0.00    -0.214 NA 
BRANCH  12  19
HETATM   19  C   UNL     1     -10.037  11.359  66.058  1.00  0.00    -0.234 A  
HETATM   20  C   UNL     1     -10.733  13.194  64.977  1.00  0.00    -0.323 A  
HETATM   21  N   UNL     1      -9.335  12.391  66.586  1.00  0.00    -0.223 NA 
HETATM   22  N   UNL     1      -9.827  13.487  65.956  1.00  0.00    -0.286 NA 
HETATM   23  C   UNL     1     -12.611  12.147  63.365  1.00  0.00    -0.584 A  
HETATM   24  N   UNL     1     -11.318  14.065  64.130  1.00  0.00    -0.241 NA 
HETATM   25  C   UNL     1     -10.954  11.828  65.065  1.00  0.00    -0.357 A  
HETATM   26  C   UNL     1     -12.247  13.486  63.336  1.00  0.00    -0.272 A  
HETATM   27  C   UNL     1     -11.950  11.281  64.237  1.00  0.00     0.419 A  
BRANCH  22  28
HETATM   28  C   UNL     1      -9.340  14.815  66.297  1.00  0.00    -0.278 C  
BRANCH  28  29
HETATM   29  C   UNL     1      -9.850  15.330  67.622  1.00  0.00    -0.217 A  
HETATM   30  C   UNL     1      -9.624  15.395  70.050  1.00  0.00     0.014 A  
HETATM   31  C   UNL     1     -10.903  15.931  70.167  1.00  0.00    -0.359 A  
HETATM   32  C   UNL     1      -9.108  15.107  68.787  1.00  0.00    -0.200 A  
HETATM   33  C   UNL     1     -11.642  16.211  69.018  1.00  0.00    -0.298 A  
HETATM   34  F   UNL     1      -7.883  14.567  68.707  1.00  0.00    -0.123 F  
HETATM   35  C   UNL     1     -11.121  15.913  67.753  1.00  0.00    -0.288 A  
ENDBRANCH  28  29
ENDBRANCH  22  28
ENDBRANCH  12  19
ENDBRANCH   4   7
ENDBRANCH   2   3
TORSDOF 5
ENDMDL
MODEL      148
REMARK 921   NORMALIZED FREE ENERGY PREDICTED BY IDOCK:   -4.89 KCAL/MOL
REMARK 922        TOTAL FREE ENERGY PREDICTED BY IDOCK:   -7.12 KCAL/MOL
REMARK 923 INTER-LIGAND FREE ENERGY PREDICTED BY IDOCK:   -6.33 KCAL/MOL
REMARK 924 INTRA-LIGAND FREE ENERGY PREDICTED BY IDOCK:   -0.79 KCAL/MOL
REMARK 927      BINDING AFFINITY PREDICTED BY RF-SCORE:    0.00 PKD
ROOT
HETATM    1  C   UNL     1      -8.817  14.128  67.442  1.00  0.00    -0.206 C  
HETATM    2  O   UNL     1      -9.044  13.054  66.531  1.00  0.00    -0.214 OA 
ENDROOT
BRANCH   2   3
HETATM    3  C   UNL     1     -10.090  13.246  65.680  1.00  0.00    -0.272 C  
HETATM    4  N   UNL     1     -10.943  12.156  65.616  1.00  0.00    -0.285 N  
HETATM    5  O   UNL     1     -10.254  14.275  65.031  1.00  0.00    -0.402 OA 
HETATM    6  C   UNL     1     -12.140  12.191  64.799  1.00  0.00    -0.294 C  
BRANCH   4   7
HETATM    7  C   UNL     1     -10.763  11.022  66.454  1.00  0.00    -0.227 A  
HETATM    8  C   UNL     1     -10.117   9.872  66.008  1.00  0.00    -0.244 A  
HETATM    9  N   UNL     1      -9.749   9.701  64.671  1.00  0.00    -0.415 NA 
HETATM   10  N   UNL     1      -9.875   8.827  66.805  1.00  0.00    -0.223 NA 
HETATM   11  H1  UNL     1      -9.276   8.859  64.344  1.00  0.00     0.000 HD 
HETATM   12  C   UNL     1     -10.306   8.922  68.077  1.00  0.00    -0.219 A  
HETATM   13  H2  UNL     1      -9.180  10.502  64.401  1.00  0.00     0.000 HD 
HETATM   14  N   UNL     1     -10.971   9.977  68.599  1.00  0.00    -0.223 NA 
HETATM   15  H2  UNL     1     -12.759  12.195  67.720  1.00  0.00     0.000 HD 
HETATM   16  H1  UNL     1     -12.250  12.058  69.283  1.00  0.00     0.000 HD 
HETATM   17  C   UNL     1     -11.187  11.014  67.777  1.00  0.00    -0.308 A  
HETATM   18  N   UNL     1     -11.938  12.064  68.311  1.00  0.00    -0.463 NA 
BRANCH  12  19
HETATM   19  C   UNL     1     -10.019   7.787  68.976  1.00  0.00    -0.182 A  
HETATM   20  C   UNL     1     -10.123   6.287  70.636  1.00  0.00    -0.189 A  
HETATM   21  N   UNL     1      -8.888   7.047  68.880  1.00  0.00    -0.131 NA 
HETATM   22  N   UNL     1      -9.016   6.113  69.855  1.00  0.00    -0.139 NA 
HETATM   23  C   UNL     1     -12.517   6.884  71.704  1.00  0.00    -0.418 A  
HETATM   24  N   UNL     1     -10.463   5.573  71.728  1.00  0.00    -0.222 NA 
HETATM   25  C   UNL     1     -10.841   7.317  70.047  1.00  0.00    -0.271 A  
HETATM   26  C   UNL     1     -11.669   5.918  72.231  1.00  0.00    -0.252 A  
HETATM   27  C   UNL     1     -12.102   7.618  70.593  1.00  0.00    -0.068 A  
BRANCH  22  28
HETATM   28  C   UNL     1      -7.997   5.090  70.037  1.00  0.00    -0.074 C  
BRANCH  28  29
HETATM   29  C   UNL     1      -7.169   5.271  71.286  1.00  0.00    -0.077 A  
HETATM   30  C   UNL     1      -6.595   4.496  73.526  1.00  0.00    -0.057 A  
HETATM   31  C   UNL     1      -5.947   5.700  73.790  1.00  0.00    -0.056 A  
HETATM   32  C   UNL     1      -7.190   4.289  72.283  1.00  0.00    -0.062 A  
HETATM   33  C   UNL     1      -5.867   6.673  72.795  1.00  0.00    -0.042 A  
HETATM   34  F   UNL     1      -7.828   3.130  72.067  1.00  0.00    -0.050 F  
HETATM   35  C   UNL     1      -6.474   6.462  71.550  1.00  0.00    -0.050 A  
ENDBRANCH  28  29
ENDBRANCH  22  28
ENDBRANCH  12  19
ENDBRANCH   4   7
ENDBRANCH   2   3
TORSDOF 5
ENDMDL
MODEL      149
REMARK 921   NORMALIZED FREE ENERGY PREDICTED BY IDOCK:   -4.89 KCAL/MOL
REMARK 922        TOTAL FREE ENERGY PREDICTED BY IDOCK:   -7.12 KCAL/MOL
REMARK 923 INTER-LIGAND FREE ENERGY PREDICTED BY IDOCK:   -6.23 KCAL/MOL
REMARK 924 INTRA-LIGAND FREE ENERGY PREDICTED BY IDOCK:   -0.89 KCAL/MOL
REMARK 927      BINDING AFFINITY PREDICTED BY RF-SCORE:    0.00 PKD
ROOT
HETATM    1  C   UNL     1      -6.465   6.321  69.879  1.00  0.00    -0.043 C  
HETATM    2  O   UNL     1      -6.417   7.137  68.710  1.00  0.00    -0.034 OA 
ENDROOT
BRANCH   2   3
HETATM    3  C   UNL     1      -6.017   6.486  67.582  1.00  0.00    -0.020 C  
HETATM    4  N   UNL     1      -6.657   6.940  66.439  1.00  0.00    -0.050 N  
HETATM    5  O   UNL     1      -5.185   5.584  67.580  1.00  0.00    -0.004 OA 
HETATM    6  C   UNL     1      -6.328   6.400  65.134  1.00  0.00    -0.034 C  
BRANCH   4   7
HETATM    7  C   UNL     1      -7.546   8.048  66.477  1.00  0.00    -0.092 A  
HETATM    8  C   UNL     1      -7.105   9.353  66.271  1.00  0.00    -0.088 A  
HETATM    9  N   UNL     1      -5.749   9.670  66.174  1.00  0.00    -0.052 NA 
HETATM   10  N   UNL     1      -7.940  10.397  66.230  1.00  0.00    -0.132 NA 
HETATM   11  H1  UNL     1      -5.426  10.625  66.023  1.00  0.00     0.000 HD 
HETATM   12  C   UNL     1      -9.247  10.135  66.419  1.00  0.00    -0.158 A  
HETATM   13  H2  UNL     1      -5.345   9.086  65.441  1.00  0.00     0.000 HD 
HETATM   14  N   UNL     1      -9.772   8.913  66.659  1.00  0.00    -0.214 NA 
HETATM   15  H2  UNL     1      -8.975   6.289  67.828  1.00  0.00     0.000 HD 
HETATM   16  H1  UNL     1     -10.462   6.522  67.154  1.00  0.00     0.000 HD 
HETATM   17  C   UNL     1      -8.911   7.886  66.682  1.00  0.00    -0.151 A  
HETATM   18  N   UNL     1      -9.460   6.642  67.003  1.00  0.00    -0.138 NA 
BRANCH  12  19
HETATM   19  C   UNL     1     -10.182  11.275  66.347  1.00  0.00    -0.230 A  
HETATM   20  C   UNL     1     -11.609  12.834  65.605  1.00  0.00    -0.370 A  
HETATM   21  N   UNL     1     -10.419  12.094  67.400  1.00  0.00    -0.211 NA 
HETATM   22  N   UNL     1     -11.332  12.982  66.934  1.00  0.00    -0.296 NA 
HETATM   23  C   UNL     1     -12.001  11.997  63.080  1.00  0.00    -0.323 A  
HETATM   24  N   UNL     1     -12.403  13.622  64.851  1.00  0.00    -0.480 NA 
HETATM   25  C   UNL     1     -10.940  11.686  65.206  1.00  0.00    -0.327 A  
HETATM   26  C   UNL     1     -12.559  13.162  63.590  1.00  0.00    -0.157 A  
HETATM   27  C   UNL     1     -11.159  11.236  63.892  1.00  0.00    -0.317 A  
BRANCH  22  28
HETATM   28  C   UNL     1     -11.875  14.011  67.808  1.00  0.00    -0.384 C  
BRANCH  28  29
HETATM   29  C   UNL     1     -10.921  15.151  68.074  1.00  0.00    -0.295 A  
HETATM   30  C   UNL     1     -10.507  17.307  69.135  1.00  0.00    -0.263 A  
HETATM   31  C   UNL     1      -9.369  17.487  68.352  1.00  0.00    -0.287 A  
HETATM   32  C   UNL     1     -11.265  16.145  68.996  1.00  0.00    -0.347 A  
HETATM   33  C   UNL     1      -8.977  16.487  67.464  1.00  0.00    -0.201 A  
HETATM   34  F   UNL     1     -12.369  16.011  69.744  1.00  0.00    -0.321 F  
HETATM   35  C   UNL     1      -9.746  15.326  67.323  1.00  0.00    -0.212 A  
ENDBRANCH  28  29
ENDBRANCH  22  28
ENDBRANCH  12  19
ENDBRANCH   4   7
ENDBRANCH   2   3
TORSDOF 5
ENDMDL
MODEL      150
REMARK 921   NORMALIZED FREE ENERGY PREDICTED BY IDOCK:   -4.87 KCAL/MOL
REMARK 922        TOTAL FREE ENERGY PREDICTED BY IDOCK:   -7.09 KCAL/MOL
REMARK 923 INTER-LIGAND FREE ENERGY PREDICTED BY IDOCK:   -6.25 KCAL/MOL
REMARK 924 INTRA-LIGAND FREE ENERGY PREDICTED BY IDOCK:   -0.84 KCAL/MOL
REMARK 927      BINDING AFFINITY PREDICTED BY RF-SCORE:    0.00 PKD
ROOT
HETATM    1  C   UNL     1     -11.072  15.990  69.777  1.00  0.00    -0.337 C  
HETATM    2  O   UNL     1     -10.558  15.027  68.859  1.00  0.00    -0.227 OA 
ENDROOT
BRANCH   2   3
HETATM    3  C   UNL     1     -10.552  15.432  67.559  1.00  0.00    -0.283 C  
HETATM    4  N   UNL     1     -10.123  14.444  66.686  1.00  0.00    -0.267 N  
HETATM    5  O   UNL     1     -10.882  16.558  67.199  1.00  0.00    -0.262 OA 
HETATM    6  C   UNL     1     -10.094  14.673  65.254  1.00  0.00    -0.360 C  
BRANCH   4   7
HETATM    7  C   UNL     1      -9.837  13.127  67.137  1.00  0.00    -0.235 A  
HETATM    8  C   UNL     1      -8.645  12.814  67.784  1.00  0.00    -0.184 A  
HETATM    9  N   UNL     1      -7.596  13.729  67.888  1.00  0.00    -0.138 NA 
HETATM   10  N   UNL     1      -8.393  11.598  68.280  1.00  0.00    -0.153 NA 
HETATM   11  H1  UNL     1      -6.722  13.500  68.362  1.00  0.00     0.000 HD 
HETATM   12  C   UNL     1      -9.348  10.663  68.109  1.00  0.00    -0.151 A  
HETATM   13  H2  UNL     1      -7.966  14.579  68.313  1.00  0.00     0.000 HD 
HETATM   14  N   UNL     1     -10.522  10.856  67.467  1.00  0.00    -0.202 NA 
HETATM   15  H2  UNL     1     -11.690  12.585  65.338  1.00  0.00     0.000 HD 
HETATM   16  H1  UNL     1     -12.605  11.488  66.164  1.00  0.00     0.000 HD 
HETATM   17  C   UNL     1     -10.750  12.089  66.993  1.00  0.00    -0.242 A  
HETATM   18  N   UNL     1     -11.935  12.251  66.270  1.00  0.00    -0.626 NA 
BRANCH  12  19
HETATM   19  C   UNL     1      -9.094   9.325  68.677  1.00  0.00    -0.132 A  
HETATM   20  C   UNL     1      -9.098   7.528  70.014  1.00  0.00    -0.148 A  
HETATM   21  N   UNL     1      -8.209   8.456  68.134  1.00  0.00    -0.123 NA 
HETATM   22  N   UNL     1      -8.286   7.360  68.929  1.00  0.00    -0.127 NA 
HETATM   23  C   UNL     1     -10.963   8.242  71.813  1.00  0.00    -0.342 A  
HETATM   24  N   UNL     1      -9.298   6.651  71.018  1.00  0.00    -0.160 NA 
HETATM   25  C   UNL     1      -9.703   8.764  69.843  1.00  0.00    -0.183 A  
HETATM   26  C   UNL     1     -10.237   7.061  71.899  1.00  0.00    -0.187 A  
HETATM   27  C   UNL     1     -10.693   9.131  70.772  1.00  0.00    -0.327 A  
BRANCH  22  28
HETATM   28  C   UNL     1      -7.497   6.174  68.631  1.00  0.00    -0.087 C  
BRANCH  28  29
HETATM   29  C   UNL     1      -7.894   5.484  67.348  1.00  0.00    -0.101 A  
HETATM   30  C   UNL     1      -7.792   5.413  64.912  1.00  0.00    -0.102 A  
HETATM   31  C   UNL     1      -8.846   4.504  64.882  1.00  0.00    -0.148 A  
HETATM   32  C   UNL     1      -7.322   5.887  66.136  1.00  0.00    -0.081 A  
HETATM   33  C   UNL     1      -9.398   4.048  66.079  1.00  0.00    -0.168 A  
HETATM   34  F   UNL     1      -6.322   6.780  66.132  1.00  0.00    -0.042 F  
HETATM   35  C   UNL     1      -8.927   4.534  67.305  1.00  0.00    -0.125 A  
ENDBRANCH  28  29
ENDBRANCH  22  28
ENDBRANCH  12  19
ENDBRANCH   4   7
ENDBRANCH   2   3
TORSDOF 5
ENDMDL
MODEL      151
REMARK 921   NORMALIZED FREE ENERGY PREDICTED BY IDOCK:   -4.86 KCAL/MOL
REMARK 922        TOTAL FREE ENERGY PREDICTED BY IDOCK:   -7.08 KCAL/MOL
REMARK 923 INTER-LIGAND FREE ENERGY PREDICTED BY IDOCK:   -6.24 KCAL/MOL
REMARK 924 INTRA-LIGAND FREE ENERGY PREDICTED BY IDOCK:   -0.85 KCAL/MOL
REMARK 927      BINDING AFFINITY PREDICTED BY RF-SCORE:    0.00 PKD
ROOT
HETATM    1  C   UNL     1      -8.812   3.745  66.671  1.00  0.00    -0.126 C  
HETATM    2  O   UNL     1      -9.741   4.206  67.651  1.00  0.00    -0.172 OA 
ENDROOT
BRANCH   2   3
HETATM    3  C   UNL     1      -9.487   3.775  68.918  1.00  0.00    -0.153 C  
HETATM    4  N   UNL     1      -9.094   4.796  69.769  1.00  0.00    -0.102 N  
HETATM    5  O   UNL     1      -9.586   2.603  69.266  1.00  0.00    -0.114 OA 
HETATM    6  C   UNL     1      -8.826   4.539  71.170  1.00  0.00    -0.116 C  
BRANCH   4   7
HETATM    7  C   UNL     1      -9.082   6.153  69.344  1.00  0.00    -0.134 A  
HETATM    8  C   UNL     1     -10.198   6.974  69.473  1.00  0.00    -0.199 A  
HETATM    9  N   UNL     1     -11.439   6.479  69.878  1.00  0.00    -0.511 NA 
HETATM   10  N   UNL     1     -10.179   8.271  69.147  1.00  0.00    -0.214 NA 
HETATM   11  H1  UNL     1     -12.257   7.081  69.972  1.00  0.00     0.000 HD 
HETATM   12  C   UNL     1      -9.021   8.757  68.661  1.00  0.00    -0.138 A  
HETATM   13  H2  UNL     1     -11.307   5.994  70.764  1.00  0.00     0.000 HD 
HETATM   14  N   UNL     1      -7.893   8.037  68.465  1.00  0.00    -0.113 NA 
HETATM   15  H2  UNL     1      -7.058   5.227  67.927  1.00  0.00     0.000 HD 
HETATM   16  H1  UNL     1      -5.954   6.433  68.148  1.00  0.00     0.000 HD 
HETATM   17  C   UNL     1      -7.941   6.744  68.813  1.00  0.00    -0.119 A  
HETATM   18  N   UNL     1      -6.791   5.999  68.538  1.00  0.00    -0.067 NA 
BRANCH  12  19
HETATM   19  C   UNL     1      -8.978  10.193  68.325  1.00  0.00    -0.120 A  
HETATM   20  C   UNL     1      -8.353  12.338  68.154  1.00  0.00    -0.174 A  
HETATM   21  N   UNL     1     -10.008  10.833  67.721  1.00  0.00    -0.169 NA 
HETATM   22  N   UNL     1      -9.569  12.109  67.576  1.00  0.00    -0.176 NA 
HETATM   23  C   UNL     1      -5.879  12.226  69.199  1.00  0.00    -0.074 A  
HETATM   24  N   UNL     1      -7.712  13.520  68.248  1.00  0.00    -0.128 NA 
HETATM   25  C   UNL     1      -7.901  11.098  68.583  1.00  0.00    -0.138 A  
HETATM   26  C   UNL     1      -6.478  13.410  68.788  1.00  0.00    -0.098 A  
HETATM   27  C   UNL     1      -6.600  11.035  69.111  1.00  0.00    -0.077 A  
BRANCH  22  28
HETATM   28  C   UNL     1     -10.399  13.105  66.915  1.00  0.00    -0.247 C  
BRANCH  28  29
HETATM   29  C   UNL     1     -10.829  12.713  65.521  1.00  0.00    -0.310 A  
HETATM   30  C   UNL     1     -12.644  12.347  63.935  1.00  0.00    -0.528 A  
HETATM   31  C   UNL     1     -11.778  11.670  63.081  1.00  0.00    -0.101 A  
HETATM   32  C   UNL     1     -12.165  12.866  65.137  1.00  0.00    -0.470 A  
HETATM   33  C   UNL     1     -10.431  11.550  63.418  1.00  0.00    -0.466 A  
HETATM   34  F   UNL     1     -13.029  13.491  65.950  1.00  0.00    -0.442 F  
HETATM   35  C   UNL     1      -9.956  12.067  64.630  1.00  0.00    -0.240 A  
ENDBRANCH  28  29
ENDBRANCH  22  28
ENDBRANCH  12  19
ENDBRANCH   4   7
ENDBRANCH   2   3
TORSDOF 5
ENDMDL
MODEL      152
REMARK 921   NORMALIZED FREE ENERGY PREDICTED BY IDOCK:   -4.85 KCAL/MOL
REMARK 922        TOTAL FREE ENERGY PREDICTED BY IDOCK:   -7.08 KCAL/MOL
REMARK 923 INTER-LIGAND FREE ENERGY PREDICTED BY IDOCK:   -6.25 KCAL/MOL
REMARK 924 INTRA-LIGAND FREE ENERGY PREDICTED BY IDOCK:   -0.83 KCAL/MOL
REMARK 927      BINDING AFFINITY PREDICTED BY RF-SCORE:    0.00 PKD
ROOT
HETATM    1  C   UNL     1     -10.964   6.297  71.980  1.00  0.00    -0.256 C  
HETATM    2  O   UNL     1     -10.946   6.083  70.570  1.00  0.00    -0.289 OA 
ENDROOT
BRANCH   2   3
HETATM    3  C   UNL     1     -10.087   5.111  70.156  1.00  0.00    -0.272 C  
HETATM    4  N   UNL     1      -9.284   5.511  69.100  1.00  0.00    -0.114 N  
HETATM    5  O   UNL     1     -10.037   3.993  70.660  1.00  0.00    -0.143 OA 
HETATM    6  C   UNL     1      -8.273   4.627  68.553  1.00  0.00    -0.083 C  
BRANCH   4   7
HETATM    7  C   UNL     1      -9.314   6.844  68.608  1.00  0.00    -0.135 A  
HETATM    8  C   UNL     1     -10.070   7.201  67.495  1.00  0.00    -0.188 A  
HETATM    9  N   UNL     1     -10.715   6.249  66.701  1.00  0.00    -0.500 NA 
HETATM   10  N   UNL     1     -10.167   8.463  67.064  1.00  0.00    -0.279 NA 
HETATM   11  H1  UNL     1     -11.268   6.510  65.886  1.00  0.00     0.000 HD 
HETATM   12  C   UNL     1      -9.476   9.392  67.752  1.00  0.00    -0.132 A  
HETATM   13  H2  UNL     1     -11.306   5.686  67.311  1.00  0.00     0.000 HD 
HETATM   14  N   UNL     1      -8.688   9.146  68.822  1.00  0.00    -0.131 NA 
HETATM   15  H2  UNL     1      -7.066   6.932  69.987  1.00  0.00     0.000 HD 
HETATM   16  H1  UNL     1      -7.239   8.380  70.759  1.00  0.00     0.000 HD 
HETATM   17  C   UNL     1      -8.622   7.873  69.236  1.00  0.00    -0.138 A  
HETATM   18  N   UNL     1      -7.748   7.625  70.298  1.00  0.00    -0.089 NA 
BRANCH  12  19
HETATM   19  C   UNL     1      -9.598  10.794  67.305  1.00  0.00    -0.160 A  
HETATM   20  C   UNL     1      -9.925  12.626  66.058  1.00  0.00    -0.258 A  
HETATM   21  N   UNL     1      -9.266  11.844  68.093  1.00  0.00    -0.183 NA 
HETATM   22  N   UNL     1      -9.537  12.933  67.331  1.00  0.00    -0.198 NA 
HETATM   23  C   UNL     1     -10.868  11.531  63.791  1.00  0.00    -0.486 A  
HETATM   24  N   UNL     1     -10.171  13.494  65.056  1.00  0.00    -0.343 NA 
HETATM   25  C   UNL     1     -10.052  11.245  66.026  1.00  0.00    -0.283 A  
HETATM   26  C   UNL     1     -10.634  12.892  63.938  1.00  0.00    -0.336 A  
HETATM   27  C   UNL     1     -10.564  10.673  64.848  1.00  0.00    -0.192 A  
BRANCH  22  28
HETATM   28  C   UNL     1      -9.346  14.273  67.864  1.00  0.00    -0.198 C  
BRANCH  28  29
HETATM   29  C   UNL     1     -10.437  14.715  68.809  1.00  0.00    -0.246 A  
HETATM   30  C   UNL     1     -12.516  15.944  69.150  1.00  0.00     0.335 A  
HETATM   31  C   UNL     1     -12.335  15.890  70.530  1.00  0.00    -0.280 A  
HETATM   32  C   UNL     1     -11.576  15.354  68.306  1.00  0.00    -0.348 A  
HETATM   33  C   UNL     1     -11.236  15.214  71.056  1.00  0.00    -0.328 A  
HETATM   34  F   UNL     1     -11.764  15.444  66.982  1.00  0.00    -0.262 F  
HETATM   35  C   UNL     1     -10.291  14.630  70.203  1.00  0.00     0.267 A  
ENDBRANCH  28  29
ENDBRANCH  22  28
ENDBRANCH  12  19
ENDBRANCH   4   7
ENDBRANCH   2   3
TORSDOF 5
ENDMDL
MODEL      153
REMARK 921   NORMALIZED FREE ENERGY PREDICTED BY IDOCK:   -4.74 KCAL/MOL
REMARK 922        TOTAL FREE ENERGY PREDICTED BY IDOCK:   -6.93 KCAL/MOL
REMARK 923 INTER-LIGAND FREE ENERGY PREDICTED BY IDOCK:   -6.20 KCAL/MOL
REMARK 924 INTRA-LIGAND FREE ENERGY PREDICTED BY IDOCK:   -0.72 KCAL/MOL
REMARK 927      BINDING AFFINITY PREDICTED BY RF-SCORE:    0.00 PKD
ROOT
HETATM    1  C   UNL     1     -10.730   5.777  66.673  1.00  0.00    -0.262 C  
HETATM    2  O   UNL     1      -9.874   6.882  66.391  1.00  0.00    -0.139 OA 
ENDROOT
BRANCH   2   3
HETATM    3  C   UNL     1      -8.782   6.573  65.638  1.00  0.00    -0.091 C  
HETATM    4  N   UNL     1      -7.995   7.677  65.345  1.00  0.00    -0.116 N  
HETATM    5  O   UNL     1      -8.526   5.437  65.250  1.00  0.00    -0.139 OA 
HETATM    6  C   UNL     1      -6.764   7.539  64.593  1.00  0.00    -0.050 C  
BRANCH   4   7
HETATM    7  C   UNL     1      -8.281   8.958  65.891  1.00  0.00    -0.119 A  
HETATM    8  C   UNL     1      -7.996   9.273  67.217  1.00  0.00    -0.106 A  
HETATM    9  N   UNL     1      -7.561   8.310  68.130  1.00  0.00    -0.097 NA 
HETATM   10  N   UNL     1      -8.190  10.494  67.725  1.00  0.00    -0.107 NA 
HETATM   11  H1  UNL     1      -7.351   8.540  69.101  1.00  0.00     0.000 HD 
HETATM   12  C   UNL     1      -8.702  11.422  66.893  1.00  0.00    -0.165 A  
HETATM   13  H2  UNL     1      -6.738   7.855  67.734  1.00  0.00     0.000 HD 
HETATM   14  N   UNL     1      -9.044  11.209  65.603  1.00  0.00    -0.208 NA 
HETATM   15  H2  UNL     1      -9.918   8.984  63.822  1.00  0.00     0.000 HD 
HETATM   16  H1  UNL     1      -9.652  10.506  63.243  1.00  0.00     0.000 HD 
HETATM   17  C   UNL     1      -8.826   9.978  65.121  1.00  0.00    -0.180 A  
HETATM   18  N   UNL     1      -9.252   9.756  63.808  1.00  0.00    -0.242 NA 
BRANCH  12  19
HETATM   19  C   UNL     1      -8.894  12.781  67.433  1.00  0.00    -0.190 A  
HETATM   20  C   UNL     1      -8.557  14.764  68.420  1.00  0.00    -0.166 A  
HETATM   21  N   UNL     1     -10.104  13.390  67.469  1.00  0.00    -0.225 NA 
HETATM   22  N   UNL     1      -9.850  14.607  68.011  1.00  0.00    -0.213 NA 
HETATM   23  C   UNL     1      -5.899  14.683  68.818  1.00  0.00    -0.085 A  
HETATM   24  N   UNL     1      -8.037  15.825  69.070  1.00  0.00    -0.207 NA 
HETATM   25  C   UNL     1      -7.886  13.629  67.991  1.00  0.00    -0.150 A  
HETATM   26  C   UNL     1      -6.701  15.730  69.253  1.00  0.00    -0.174 A  
HETATM   27  C   UNL     1      -6.493  13.593  68.181  1.00  0.00    -0.125 A  
BRANCH  22  28
HETATM   28  C   UNL     1     -10.919  15.582  68.172  1.00  0.00    -0.312 C  
BRANCH  28  29
HETATM   29  C   UNL     1     -10.622  16.922  67.542  1.00  0.00    -0.307 A  
HETATM   30  C   UNL     1     -10.380  19.333  67.811  1.00  0.00    -0.531 A  
HETATM   31  C   UNL     1     -10.434  19.505  66.430  1.00  0.00    -0.597 A  
HETATM   32  C   UNL     1     -10.466  18.051  68.352  1.00  0.00    -0.315 A  
HETATM   33  C   UNL     1     -10.536  18.390  65.600  1.00  0.00    -0.128 A  
HETATM   34  F   UNL     1     -10.437  17.920  69.686  1.00  0.00    -0.254 F  
HETATM   35  C   UNL     1     -10.631  17.105  66.150  1.00  0.00    -0.201 A  
ENDBRANCH  28  29
ENDBRANCH  22  28
ENDBRANCH  12  19
ENDBRANCH   4   7
ENDBRANCH   2   3
TORSDOF 5
ENDMDL
MODEL      154
REMARK 921   NORMALIZED FREE ENERGY PREDICTED BY IDOCK:   -4.70 KCAL/MOL
REMARK 922        TOTAL FREE ENERGY PREDICTED BY IDOCK:   -6.88 KCAL/MOL
REMARK 923 INTER-LIGAND FREE ENERGY PREDICTED BY IDOCK:   -7.14 KCAL/MOL
REMARK 924 INTRA-LIGAND FREE ENERGY PREDICTED BY IDOCK:    0.26 KCAL/MOL
REMARK 927      BINDING AFFINITY PREDICTED BY RF-SCORE:    0.00 PKD
ROOT
HETATM    1  C   UNL     1     -11.849   7.841  71.460  1.00  0.00    -0.293 C  
HETATM    2  O   UNL     1     -11.463   7.652  70.100  1.00  0.00    -0.199 OA 
ENDROOT
BRANCH   2   3
HETATM    3  C   UNL     1     -10.580   6.634  69.899  1.00  0.00    -0.226 C  
HETATM    4  N   UNL     1      -9.469   7.018  69.163  1.00  0.00    -0.143 N  
HETATM    5  O   UNL     1     -10.754   5.494  70.319  1.00  0.00    -0.294 OA 
HETATM    6  C   UNL     1      -8.396   6.083  68.888  1.00  0.00    -0.107 C  
BRANCH   4   7
HETATM    7  C   UNL     1      -9.267   8.371  68.776  1.00  0.00    -0.143 A  
HETATM    8  C   UNL     1      -9.741   8.868  67.566  1.00  0.00    -0.170 A  
HETATM    9  N   UNL     1     -10.302   8.039  66.592  1.00  0.00    -0.445 NA 
HETATM   10  N   UNL     1      -9.623  10.155  67.220  1.00  0.00    -0.157 NA 
HETATM   11  H1  UNL     1     -10.649   8.403  65.705  1.00  0.00     0.000 HD 
HETATM   12  C   UNL     1      -8.997  10.963  68.097  1.00  0.00    -0.144 A  
HETATM   13  H2  UNL     1     -11.058   7.514  67.030  1.00  0.00     0.000 HD 
HETATM   14  N   UNL     1      -8.472  10.573  69.281  1.00  0.00    -0.153 NA 
HETATM   15  H2  UNL     1      -7.349   8.132  70.573  1.00  0.00     0.000 HD 
HETATM   16  H1  UNL     1      -7.531   9.547  71.401  1.00  0.00     0.000 HD 
HETATM   17  C   UNL     1      -8.618   9.280  69.603  1.00  0.00    -0.150 A  
HETATM   18  N   UNL     1      -8.007   8.880  70.794  1.00  0.00    -0.115 NA 
BRANCH  12  19
HETATM   19  C   UNL     1      -8.886  12.391  67.741  1.00  0.00    -0.176 A  
HETATM   20  C   UNL     1      -9.170  14.384  66.759  1.00  0.00    -0.268 A  
HETATM   21  N   UNL     1      -7.957  13.210  68.287  1.00  0.00    -0.142 NA 
HETATM   22  N   UNL     1      -8.200  14.417  67.719  1.00  0.00    -0.154 NA 
HETATM   23  C   UNL     1     -11.274  13.866  65.167  1.00  0.00    -0.326 A  
HETATM   24  N   UNL     1      -9.561  15.403  65.967  1.00  0.00    -0.323 NA 
HETATM   25  C   UNL     1      -9.695  13.100  66.799  1.00  0.00    -0.246 A  
HETATM   26  C   UNL     1     -10.614  15.087  65.181  1.00  0.00    -0.418 A  
HETATM   27  C   UNL     1     -10.808  12.833  65.982  1.00  0.00    -0.301 A  
BRANCH  22  28
HETATM   28  C   UNL     1      -7.416  15.584  68.097  1.00  0.00    -0.114 C  
BRANCH  28  29
HETATM   29  C   UNL     1      -8.116  16.897  67.844  1.00  0.00    -0.191 A  
HETATM   30  C   UNL     1      -8.066  19.114  66.829  1.00  0.00    -0.285 A  
HETATM   31  C   UNL     1      -9.160  19.504  67.597  1.00  0.00    -0.381 A  
HETATM   32  C   UNL     1      -7.560  17.821  66.952  1.00  0.00    -0.210 A  
HETATM   33  C   UNL     1      -9.764  18.585  68.454  1.00  0.00    -0.395 A  
HETATM   34  F   UNL     1      -6.491  17.483  66.218  1.00  0.00    -0.204 F  
HETATM   35  C   UNL     1      -9.247  17.290  68.579  1.00  0.00    -0.273 A  
ENDBRANCH  28  29
ENDBRANCH  22  28
ENDBRANCH  12  19
ENDBRANCH   4   7
ENDBRANCH   2   3
TORSDOF 5
ENDMDL
MODEL      155
REMARK 921   NORMALIZED FREE ENERGY PREDICTED BY IDOCK:   -4.69 KCAL/MOL
REMARK 922        TOTAL FREE ENERGY PREDICTED BY IDOCK:   -6.86 KCAL/MOL
REMARK 923 INTER-LIGAND FREE ENERGY PREDICTED BY IDOCK:   -5.76 KCAL/MOL
REMARK 924 INTRA-LIGAND FREE ENERGY PREDICTED BY IDOCK:   -1.10 KCAL/MOL
REMARK 927      BINDING AFFINITY PREDICTED BY RF-SCORE:    0.00 PKD
ROOT
HETATM    1  C   UNL     1      -6.652   4.319  68.295  1.00  0.00    -0.046 C  
HETATM    2  O   UNL     1      -7.289   5.250  69.169  1.00  0.00    -0.060 OA 
ENDROOT
BRANCH   2   3
HETATM    3  C   UNL     1      -8.254   4.710  69.963  1.00  0.00    -0.067 C  
HETATM    4  N   UNL     1      -9.166   5.648  70.421  1.00  0.00    -0.150 N  
HETATM    5  O   UNL     1      -8.305   3.518  70.251  1.00  0.00    -0.055 OA 
HETATM    6  C   UNL     1     -10.294   5.255  71.242  1.00  0.00    -0.222 C  
BRANCH   4   7
HETATM    7  C   UNL     1      -9.120   7.001  69.988  1.00  0.00    -0.145 A  
HETATM    8  C   UNL     1      -9.653   7.400  68.765  1.00  0.00    -0.147 A  
HETATM    9  N   UNL     1     -10.119   6.479  67.824  1.00  0.00    -0.137 NA 
HETATM   10  N   UNL     1      -9.683   8.679  68.376  1.00  0.00    -0.159 NA 
HETATM   11  H1  UNL     1     -10.509   6.772  66.928  1.00  0.00     0.000 HD 
HETATM   12  C   UNL     1      -9.151   9.582  69.221  1.00  0.00    -0.161 A  
HETATM   13  H2  UNL     1     -10.809   5.887  68.285  1.00  0.00     0.000 HD 
HETATM   14  N   UNL     1      -8.581   9.296  70.413  1.00  0.00    -0.201 NA 
HETATM   15  H2  UNL     1      -7.182   7.044  71.777  1.00  0.00     0.000 HD 
HETATM   16  H1  UNL     1      -7.521   8.457  72.559  1.00  0.00     0.000 HD 
HETATM   17  C   UNL     1      -8.577   8.006  70.779  1.00  0.00    -0.129 A  
HETATM   18  N   UNL     1      -7.920   7.719  71.978  1.00  0.00    -0.099 NA 
BRANCH  12  19
HETATM   19  C   UNL     1      -9.205  11.001  68.817  1.00  0.00    -0.162 A  
HETATM   20  C   UNL     1      -8.640  13.065  68.155  1.00  0.00    -0.188 A  
HETATM   21  N   UNL     1     -10.342  11.735  68.876  1.00  0.00    -0.173 NA 
HETATM   22  N   UNL     1      -9.977  12.955  68.410  1.00  0.00    -0.228 NA 
HETATM   23  C   UNL     1      -6.038  12.713  67.575  1.00  0.00    -0.157 A  
HETATM   24  N   UNL     1      -7.978  14.175  67.771  1.00  0.00    -0.154 NA 
HETATM   25  C   UNL     1      -8.117  11.793  68.333  1.00  0.00    -0.150 A  
HETATM   26  C   UNL     1      -6.674  13.946  67.501  1.00  0.00    -0.114 A  
HETATM   27  C   UNL     1      -6.761  11.602  68.011  1.00  0.00    -0.064 A  
BRANCH  22  28
HETATM   28  C   UNL     1     -10.959  14.021  68.281  1.00  0.00    -0.255 C  
BRANCH  28  29
HETATM   29  C   UNL     1     -11.336  14.333  66.852  1.00  0.00    -0.354 A  
HETATM   30  C   UNL     1     -12.243  13.552  64.727  1.00  0.00    -0.450 A  
HETATM   31  C   UNL     1     -11.752  14.688  64.087  1.00  0.00    -0.196 A  
HETATM   32  C   UNL     1     -12.039  13.388  66.096  1.00  0.00    -0.429 A  
HETATM   33  C   UNL     1     -11.095  15.668  64.828  1.00  0.00    -0.426 A  
HETATM   34  F   UNL     1     -12.500  12.273  66.679  1.00  0.00    -0.187 F  
HETATM   35  C   UNL     1     -10.886  15.494  66.202  1.00  0.00    -0.295 A  
ENDBRANCH  28  29
ENDBRANCH  22  28
ENDBRANCH  12  19
ENDBRANCH   4   7
ENDBRANCH   2   3
TORSDOF 5
ENDMDL
MODEL      156
REMARK 921   NORMALIZED FREE ENERGY PREDICTED BY IDOCK:   -4.66 KCAL/MOL
REMARK 922        TOTAL FREE ENERGY PREDICTED BY IDOCK:   -6.83 KCAL/MOL
REMARK 923 INTER-LIGAND FREE ENERGY PREDICTED BY IDOCK:   -6.10 KCAL/MOL
REMARK 924 INTRA-LIGAND FREE ENERGY PREDICTED BY IDOCK:   -0.73 KCAL/MOL
REMARK 927      BINDING AFFINITY PREDICTED BY RF-SCORE:    0.00 PKD
ROOT
HETATM    1  C   UNL     1      -7.236   5.458  69.094  1.00  0.00    -0.058 C  
HETATM    2  O   UNL     1      -7.333   6.391  68.018  1.00  0.00    -0.085 OA 
ENDROOT
BRANCH   2   3
HETATM    3  C   UNL     1      -7.481   5.822  66.790  1.00  0.00    -0.084 C  
HETATM    4  N   UNL     1      -7.963   6.708  65.838  1.00  0.00    -0.106 N  
HETATM    5  O   UNL     1      -7.225   4.646  66.552  1.00  0.00    -0.077 OA 
HETATM    6  C   UNL     1      -8.141   6.299  64.459  1.00  0.00    -0.102 C  
BRANCH   4   7
HETATM    7  C   UNL     1      -8.159   8.084  66.136  1.00  0.00    -0.111 A  
HETATM    8  C   UNL     1      -9.373   8.567  66.617  1.00  0.00    -0.189 A  
HETATM    9  N   UNL     1     -10.514   7.765  66.686  1.00  0.00    -0.491 NA 
HETATM   10  N   UNL     1      -9.550   9.843  66.972  1.00  0.00    -0.169 NA 
HETATM   11  H1  UNL     1     -11.403   8.118  67.038  1.00  0.00     0.000 HD 
HETATM   12  C   UNL     1      -8.494  10.666  66.825  1.00  0.00    -0.134 A  
HETATM   13  H2  UNL     1     -10.276   6.931  67.223  1.00  0.00     0.000 HD 
HETATM   14  N   UNL     1      -7.286  10.306  66.337  1.00  0.00    -0.108 NA 
HETATM   15  H2  UNL     1      -6.088   8.275  64.512  1.00  0.00     0.000 HD 
HETATM   16  H1  UNL     1      -5.156   9.361  65.333  1.00  0.00     0.000 HD 
HETATM   17  C   UNL     1      -7.137   9.016  66.002  1.00  0.00    -0.085 A  
HETATM   18  N   UNL     1      -5.907   8.677  65.432  1.00  0.00    -0.047 NA 
BRANCH  12  19
HETATM   19  C   UNL     1      -8.668  12.071  67.240  1.00  0.00    -0.175 A  
HETATM   20  C   UNL     1      -8.290  14.148  67.992  1.00  0.00    -0.160 A  
HETATM   21  N   UNL     1      -9.883  12.666  67.317  1.00  0.00    -0.203 NA 
HETATM   22  N   UNL     1      -9.610  13.934  67.711  1.00  0.00    -0.216 NA 
HETATM   23  C   UNL     1      -5.608  14.138  68.170  1.00  0.00    -0.123 A  
HETATM   24  N   UNL     1      -7.740  15.275  68.487  1.00  0.00    -0.123 NA 
HETATM   25  C   UNL     1      -7.634  12.982  67.623  1.00  0.00    -0.160 A  
HETATM   26  C   UNL     1      -6.392  15.214  68.564  1.00  0.00    -0.092 A  
HETATM   27  C   UNL     1      -6.230  12.983  67.697  1.00  0.00    -0.158 A  
BRANCH  22  28
HETATM   28  C   UNL     1     -10.681  14.908  67.864  1.00  0.00    -0.265 C  
BRANCH  28  29
HETATM   29  C   UNL     1     -11.199  15.027  69.278  1.00  0.00    -0.297 A  
HETATM   30  C   UNL     1     -12.715  14.216  71.007  1.00  0.00    -0.433 A  
HETATM   31  C   UNL     1     -12.492  15.367  71.759  1.00  0.00    -0.451 A  
HETATM   32  C   UNL     1     -12.066  14.052  69.785  1.00  0.00    -0.348 A  
HETATM   33  C   UNL     1     -11.593  16.328  71.299  1.00  0.00    -0.402 A  
HETATM   34  F   UNL     1     -12.320  12.946  69.072  1.00  0.00    -0.286 F  
HETATM   35  C   UNL     1     -10.950  16.161  70.067  1.00  0.00    -0.364 A  
ENDBRANCH  28  29
ENDBRANCH  22  28
ENDBRANCH  12  19
ENDBRANCH   4   7
ENDBRANCH   2   3
TORSDOF 5
ENDMDL
MODEL      157
REMARK 921   NORMALIZED FREE ENERGY PREDICTED BY IDOCK:   -4.66 KCAL/MOL
REMARK 922        TOTAL FREE ENERGY PREDICTED BY IDOCK:   -6.83 KCAL/MOL
REMARK 923 INTER-LIGAND FREE ENERGY PREDICTED BY IDOCK:   -6.22 KCAL/MOL
REMARK 924 INTRA-LIGAND FREE ENERGY PREDICTED BY IDOCK:   -0.60 KCAL/MOL
REMARK 927      BINDING AFFINITY PREDICTED BY RF-SCORE:    0.00 PKD
ROOT
HETATM    1  C   UNL     1     -11.007   6.535  67.097  1.00  0.00    -0.408 C  
HETATM    2  O   UNL     1     -10.004   7.541  66.971  1.00  0.00    -0.191 OA 
ENDROOT
BRANCH   2   3
HETATM    3  C   UNL     1      -9.080   7.299  66.000  1.00  0.00    -0.075 C  
HETATM    4  N   UNL     1      -8.381   8.435  65.622  1.00  0.00    -0.145 N  
HETATM    5  O   UNL     1      -8.892   6.192  65.505  1.00  0.00    -0.138 OA 
HETATM    6  C   UNL     1      -7.322   8.367  64.634  1.00  0.00    -0.093 C  
BRANCH   4   7
HETATM    7  C   UNL     1      -8.568   9.677  66.287  1.00  0.00    -0.127 A  
HETATM    8  C   UNL     1      -9.457  10.638  65.814  1.00  0.00    -0.200 A  
HETATM    9  N   UNL     1     -10.098  10.511  64.580  1.00  0.00    -0.346 NA 
HETATM   10  N   UNL     1      -9.699  11.779  66.467  1.00  0.00    -0.201 NA 
HETATM   11  H1  UNL     1     -10.750  11.214  64.233  1.00  0.00     0.000 HD 
HETATM   12  C   UNL     1      -9.021  11.976  67.614  1.00  0.00    -0.172 A  
HETATM   13  H2  UNL     1     -10.579   9.611  64.571  1.00  0.00     0.000 HD 
HETATM   14  N   UNL     1      -8.113  11.124  68.141  1.00  0.00    -0.122 NA 
HETATM   15  H2  UNL     1      -6.209   9.006  67.260  1.00  0.00     0.000 HD 
HETATM   16  H1  UNL     1      -6.421   9.374  68.854  1.00  0.00     0.000 HD 
HETATM   17  C   UNL     1      -7.903   9.984  67.468  1.00  0.00    -0.095 A  
HETATM   18  N   UNL     1      -6.910   9.149  67.987  1.00  0.00    -0.068 NA 
BRANCH  12  19
HETATM   19  C   UNL     1      -9.301  13.219  68.360  1.00  0.00    -0.157 A  
HETATM   20  C   UNL     1     -10.309  14.815  69.566  1.00  0.00    -0.112 A  
HETATM   21  N   UNL     1      -8.433  14.258  68.402  1.00  0.00    -0.162 NA 
HETATM   22  N   UNL     1      -9.047  15.175  69.190  1.00  0.00    -0.217 NA 
HETATM   23  C   UNL     1     -12.596  13.570  70.236  1.00  0.00    -0.221 A  
HETATM   24  N   UNL     1     -11.187  15.558  70.269  1.00  0.00    -0.295 NA 
HETATM   25  C   UNL     1     -10.481  13.516  69.111  1.00  0.00     0.007 A  
HETATM   26  C   UNL     1     -12.322  14.890  70.572  1.00  0.00    -0.342 A  
HETATM   27  C   UNL     1     -11.668  12.856  69.477  1.00  0.00    -0.387 A  
BRANCH  22  28
HETATM   28  C   UNL     1      -8.389  16.433  69.510  1.00  0.00     0.202 C  
BRANCH  28  29
HETATM   29  C   UNL     1      -8.592  17.509  68.470  1.00  0.00    -0.276 A  
HETATM   30  C   UNL     1     -10.116  19.040  67.338  1.00  0.00    -0.443 A  
HETATM   31  C   UNL     1      -9.173  19.258  66.338  1.00  0.00    -0.386 A  
HETATM   32  C   UNL     1      -9.818  18.179  68.393  1.00  0.00    -0.370 A  
HETATM   33  C   UNL     1      -7.925  18.643  66.420  1.00  0.00    -0.298 A  
HETATM   34  F   UNL     1     -10.756  17.968  69.328  1.00  0.00    -0.173 F  
HETATM   35  C   UNL     1      -7.634  17.773  67.478  1.00  0.00    -0.214 A  
ENDBRANCH  28  29
ENDBRANCH  22  28
ENDBRANCH  12  19
ENDBRANCH   4   7
ENDBRANCH   2   3
TORSDOF 5
ENDMDL
MODEL      158
REMARK 921   NORMALIZED FREE ENERGY PREDICTED BY IDOCK:   -4.65 KCAL/MOL
REMARK 922        TOTAL FREE ENERGY PREDICTED BY IDOCK:   -6.82 KCAL/MOL
REMARK 923 INTER-LIGAND FREE ENERGY PREDICTED BY IDOCK:   -5.96 KCAL/MOL
REMARK 924 INTRA-LIGAND FREE ENERGY PREDICTED BY IDOCK:   -0.86 KCAL/MOL
REMARK 927      BINDING AFFINITY PREDICTED BY RF-SCORE:    0.00 PKD
ROOT
HETATM    1  C   UNL     1     -11.903  15.341  69.570  1.00  0.00    -0.345 C  
HETATM    2  O   UNL     1     -10.613  15.066  69.027  1.00  0.00    -0.229 OA 
ENDROOT
BRANCH   2   3
HETATM    3  C   UNL     1     -10.497  15.315  67.693  1.00  0.00    -0.263 C  
HETATM    4  N   UNL     1     -10.148  14.192  66.960  1.00  0.00    -0.258 N  
HETATM    5  O   UNL     1     -10.673  16.422  67.193  1.00  0.00    -0.307 OA 
HETATM    6  C   UNL     1     -10.024  14.249  65.516  1.00  0.00    -0.312 C  
BRANCH   4   7
HETATM    7  C   UNL     1     -10.043  12.911  67.569  1.00  0.00    -0.214 A  
HETATM    8  C   UNL     1     -11.113  12.022  67.601  1.00  0.00    -0.264 A  
HETATM    9  N   UNL     1     -12.394  12.389  67.182  1.00  0.00    -0.242 NA 
HETATM   10  N   UNL     1     -11.009  10.788  68.104  1.00  0.00    -0.235 NA 
HETATM   11  H1  UNL     1     -13.178  11.738  67.206  1.00  0.00     0.000 HD 
HETATM   12  C   UNL     1      -9.809  10.437  68.606  1.00  0.00    -0.177 A  
HETATM   13  H2  UNL     1     -12.318  12.750  66.232  1.00  0.00     0.000 HD 
HETATM   14  N   UNL     1      -8.719  11.235  68.653  1.00  0.00    -0.154 NA 
HETATM   15  H2  UNL     1      -8.030  14.134  68.760  1.00  0.00     0.000 HD 
HETATM   16  H1  UNL     1      -6.867  12.969  68.665  1.00  0.00     0.000 HD 
HETATM   17  C   UNL     1      -8.853  12.462  68.130  1.00  0.00    -0.191 A  
HETATM   18  N   UNL     1      -7.740  13.298  68.252  1.00  0.00    -0.133 NA 
BRANCH  12  19
HETATM   19  C   UNL     1      -9.673   9.067  69.137  1.00  0.00    -0.167 A  
HETATM   20  C   UNL     1      -8.974   7.269  70.276  1.00  0.00    -0.151 A  
HETATM   21  N   UNL     1     -10.390   8.023  68.659  1.00  0.00    -0.207 NA 
HETATM   22  N   UNL     1      -9.989   6.969  69.412  1.00  0.00    -0.160 NA 
HETATM   23  C   UNL     1      -7.195   8.391  71.949  1.00  0.00    -0.111 A  
HETATM   24  N   UNL     1      -8.316   6.410  71.080  1.00  0.00    -0.122 NA 
HETATM   25  C   UNL     1      -8.794   8.641  70.183  1.00  0.00    -0.144 A  
HETATM   26  C   UNL     1      -7.428   7.023  71.894  1.00  0.00    -0.087 A  
HETATM   27  C   UNL     1      -7.878   9.232  71.071  1.00  0.00    -0.109 A  
BRANCH  22  28
HETATM   28  C   UNL     1     -10.582   5.654  69.218  1.00  0.00    -0.288 C  
BRANCH  28  29
HETATM   29  C   UNL     1     -10.115   4.954  67.964  1.00  0.00    -0.141 A  
HETATM   30  C   UNL     1      -8.481   3.503  66.883  1.00  0.00    -0.106 A  
HETATM   31  C   UNL     1      -8.951   3.887  65.629  1.00  0.00    -0.133 A  
HETATM   32  C   UNL     1      -9.067   4.029  68.032  1.00  0.00    -0.140 A  
HETATM   33  C   UNL     1     -10.028   4.766  65.537  1.00  0.00    -0.157 A  
HETATM   34  F   UNL     1      -8.576   3.660  69.224  1.00  0.00    -0.078 F  
HETATM   35  C   UNL     1     -10.608   5.298  66.695  1.00  0.00    -0.334 A  
ENDBRANCH  28  29
ENDBRANCH  22  28
ENDBRANCH  12  19
ENDBRANCH   4   7
ENDBRANCH   2   3
TORSDOF 5
ENDMDL
MODEL      159
REMARK 921   NORMALIZED FREE ENERGY PREDICTED BY IDOCK:   -4.61 KCAL/MOL
REMARK 922        TOTAL FREE ENERGY PREDICTED BY IDOCK:   -6.76 KCAL/MOL
REMARK 923 INTER-LIGAND FREE ENERGY PREDICTED BY IDOCK:   -6.69 KCAL/MOL
REMARK 924 INTRA-LIGAND FREE ENERGY PREDICTED BY IDOCK:   -0.07 KCAL/MOL
REMARK 927      BINDING AFFINITY PREDICTED BY RF-SCORE:    0.00 PKD
ROOT
HETATM    1  C   UNL     1      -7.162   7.513  65.269  1.00  0.00    -0.065 C  
HETATM    2  O   UNL     1      -6.804   7.974  66.571  1.00  0.00    -0.064 OA 
ENDROOT
BRANCH   2   3
HETATM    3  C   UNL     1      -7.395   7.295  67.593  1.00  0.00    -0.093 C  
HETATM    4  N   UNL     1      -8.227   8.092  68.363  1.00  0.00    -0.128 N  
HETATM    5  O   UNL     1      -7.202   6.104  67.815  1.00  0.00    -0.078 OA 
HETATM    6  C   UNL     1      -8.982   7.536  69.469  1.00  0.00    -0.143 C  
BRANCH   4   7
HETATM    7  C   UNL     1      -8.491   9.445  68.014  1.00  0.00    -0.120 A  
HETATM    8  C   UNL     1      -7.714  10.494  68.498  1.00  0.00    -0.104 A  
HETATM    9  N   UNL     1      -6.735  10.302  69.475  1.00  0.00    -0.062 NA 
HETATM   10  N   UNL     1      -7.903  11.763  68.121  1.00  0.00    -0.127 NA 
HETATM   11  H1  UNL     1      -6.166  11.070  69.830  1.00  0.00     0.000 HD 
HETATM   12  C   UNL     1      -8.906  11.995  67.253  1.00  0.00    -0.183 A  
HETATM   13  H2  UNL     1      -6.102   9.575  69.141  1.00  0.00     0.000 HD 
HETATM   14  N   UNL     1      -9.737  11.054  66.750  1.00  0.00    -0.190 NA 
HETATM   15  H2  UNL     1     -10.846   8.383  67.475  1.00  0.00     0.000 HD 
HETATM   16  H1  UNL     1     -11.176   9.095  66.025  1.00  0.00     0.000 HD 
HETATM   17  C   UNL     1      -9.514   9.791  67.138  1.00  0.00    -0.154 A  
HETATM   18  N   UNL     1     -10.425   8.842  66.667  1.00  0.00    -0.230 NA 
BRANCH  12  19
HETATM   19  C   UNL     1      -9.106  13.387  66.806  1.00  0.00    -0.212 A  
HETATM   20  C   UNL     1      -9.919  15.227  65.819  1.00  0.00    -0.360 A  
HETATM   21  N   UNL     1      -8.214  14.373  67.066  1.00  0.00    -0.163 NA 
HETATM   22  N   UNL     1      -8.769  15.480  66.511  1.00  0.00    -0.289 NA 
HETATM   23  C   UNL     1     -12.227  14.282  64.817  1.00  0.00    -0.456 A  
HETATM   24  N   UNL     1     -10.637  16.108  65.093  1.00  0.00    -0.609 NA 
HETATM   25  C   UNL     1     -10.212  13.891  66.053  1.00  0.00    -0.317 A  
HETATM   26  C   UNL     1     -11.782  15.581  64.605  1.00  0.00    -0.226 A  
HETATM   27  C   UNL     1     -11.429  13.401  65.546  1.00  0.00    -0.324 A  
BRANCH  22  28
HETATM   28  C   UNL     1      -8.110  16.773  66.625  1.00  0.00    -0.265 C  
BRANCH  28  29
HETATM   29  C   UNL     1      -8.889  17.784  67.433  1.00  0.00    -0.240 A  
HETATM   30  C   UNL     1     -10.313  19.763  67.464  1.00  0.00    -0.578 A  
HETATM   31  C   UNL     1     -10.082  19.923  68.828  1.00  0.00    -0.487 A  
HETATM   32  C   UNL     1      -9.725  18.697  66.783  1.00  0.00    -0.329 A  
HETATM   33  C   UNL     1      -9.294  18.996  69.507  1.00  0.00     0.227 A  
HETATM   34  F   UNL     1      -9.946  18.584  65.466  1.00  0.00    -0.111 F  
HETATM   35  C   UNL     1      -8.700  17.932  68.817  1.00  0.00    -0.206 A  
ENDBRANCH  28  29
ENDBRANCH  22  28
ENDBRANCH  12  19
ENDBRANCH   4   7
ENDBRANCH   2   3
TORSDOF 5
ENDMDL
MODEL      160
REMARK 921   NORMALIZED FREE ENERGY PREDICTED BY IDOCK:   -4.59 KCAL/MOL
REMARK 922        TOTAL FREE ENERGY PREDICTED BY IDOCK:   -6.73 KCAL/MOL
REMARK 923 INTER-LIGAND FREE ENERGY PREDICTED BY IDOCK:   -6.26 KCAL/MOL
REMARK 924 INTRA-LIGAND FREE ENERGY PREDICTED BY IDOCK:   -0.47 KCAL/MOL
REMARK 927      BINDING AFFINITY PREDICTED BY RF-SCORE:    0.00 PKD
ROOT
HETATM    1  C   UNL     1      -8.989   3.532  66.996  1.00  0.00    -0.149 C  
HETATM    2  O   UNL     1      -9.772   4.292  67.914  1.00  0.00    -0.161 OA 
ENDROOT
BRANCH   2   3
HETATM    3  C   UNL     1      -9.600   3.949  69.221  1.00  0.00    -0.162 C  
HETATM    4  N   UNL     1      -9.297   5.033  70.030  1.00  0.00    -0.140 N  
HETATM    5  O   UNL     1      -9.695   2.799  69.637  1.00  0.00    -0.062 OA 
HETATM    6  C   UNL     1      -9.125   4.874  71.461  1.00  0.00    -0.139 C  
BRANCH   4   7
HETATM    7  C   UNL     1      -9.287   6.360  69.520  1.00  0.00    -0.143 A  
HETATM    8  C   UNL     1     -10.409   7.182  69.587  1.00  0.00    -0.215 A  
HETATM    9  N   UNL     1     -11.652   6.706  70.011  1.00  0.00    -0.555 NA 
HETATM   10  N   UNL     1     -10.394   8.455  69.179  1.00  0.00    -0.219 NA 
HETATM   11  H1  UNL     1     -12.474   7.307  70.060  1.00  0.00     0.000 HD 
HETATM   12  C   UNL     1      -9.235   8.916  68.672  1.00  0.00    -0.137 A  
HETATM   13  H2  UNL     1     -11.524   6.279  70.928  1.00  0.00     0.000 HD 
HETATM   14  N   UNL     1      -8.102   8.192  68.533  1.00  0.00    -0.122 NA 
HETATM   15  H2  UNL     1      -7.246   5.358  68.182  1.00  0.00     0.000 HD 
HETATM   16  H1  UNL     1      -6.151   6.582  68.335  1.00  0.00     0.000 HD 
HETATM   17  C   UNL     1      -8.145   6.923  68.962  1.00  0.00    -0.117 A  
HETATM   18  N   UNL     1      -6.989   6.169  68.745  1.00  0.00    -0.073 NA 
BRANCH  12  19
HETATM   19  C   UNL     1      -9.197  10.328  68.246  1.00  0.00    -0.139 A  
HETATM   20  C   UNL     1      -8.634  12.484  68.017  1.00  0.00    -0.185 A  
HETATM   21  N   UNL     1     -10.148  10.879  67.455  1.00  0.00    -0.186 NA 
HETATM   22  N   UNL     1      -9.742  12.161  67.286  1.00  0.00    -0.189 NA 
HETATM   23  C   UNL     1      -6.340  12.558  69.417  1.00  0.00    -0.114 A  
HETATM   24  N   UNL     1      -8.059  13.700  68.121  1.00  0.00    -0.146 NA 
HETATM   25  C   UNL     1      -8.205  11.298  68.594  1.00  0.00    -0.146 A  
HETATM   26  C   UNL     1      -6.915  13.683  68.841  1.00  0.00    -0.110 A  
HETATM   27  C   UNL     1      -6.995  11.330  69.309  1.00  0.00    -0.119 A  
BRANCH  22  28
HETATM   28  C   UNL     1     -10.501  13.072  66.442  1.00  0.00    -0.276 C  
BRANCH  28  29
HETATM   29  C   UNL     1     -10.836  14.385  67.110  1.00  0.00    -0.292 A  
HETATM   30  C   UNL     1     -10.442  16.785  67.284  1.00  0.00    -0.310 A  
HETATM   31  C   UNL     1     -11.114  16.819  68.503  1.00  0.00    -0.260 A  
HETATM   32  C   UNL     1     -10.315  15.578  66.598  1.00  0.00    -0.286 A  
HETATM   33  C   UNL     1     -11.687  15.653  69.008  1.00  0.00    -0.408 A  
HETATM   34  F   UNL     1      -9.641  15.572  65.440  1.00  0.00    -0.344 F  
HETATM   35  C   UNL     1     -11.550  14.442  68.318  1.00  0.00    -0.359 A  
ENDBRANCH  28  29
ENDBRANCH  22  28
ENDBRANCH  12  19
ENDBRANCH   4   7
ENDBRANCH   2   3
TORSDOF 5
ENDMDL
MODEL      161
REMARK 921   NORMALIZED FREE ENERGY PREDICTED BY IDOCK:   -4.56 KCAL/MOL
REMARK 922        TOTAL FREE ENERGY PREDICTED BY IDOCK:   -6.70 KCAL/MOL
REMARK 923 INTER-LIGAND FREE ENERGY PREDICTED BY IDOCK:   -5.76 KCAL/MOL
REMARK 924 INTRA-LIGAND FREE ENERGY PREDICTED BY IDOCK:   -0.95 KCAL/MOL
REMARK 927      BINDING AFFINITY PREDICTED BY RF-SCORE:    0.00 PKD
ROOT
HETATM    1  C   UNL     1      -9.184   2.009  69.808  1.00  0.00    -0.110 C  
HETATM    2  O   UNL     1      -9.908   2.670  70.843  1.00  0.00    -0.111 OA 
ENDROOT
BRANCH   2   3
HETATM    3  C   UNL     1      -9.311   2.627  72.066  1.00  0.00    -0.104 C  
HETATM    4  N   UNL     1      -9.021   3.885  72.572  1.00  0.00    -0.107 N  
HETATM    5  O   UNL     1      -9.047   1.583  72.655  1.00  0.00    -0.061 OA 
HETATM    6  C   UNL     1      -8.427   4.045  73.885  1.00  0.00    -0.091 C  
BRANCH   4   7
HETATM    7  C   UNL     1      -9.427   5.068  71.896  1.00  0.00    -0.148 A  
HETATM    8  C   UNL     1     -10.652   5.678  72.152  1.00  0.00    -0.223 A  
HETATM    9  N   UNL     1     -11.620   5.084  72.964  1.00  0.00    -0.380 NA 
HETATM   10  N   UNL     1     -11.016   6.830  71.579  1.00  0.00    -0.234 NA 
HETATM   11  H1  UNL     1     -12.518   5.530  73.152  1.00  0.00     0.000 HD 
HETATM   12  C   UNL     1     -10.143   7.379  70.713  1.00  0.00    -0.189 A  
HETATM   13  H2  UNL     1     -11.185   4.872  73.862  1.00  0.00     0.000 HD 
HETATM   14  N   UNL     1      -8.947   6.852  70.372  1.00  0.00    -0.152 NA 
HETATM   15  H2  UNL     1      -7.599   4.198  70.205  1.00  0.00     0.000 HD 
HETATM   16  H1  UNL     1      -6.796   5.601  69.875  1.00  0.00     0.000 HD 
HETATM   17  C   UNL     1      -8.606   5.703  70.972  1.00  0.00    -0.127 A  
HETATM   18  N   UNL     1      -7.399   5.135  70.554  1.00  0.00    -0.064 NA 
BRANCH  12  19
HETATM   19  C   UNL     1     -10.521   8.666  70.097  1.00  0.00    -0.217 A  
HETATM   20  C   UNL     1     -11.500  10.636  69.676  1.00  0.00    -0.291 A  
HETATM   21  N   UNL     1     -10.053   9.063  68.889  1.00  0.00    -0.190 NA 
HETATM   22  N   UNL     1     -10.614  10.283  68.699  1.00  0.00    -0.196 NA 
HETATM   23  C   UNL     1     -12.927  10.981  71.928  1.00  0.00    -0.485 A  
HETATM   24  N   UNL     1     -12.271  11.742  69.708  1.00  0.00    -0.242 NA 
HETATM   25  C   UNL     1     -11.408   9.646  70.642  1.00  0.00    -0.379 A  
HETATM   26  C   UNL     1     -12.974  11.862  70.856  1.00  0.00    -0.010 A  
HETATM   27  C   UNL     1     -12.139   9.834  71.829  1.00  0.00    -0.425 A  
BRANCH  22  28
HETATM   28  C   UNL     1     -10.306  11.060  67.507  1.00  0.00    -0.198 C  
BRANCH  28  29
HETATM   29  C   UNL     1      -9.223  12.092  67.715  1.00  0.00    -0.189 A  
HETATM   30  C   UNL     1      -6.845  12.596  67.902  1.00  0.00    -0.112 A  
HETATM   31  C   UNL     1      -7.140  13.848  68.436  1.00  0.00    -0.104 A  
HETATM   32  C   UNL     1      -7.882  11.737  67.541  1.00  0.00    -0.148 A  
HETATM   33  C   UNL     1      -8.469  14.245  68.569  1.00  0.00    -0.164 A  
HETATM   34  F   UNL     1      -7.566  10.528  67.053  1.00  0.00    -0.098 F  
HETATM   35  C   UNL     1      -9.506  13.374  68.213  1.00  0.00    -0.209 A  
ENDBRANCH  28  29
ENDBRANCH  22  28
ENDBRANCH  12  19
ENDBRANCH   4   7
ENDBRANCH   2   3
TORSDOF 5
ENDMDL
MODEL      162
REMARK 921   NORMALIZED FREE ENERGY PREDICTED BY IDOCK:   -4.56 KCAL/MOL
REMARK 922        TOTAL FREE ENERGY PREDICTED BY IDOCK:   -6.69 KCAL/MOL
REMARK 923 INTER-LIGAND FREE ENERGY PREDICTED BY IDOCK:   -5.54 KCAL/MOL
REMARK 924 INTRA-LIGAND FREE ENERGY PREDICTED BY IDOCK:   -1.15 KCAL/MOL
REMARK 927      BINDING AFFINITY PREDICTED BY RF-SCORE:    0.00 PKD
ROOT
HETATM    1  C   UNL     1      -7.004  13.547  67.504  1.00  0.00    -0.145 C  
HETATM    2  O   UNL     1      -8.315  13.322  68.020  1.00  0.00    -0.142 OA 
ENDROOT
BRANCH   2   3
HETATM    3  C   UNL     1      -9.321  13.581  67.139  1.00  0.00    -0.240 C  
HETATM    4  N   UNL     1      -9.969  12.436  66.704  1.00  0.00    -0.221 N  
HETATM    5  O   UNL     1      -9.616  14.711  66.762  1.00  0.00    -0.232 OA 
HETATM    6  C   UNL     1     -11.100  12.514  65.800  1.00  0.00    -0.308 C  
BRANCH   4   7
HETATM    7  C   UNL     1      -9.653  11.156  67.238  1.00  0.00    -0.165 A  
HETATM    8  C   UNL     1     -10.152  10.727  68.465  1.00  0.00    -0.176 A  
HETATM    9  N   UNL     1     -10.858  11.579  69.316  1.00  0.00    -0.362 NA 
HETATM   10  N   UNL     1      -9.924   9.500  68.945  1.00  0.00    -0.173 NA 
HETATM   11  H1  UNL     1     -11.224  11.265  70.215  1.00  0.00     0.000 HD 
HETATM   12  C   UNL     1      -9.162   8.686  68.190  1.00  0.00    -0.137 A  
HETATM   13  H2  UNL     1     -11.635  11.974  68.786  1.00  0.00     0.000 HD 
HETATM   14  N   UNL     1      -8.604   9.016  67.004  1.00  0.00    -0.116 NA 
HETATM   15  H2  UNL     1      -7.657  11.431  65.534  1.00  0.00     0.000 HD 
HETATM   16  H1  UNL     1      -7.636   9.932  64.845  1.00  0.00     0.000 HD 
HETATM   17  C   UNL     1      -8.861  10.248  66.545  1.00  0.00    -0.137 A  
HETATM   18  N   UNL     1      -8.218  10.598  65.354  1.00  0.00    -0.152 NA 
BRANCH  12  19
HETATM   19  C   UNL     1      -8.928   7.319  68.695  1.00  0.00    -0.128 A  
HETATM   20  C   UNL     1      -8.887   5.089  68.908  1.00  0.00    -0.093 A  
HETATM   21  N   UNL     1      -8.408   7.072  69.922  1.00  0.00    -0.137 NA 
HETATM   22  N   UNL     1      -8.339   5.719  69.989  1.00  0.00    -0.121 NA 
HETATM   23  C   UNL     1      -9.832   4.337  66.506  1.00  0.00    -0.238 A  
HETATM   24  N   UNL     1      -9.042   3.760  68.738  1.00  0.00    -0.129 NA 
HETATM   25  C   UNL     1      -9.210   6.096  68.010  1.00  0.00    -0.116 A  
HETATM   26  C   UNL     1      -9.527   3.437  67.519  1.00  0.00    -0.180 A  
HETATM   27  C   UNL     1      -9.686   5.703  66.746  1.00  0.00    -0.169 A  
BRANCH  22  28
HETATM   28  C   UNL     1      -7.780   5.065  71.163  1.00  0.00    -0.091 C  
BRANCH  28  29
HETATM   29  C   UNL     1      -8.590   5.273  72.420  1.00  0.00    -0.122 A  
HETATM   30  C   UNL     1     -10.682   4.920  73.623  1.00  0.00    -0.352 A  
HETATM   31  C   UNL     1     -10.323   5.888  74.557  1.00  0.00    -0.238 A  
HETATM   32  C   UNL     1      -9.816   4.616  72.573  1.00  0.00    -0.159 A  
HETATM   33  C   UNL     1      -9.084   6.519  74.455  1.00  0.00    -0.206 A  
HETATM   34  F   UNL     1     -10.201   3.698  71.676  1.00  0.00    -0.244 F  
HETATM   35  C   UNL     1      -8.221   6.215  73.394  1.00  0.00    -0.112 A  
ENDBRANCH  28  29
ENDBRANCH  22  28
ENDBRANCH  12  19
ENDBRANCH   4   7
ENDBRANCH   2   3
TORSDOF 5
ENDMDL
MODEL      163
REMARK 921   NORMALIZED FREE ENERGY PREDICTED BY IDOCK:   -4.54 KCAL/MOL
REMARK 922        TOTAL FREE ENERGY PREDICTED BY IDOCK:   -6.67 KCAL/MOL
REMARK 923 INTER-LIGAND FREE ENERGY PREDICTED BY IDOCK:   -5.79 KCAL/MOL
REMARK 924 INTRA-LIGAND FREE ENERGY PREDICTED BY IDOCK:   -0.88 KCAL/MOL
REMARK 927      BINDING AFFINITY PREDICTED BY RF-SCORE:    0.00 PKD
ROOT
HETATM    1  C   UNL     1     -12.819  11.018  71.176  1.00  0.00    -0.392 C  
HETATM    2  O   UNL     1     -12.291   9.796  70.664  1.00  0.00    -0.253 OA 
ENDROOT
BRANCH   2   3
HETATM    3  C   UNL     1     -11.927   8.895  71.617  1.00  0.00    -0.345 C  
HETATM    4  N   UNL     1     -10.943   8.018  71.186  1.00  0.00    -0.239 N  
HETATM    5  O   UNL     1     -12.425   8.856  72.738  1.00  0.00    -0.280 OA 
HETATM    6  C   UNL     1     -10.392   7.016  72.077  1.00  0.00    -0.198 C  
BRANCH   4   7
HETATM    7  C   UNL     1     -10.331   8.158  69.910  1.00  0.00    -0.214 A  
HETATM    8  C   UNL     1     -10.789   7.463  68.794  1.00  0.00    -0.043 A  
HETATM    9  N   UNL     1     -11.767   6.471  68.890  1.00  0.00    -0.463 NA 
HETATM   10  N   UNL     1     -10.272   7.639  67.574  1.00  0.00    -0.206 NA 
HETATM   11  H1  UNL     1     -12.103   5.962  68.072  1.00  0.00     0.000 HD 
HETATM   12  C   UNL     1      -9.258   8.519  67.467  1.00  0.00    -0.133 A  
HETATM   13  H2  UNL     1     -12.578   6.878  69.356  1.00  0.00     0.000 HD 
HETATM   14  N   UNL     1      -8.719   9.218  68.491  1.00  0.00    -0.128 NA 
HETATM   15  H2  UNL     1      -8.358   9.008  71.443  1.00  0.00     0.000 HD 
HETATM   16  H1  UNL     1      -7.872  10.341  70.602  1.00  0.00     0.000 HD 
HETATM   17  C   UNL     1      -9.268   9.028  69.699  1.00  0.00    -0.159 A  
HETATM   18  N   UNL     1      -8.653   9.703  70.757  1.00  0.00    -0.206 NA 
BRANCH  12  19
HETATM   19  C   UNL     1      -8.698   8.745  66.120  1.00  0.00    -0.160 A  
HETATM   20  C   UNL     1      -8.384   9.463  64.021  1.00  0.00    -0.174 A  
HETATM   21  N   UNL     1      -7.620   8.071  65.654  1.00  0.00    -0.081 NA 
HETATM   22  N   UNL     1      -7.421   8.576  64.411  1.00  0.00    -0.104 NA 
HETATM   23  C   UNL     1     -10.337  11.299  63.819  1.00  0.00    -0.453 A  
HETATM   24  N   UNL     1      -8.499  10.053  62.815  1.00  0.00    -0.156 NA 
HETATM   25  C   UNL     1      -9.188   9.658  65.135  1.00  0.00    -0.305 A  
HETATM   26  C   UNL     1      -9.500  10.960  62.764  1.00  0.00    -0.333 A  
HETATM   27  C   UNL     1     -10.197  10.633  65.037  1.00  0.00    -0.380 A  
BRANCH  22  28
HETATM   28  C   UNL     1      -6.304   8.119  63.598  1.00  0.00    -0.072 C  
BRANCH  28  29
HETATM   29  C   UNL     1      -6.343   6.644  63.281  1.00  0.00    -0.042 A  
HETATM   30  C   UNL     1      -7.659   4.692  62.643  1.00  0.00    -0.059 A  
HETATM   31  C   UNL     1      -6.613   3.851  63.011  1.00  0.00    -0.034 A  
HETATM   32  C   UNL     1      -7.515   6.073  62.772  1.00  0.00    -0.063 A  
HETATM   33  C   UNL     1      -5.416   4.399  63.470  1.00  0.00    -0.013 A  
HETATM   34  F   UNL     1      -8.549   6.856  62.434  1.00  0.00    -0.090 F  
HETATM   35  C   UNL     1      -5.280   5.786  63.606  1.00  0.00    -0.013 A  
ENDBRANCH  28  29
ENDBRANCH  22  28
ENDBRANCH  12  19
ENDBRANCH   4   7
ENDBRANCH   2   3
TORSDOF 5
ENDMDL
MODEL      164
REMARK 921   NORMALIZED FREE ENERGY PREDICTED BY IDOCK:   -4.52 KCAL/MOL
REMARK 922        TOTAL FREE ENERGY PREDICTED BY IDOCK:   -6.64 KCAL/MOL
REMARK 923 INTER-LIGAND FREE ENERGY PREDICTED BY IDOCK:   -6.55 KCAL/MOL
REMARK 924 INTRA-LIGAND FREE ENERGY PREDICTED BY IDOCK:   -0.10 KCAL/MOL
REMARK 927      BINDING AFFINITY PREDICTED BY RF-SCORE:    0.00 PKD
ROOT
HETATM    1  C   UNL     1      -8.780   6.834  72.425  1.00  0.00    -0.127 C  
HETATM    2  O   UNL     1      -7.844   6.584  71.378  1.00  0.00    -0.098 OA 
ENDROOT
BRANCH   2   3
HETATM    3  C   UNL     1      -8.064   5.432  70.687  1.00  0.00    -0.110 C  
HETATM    4  N   UNL     1      -8.802   5.626  69.529  1.00  0.00    -0.112 N  
HETATM    5  O   UNL     1      -7.659   4.334  71.055  1.00  0.00    -0.056 OA 
HETATM    6  C   UNL     1      -9.096   4.523  68.636  1.00  0.00    -0.120 C  
BRANCH   4   7
HETATM    7  C   UNL     1      -9.171   6.928  69.095  1.00  0.00    -0.141 A  
HETATM    8  C   UNL     1     -10.438   7.453  69.339  1.00  0.00    -0.217 A  
HETATM    9  N   UNL     1     -11.468   6.682  69.880  1.00  0.00    -0.522 NA 
HETATM   10  N   UNL     1     -10.776   8.702  69.002  1.00  0.00    -0.157 NA 
HETATM   11  H1  UNL     1     -12.395   7.066  70.059  1.00  0.00     0.000 HD 
HETATM   12  C   UNL     1      -9.833   9.441  68.387  1.00  0.00    -0.160 A  
HETATM   13  H2  UNL     1     -11.127   6.275  70.751  1.00  0.00     0.000 HD 
HETATM   14  N   UNL     1      -8.588   9.016  68.076  1.00  0.00    -0.129 NA 
HETATM   15  H2  UNL     1      -7.140   6.481  67.472  1.00  0.00     0.000 HD 
HETATM   16  H1  UNL     1      -6.355   7.929  67.561  1.00  0.00     0.000 HD 
HETATM   17  C   UNL     1      -8.276   7.764  68.437  1.00  0.00    -0.124 A  
HETATM   18  N   UNL     1      -7.012   7.316  68.043  1.00  0.00    -0.077 NA 
BRANCH  12  19
HETATM   19  C   UNL     1     -10.185  10.831  68.037  1.00  0.00    -0.178 A  
HETATM   20  C   UNL     1     -11.077  12.886  68.052  1.00  0.00    -0.253 A  
HETATM   21  N   UNL     1      -9.800  11.412  66.876  1.00  0.00    -0.191 NA 
HETATM   22  N   UNL     1     -10.301  12.670  66.949  1.00  0.00    -0.232 NA 
HETATM   23  C   UNL     1     -12.281  12.895  70.456  1.00  0.00    -0.395 A  
HETATM   24  N   UNL     1     -11.775  14.002  68.345  1.00  0.00    -0.334 NA 
HETATM   25  C   UNL     1     -10.962  11.739  68.823  1.00  0.00    -0.281 A  
HETATM   26  C   UNL     1     -12.368  13.951  69.558  1.00  0.00    -0.227 A  
HETATM   27  C   UNL     1     -11.574  11.749  70.089  1.00  0.00    -0.281 A  
BRANCH  22  28
HETATM   28  C   UNL     1     -10.052  13.628  65.883  1.00  0.00    -0.310 C  
BRANCH  28  29
HETATM   29  C   UNL     1      -9.640  14.995  66.375  1.00  0.00    -0.314 A  
HETATM   30  C   UNL     1      -8.355  16.329  67.961  1.00  0.00    -0.165 A  
HETATM   31  C   UNL     1      -9.074  17.467  67.605  1.00  0.00    -0.243 A  
HETATM   32  C   UNL     1      -8.636  15.112  67.343  1.00  0.00    -0.184 A  
HETATM   33  C   UNL     1     -10.043  17.387  66.607  1.00  0.00    -0.317 A  
HETATM   34  F   UNL     1      -7.944  14.029  67.724  1.00  0.00    -0.121 F  
HETATM   35  C   UNL     1     -10.327  16.160  65.994  1.00  0.00    -0.372 A  
ENDBRANCH  28  29
ENDBRANCH  22  28
ENDBRANCH  12  19
ENDBRANCH   4   7
ENDBRANCH   2   3
TORSDOF 5
ENDMDL
MODEL      165
REMARK 921   NORMALIZED FREE ENERGY PREDICTED BY IDOCK:   -4.45 KCAL/MOL
REMARK 922        TOTAL FREE ENERGY PREDICTED BY IDOCK:   -6.55 KCAL/MOL
REMARK 923 INTER-LIGAND FREE ENERGY PREDICTED BY IDOCK:   -6.90 KCAL/MOL
REMARK 924 INTRA-LIGAND FREE ENERGY PREDICTED BY IDOCK:    0.34 KCAL/MOL
REMARK 927      BINDING AFFINITY PREDICTED BY RF-SCORE:    0.00 PKD
ROOT
HETATM    1  C   UNL     1      -9.521   5.195  73.213  1.00  0.00    -0.141 C  
HETATM    2  O   UNL     1      -9.526   4.675  71.885  1.00  0.00    -0.135 OA 
ENDROOT
BRANCH   2   3
HETATM    3  C   UNL     1      -8.348   4.114  71.493  1.00  0.00    -0.090 C  
HETATM    4  N   UNL     1      -7.825   4.698  70.349  1.00  0.00    -0.054 N  
HETATM    5  O   UNL     1      -7.812   3.183  72.084  1.00  0.00    -0.056 OA 
HETATM    6  C   UNL     1      -6.552   4.267  69.806  1.00  0.00    -0.033 C  
BRANCH   4   7
HETATM    7  C   UNL     1      -8.435   5.834  69.750  1.00  0.00    -0.123 A  
HETATM    8  C   UNL     1      -8.180   7.127  70.197  1.00  0.00    -0.135 A  
HETATM    9  N   UNL     1      -7.440   7.379  71.354  1.00  0.00    -0.079 NA 
HETATM   10  N   UNL     1      -8.687   8.209  69.597  1.00  0.00    -0.141 NA 
HETATM   11  H1  UNL     1      -7.253   8.326  71.682  1.00  0.00     0.000 HD 
HETATM   12  C   UNL     1      -9.487   7.995  68.535  1.00  0.00    -0.142 A  
HETATM   13  H2  UNL     1      -6.544   6.900  71.260  1.00  0.00     0.000 HD 
HETATM   14  N   UNL     1      -9.823   6.781  68.044  1.00  0.00    -0.134 NA 
HETATM   15  H2  UNL     1     -10.119   3.961  68.964  1.00  0.00     0.000 HD 
HETATM   16  H1  UNL     1     -10.330   4.384  67.384  1.00  0.00     0.000 HD 
HETATM   17  C   UNL     1      -9.288   5.717  68.659  1.00  0.00    -0.122 A  
HETATM   18  N   UNL     1      -9.703   4.470  68.185  1.00  0.00    -0.148 NA 
BRANCH  12  19
HETATM   19  C   UNL     1     -10.030   9.182  67.846  1.00  0.00    -0.186 A  
HETATM   20  C   UNL     1     -11.118  11.086  67.392  1.00  0.00    -0.305 A  
HETATM   21  N   UNL     1      -9.886   9.384  66.515  1.00  0.00    -0.237 NA 
HETATM   22  N   UNL     1     -10.498  10.572  66.289  1.00  0.00    -0.215 NA 
HETATM   23  C   UNL     1     -11.943  11.794  69.851  1.00  0.00    -0.405 A  
HETATM   24  N   UNL     1     -11.877  12.199  67.449  1.00  0.00    -0.565 NA 
HETATM   25  C   UNL     1     -10.770  10.250  68.443  1.00  0.00    -0.263 A  
HETATM   26  C   UNL     1     -12.272  12.505  68.705  1.00  0.00     0.063 A  
HETATM   27  C   UNL     1     -11.184  10.629  69.732  1.00  0.00    -0.363 A  
BRANCH  22  28
HETATM   28  C   UNL     1     -10.512  11.155  64.955  1.00  0.00    -0.293 C  
BRANCH  28  29
HETATM   29  C   UNL     1     -10.905  12.613  64.931  1.00  0.00    -0.329 A  
HETATM   30  C   UNL     1     -12.371  14.353  64.054  1.00  0.00    -0.243 A  
HETATM   31  C   UNL     1     -11.508  15.337  64.529  1.00  0.00    -0.318 A  
HETATM   32  C   UNL     1     -12.069  13.008  64.263  1.00  0.00    -0.414 A  
HETATM   33  C   UNL     1     -10.369  14.969  65.243  1.00  0.00    -0.424 A  
HETATM   34  F   UNL     1     -12.906  12.084  63.772  1.00  0.00    -0.577 F  
HETATM   35  C   UNL     1     -10.066  13.616  65.444  1.00  0.00    -0.291 A  
ENDBRANCH  28  29
ENDBRANCH  22  28
ENDBRANCH  12  19
ENDBRANCH   4   7
ENDBRANCH   2   3
TORSDOF 5
ENDMDL
MODEL      166
REMARK 921   NORMALIZED FREE ENERGY PREDICTED BY IDOCK:   -4.44 KCAL/MOL
REMARK 922        TOTAL FREE ENERGY PREDICTED BY IDOCK:   -6.55 KCAL/MOL
REMARK 923 INTER-LIGAND FREE ENERGY PREDICTED BY IDOCK:   -6.00 KCAL/MOL
REMARK 924 INTRA-LIGAND FREE ENERGY PREDICTED BY IDOCK:   -0.55 KCAL/MOL
REMARK 927      BINDING AFFINITY PREDICTED BY RF-SCORE:    0.00 PKD
ROOT
HETATM    1  C   UNL     1      -9.004   8.206  73.284  1.00  0.00    -0.261 C  
HETATM    2  O   UNL     1      -9.572   8.589  72.032  1.00  0.00    -0.246 OA 
ENDROOT
BRANCH   2   3
HETATM    3  C   UNL     1      -9.742   7.564  71.152  1.00  0.00    -0.162 C  
HETATM    4  N   UNL     1      -9.970   7.996  69.855  1.00  0.00    -0.187 N  
HETATM    5  O   UNL     1      -9.707   6.381  71.476  1.00  0.00    -0.169 OA 
HETATM    6  C   UNL     1     -10.128   7.050  68.768  1.00  0.00    -0.170 C  
BRANCH   4   7
HETATM    7  C   UNL     1      -9.911   9.374  69.510  1.00  0.00    -0.183 A  
HETATM    8  C   UNL     1      -8.713   9.997  69.169  1.00  0.00    -0.167 A  
HETATM    9  N   UNL     1      -7.481   9.353  69.298  1.00  0.00    -0.073 NA 
HETATM   10  N   UNL     1      -8.652  11.272  68.772  1.00  0.00    -0.142 NA 
HETATM   11  H1  UNL     1      -6.603   9.809  69.048  1.00  0.00     0.000 HD 
HETATM   12  C   UNL     1      -9.815  11.951  68.733  1.00  0.00    -0.065 A  
HETATM   13  H2  UNL     1      -7.534   8.476  68.780  1.00  0.00     0.000 HD 
HETATM   14  N   UNL     1     -11.023  11.450  69.074  1.00  0.00    -0.223 NA 
HETATM   15  H2  UNL     1     -12.195   9.346  70.831  1.00  0.00     0.000 HD 
HETATM   16  H1  UNL     1     -13.134  10.267  69.836  1.00  0.00     0.000 HD 
HETATM   17  C   UNL     1     -11.052  10.166  69.457  1.00  0.00    -0.250 A  
HETATM   18  N   UNL     1     -12.296   9.686  69.875  1.00  0.00     0.349 NA 
BRANCH  12  19
HETATM   19  C   UNL     1      -9.765  13.351  68.268  1.00  0.00    -0.226 A  
HETATM   20  C   UNL     1      -9.870  15.193  66.998  1.00  0.00    -0.230 A  
HETATM   21  N   UNL     1      -9.300  14.361  69.040  1.00  0.00    -0.093 NA 
HETATM   22  N   UNL     1      -9.438  15.466  68.265  1.00  0.00    -0.198 NA 
HETATM   23  C   UNL     1     -10.958  14.196  64.751  1.00  0.00    -0.409 A  
HETATM   24  N   UNL     1     -10.013  16.072  65.985  1.00  0.00    -0.316 NA 
HETATM   25  C   UNL     1     -10.168  13.839  66.985  1.00  0.00    -0.254 A  
HETATM   26  C   UNL     1     -10.555  15.518  64.878  1.00  0.00    -0.342 A  
HETATM   27  C   UNL     1     -10.755  13.319  65.818  1.00  0.00    -0.286 A  
BRANCH  22  28
HETATM   28  C   UNL     1      -9.078  16.779  68.778  1.00  0.00    -0.259 C  
BRANCH  28  29
HETATM   29  C   UNL     1      -8.193  17.575  67.849  1.00  0.00    -0.231 A  
HETATM   30  C   UNL     1      -5.966  17.976  66.942  1.00  0.00    -0.173 A  
HETATM   31  C   UNL     1      -6.382  19.202  66.429  1.00  0.00    -0.205 A  
HETATM   32  C   UNL     1      -6.870  17.174  67.636  1.00  0.00    -0.142 A  
HETATM   33  C   UNL     1      -7.709  19.599  66.583  1.00  0.00    -0.295 A  
HETATM   34  F   UNL     1      -6.433  16.011  68.140  1.00  0.00    -0.106 F  
HETATM   35  C   UNL     1      -8.611  18.793  67.289  1.00  0.00    -0.287 A  
ENDBRANCH  28  29
ENDBRANCH  22  28
ENDBRANCH  12  19
ENDBRANCH   4   7
ENDBRANCH   2   3
TORSDOF 5
ENDMDL
MODEL      167
REMARK 921   NORMALIZED FREE ENERGY PREDICTED BY IDOCK:   -4.41 KCAL/MOL
REMARK 922        TOTAL FREE ENERGY PREDICTED BY IDOCK:   -6.51 KCAL/MOL
REMARK 923 INTER-LIGAND FREE ENERGY PREDICTED BY IDOCK:   -5.36 KCAL/MOL
REMARK 924 INTRA-LIGAND FREE ENERGY PREDICTED BY IDOCK:   -1.14 KCAL/MOL
REMARK 927      BINDING AFFINITY PREDICTED BY RF-SCORE:    0.00 PKD
ROOT
HETATM    1  C   UNL     1      -6.514   4.061  68.030  1.00  0.00    -0.038 C  
HETATM    2  O   UNL     1      -6.840   4.437  69.367  1.00  0.00    -0.044 OA 
ENDROOT
BRANCH   2   3
HETATM    3  C   UNL     1      -7.671   3.572  70.012  1.00  0.00    -0.047 C  
HETATM    4  N   UNL     1      -8.825   4.178  70.481  1.00  0.00    -0.079 N  
HETATM    5  O   UNL     1      -7.418   2.381  70.169  1.00  0.00    -0.042 OA 
HETATM    6  C   UNL     1      -9.854   3.408  71.153  1.00  0.00    -0.089 C  
BRANCH   4   7
HETATM    7  C   UNL     1      -9.117   5.540  70.197  1.00  0.00    -0.137 A  
HETATM    8  C   UNL     1      -9.839   5.917  69.068  1.00  0.00    -0.152 A  
HETATM    9  N   UNL     1     -10.183   5.004  68.069  1.00  0.00    -0.117 NA 
HETATM   10  N   UNL     1     -10.185   7.186  68.825  1.00  0.00    -0.174 NA 
HETATM   11  H1  UNL     1     -10.712   5.280  67.242  1.00  0.00     0.000 HD 
HETATM   12  C   UNL     1      -9.783   8.106  69.723  1.00  0.00    -0.173 A  
HETATM   13  H2  UNL     1     -10.679   4.231  68.512  1.00  0.00     0.000 HD 
HETATM   14  N   UNL     1      -9.052   7.849  70.830  1.00  0.00    -0.150 NA 
HETATM   15  H2  UNL     1      -7.071   5.858  71.832  1.00  0.00     0.000 HD 
HETATM   16  H1  UNL     1      -7.632   7.081  72.787  1.00  0.00     0.000 HD 
HETATM   17  C   UNL     1      -8.732   6.566  71.051  1.00  0.00    -0.138 A  
HETATM   18  N   UNL     1      -7.915   6.327  72.160  1.00  0.00    -0.108 NA 
BRANCH  12  19
HETATM   19  C   UNL     1     -10.183   9.506  69.482  1.00  0.00    -0.213 A  
HETATM   20  C   UNL     1     -11.228  11.485  69.583  1.00  0.00    -0.204 A  
HETATM   21  N   UNL     1      -9.664  10.252  68.478  1.00  0.00    -0.156 NA 
HETATM   22  N   UNL     1     -10.269  11.459  68.611  1.00  0.00    -0.204 NA 
HETATM   23  C   UNL     1     -12.801  11.115  71.731  1.00  0.00    -0.479 A  
HETATM   24  N   UNL     1     -12.051  12.511  69.881  1.00  0.00    -0.287 NA 
HETATM   25  C   UNL     1     -11.147  10.258  70.224  1.00  0.00    -0.388 A  
HETATM   26  C   UNL     1     -12.826  12.270  70.961  1.00  0.00    -0.160 A  
HETATM   27  C   UNL     1     -11.955  10.069  71.360  1.00  0.00    -0.470 A  
BRANCH  22  28
HETATM   28  C   UNL     1      -9.928  12.559  67.721  1.00  0.00    -0.210 C  
BRANCH  28  29
HETATM   29  C   UNL     1      -8.787  13.414  68.219  1.00  0.00    -0.172 A  
HETATM   30  C   UNL     1      -8.021  15.578  69.041  1.00  0.00    -0.205 A  
HETATM   31  C   UNL     1      -6.697  15.205  68.824  1.00  0.00    -0.099 A  
HETATM   32  C   UNL     1      -9.048  14.683  68.745  1.00  0.00    -0.178 A  
HETATM   33  C   UNL     1      -6.409  13.926  68.350  1.00  0.00    -0.104 A  
HETATM   34  F   UNL     1     -10.314  15.080  68.940  1.00  0.00    -0.213 F  
HETATM   35  C   UNL     1      -7.446  13.035  68.048  1.00  0.00    -0.134 A  
ENDBRANCH  28  29
ENDBRANCH  22  28
ENDBRANCH  12  19
ENDBRANCH   4   7
ENDBRANCH   2   3
TORSDOF 5
ENDMDL
MODEL      168
REMARK 921   NORMALIZED FREE ENERGY PREDICTED BY IDOCK:   -4.41 KCAL/MOL
REMARK 922        TOTAL FREE ENERGY PREDICTED BY IDOCK:   -6.50 KCAL/MOL
REMARK 923 INTER-LIGAND FREE ENERGY PREDICTED BY IDOCK:   -5.92 KCAL/MOL
REMARK 924 INTRA-LIGAND FREE ENERGY PREDICTED BY IDOCK:   -0.58 KCAL/MOL
REMARK 927      BINDING AFFINITY PREDICTED BY RF-SCORE:    0.00 PKD
ROOT
HETATM    1  C   UNL     1      -6.659  17.431  69.245  1.00  0.00    -0.240 C  
HETATM    2  O   UNL     1      -7.512  17.526  68.106  1.00  0.00    -0.203 OA 
ENDROOT
BRANCH   2   3
HETATM    3  C   UNL     1      -8.665  18.219  68.319  1.00  0.00    -0.288 C  
HETATM    4  N   UNL     1      -9.801  17.494  67.994  1.00  0.00    -0.285 N  
HETATM    5  O   UNL     1      -8.694  19.369  68.745  1.00  0.00    -0.364 OA 
HETATM    6  C   UNL     1     -11.125  18.047  68.199  1.00  0.00     0.239 C  
BRANCH   4   7
HETATM    7  C   UNL     1      -9.722  16.133  67.591  1.00  0.00    -0.233 A  
HETATM    8  C   UNL     1      -9.827  15.754  66.255  1.00  0.00    -0.297 A  
HETATM    9  N   UNL     1     -10.172  16.663  65.253  1.00  0.00    -0.605 NA 
HETATM   10  N   UNL     1      -9.682  14.488  65.852  1.00  0.00    -0.311 NA 
HETATM   11  H1  UNL     1     -10.249  16.387  64.274  1.00  0.00     0.000 HD 
HETATM   12  C   UNL     1      -9.445  13.571  66.809  1.00  0.00    -0.269 A  
HETATM   13  H2  UNL     1      -9.520  17.445  65.304  1.00  0.00     0.000 HD 
HETATM   14  N   UNL     1      -9.358  13.828  68.133  1.00  0.00    -0.206 NA 
HETATM   15  H2  UNL     1     -10.354  15.804  70.131  1.00  0.00     0.000 HD 
HETATM   16  H1  UNL     1      -9.312  14.596  70.550  1.00  0.00     0.000 HD 
HETATM   17  C   UNL     1      -9.497  15.109  68.503  1.00  0.00    -0.203 A  
HETATM   18  N   UNL     1      -9.477  15.348  69.880  1.00  0.00    -0.175 NA 
BRANCH  12  19
HETATM   19  C   UNL     1      -9.253  12.174  66.374  1.00  0.00    -0.207 A  
HETATM   20  C   UNL     1      -9.168  10.303  65.143  1.00  0.00    -0.206 A  
HETATM   21  N   UNL     1      -8.949  11.174  67.236  1.00  0.00    -0.146 NA 
HETATM   22  N   UNL     1      -8.843  10.075  66.450  1.00  0.00    -0.141 NA 
HETATM   23  C   UNL     1      -9.645  11.292  62.690  1.00  0.00    -0.239 A  
HETATM   24  N   UNL     1      -9.242   9.388  64.156  1.00  0.00    -0.096 NA 
HETATM   25  C   UNL     1      -9.365  11.672  65.039  1.00  0.00    -0.052 A  
HETATM   26  C   UNL     1      -9.492   9.936  62.946  1.00  0.00    -0.086 A  
HETATM   27  C   UNL     1      -9.595  12.194  63.753  1.00  0.00    -0.032 A  
BRANCH  22  28
HETATM   28  C   UNL     1      -8.477   8.788  67.024  1.00  0.00    -0.109 C  
BRANCH  28  29
HETATM   29  C   UNL     1      -9.096   8.525  68.376  1.00  0.00    -0.139 A  
HETATM   30  C   UNL     1     -11.103   8.086  69.689  1.00  0.00    -0.021 A  
HETATM   31  C   UNL     1     -10.413   8.376  70.863  1.00  0.00    -0.235 A  
HETATM   32  C   UNL     1     -10.442   8.155  68.464  1.00  0.00    -0.162 A  
HETATM   33  C   UNL     1      -9.058   8.697  70.806  1.00  0.00    -0.214 A  
HETATM   34  F   UNL     1     -11.139   7.895  67.349  1.00  0.00    -0.277 F  
HETATM   35  C   UNL     1      -8.401   8.772  69.571  1.00  0.00    -0.119 A  
ENDBRANCH  28  29
ENDBRANCH  22  28
ENDBRANCH  12  19
ENDBRANCH   4   7
ENDBRANCH   2   3
TORSDOF 5
ENDMDL
MODEL      169
REMARK 921   NORMALIZED FREE ENERGY PREDICTED BY IDOCK:   -4.40 KCAL/MOL
REMARK 922        TOTAL FREE ENERGY PREDICTED BY IDOCK:   -6.49 KCAL/MOL
REMARK 923 INTER-LIGAND FREE ENERGY PREDICTED BY IDOCK:   -5.43 KCAL/MOL
REMARK 924 INTRA-LIGAND FREE ENERGY PREDICTED BY IDOCK:   -1.06 KCAL/MOL
REMARK 927      BINDING AFFINITY PREDICTED BY RF-SCORE:    0.00 PKD
ROOT
HETATM    1  C   UNL     1     -11.613  13.048  69.262  1.00  0.00    -0.310 C  
HETATM    2  O   UNL     1     -11.956  13.092  67.878  1.00  0.00    -0.347 OA 
ENDROOT
BRANCH   2   3
HETATM    3  C   UNL     1     -11.518  14.202  67.223  1.00  0.00    -0.350 C  
HETATM    4  N   UNL     1     -10.504  13.933  66.318  1.00  0.00    -0.282 N  
HETATM    5  O   UNL     1     -11.969  15.326  67.421  1.00  0.00    -0.125 OA 
HETATM    6  C   UNL     1      -9.941  14.982  65.490  1.00  0.00    -0.356 C  
BRANCH   4   7
HETATM    7  C   UNL     1     -10.076  12.602  66.056  1.00  0.00    -0.262 A  
HETATM    8  C   UNL     1     -10.693  11.808  65.094  1.00  0.00    -0.291 A  
HETATM    9  N   UNL     1     -11.861  12.206  64.441  1.00  0.00    -0.365 NA 
HETATM   10  N   UNL     1     -10.256  10.582  64.785  1.00  0.00    -0.341 NA 
HETATM   11  H1  UNL     1     -12.313  11.624  63.736  1.00  0.00     0.000 HD 
HETATM   12  C   UNL     1      -9.188  10.129  65.468  1.00  0.00    -0.191 A  
HETATM   13  H2  UNL     1     -11.687  13.121  64.024  1.00  0.00     0.000 HD 
HETATM   14  N   UNL     1      -8.540  10.806  66.442  1.00  0.00    -0.152 NA 
HETATM   15  H2  UNL     1      -9.069  12.923  68.474  1.00  0.00     0.000 HD 
HETATM   16  H1  UNL     1      -7.565  12.277  68.265  1.00  0.00     0.000 HD 
HETATM   17  C   UNL     1      -8.994  12.036  66.720  1.00  0.00    -0.198 A  
HETATM   18  N   UNL     1      -8.360  12.693  67.778  1.00  0.00    -0.159 NA 
BRANCH  12  19
HETATM   19  C   UNL     1      -8.678   8.790  65.116  1.00  0.00    -0.167 A  
HETATM   20  C   UNL     1      -7.600   7.101  64.114  1.00  0.00    -0.109 A  
HETATM   21  N   UNL     1      -9.122   7.658  65.714  1.00  0.00    -0.060 NA 
HETATM   22  N   UNL     1      -8.403   6.667  65.130  1.00  0.00    -0.122 NA 
HETATM   23  C   UNL     1      -6.028   8.452  62.403  1.00  0.00    -0.084 A  
HETATM   24  N   UNL     1      -6.845   6.338  63.298  1.00  0.00    -0.043 NA 
HETATM   25  C   UNL     1      -7.692   8.485  64.126  1.00  0.00    -0.135 A  
HETATM   26  C   UNL     1      -6.081   7.065  62.452  1.00  0.00    -0.045 A  
HETATM   27  C   UNL     1      -6.856   9.194  63.246  1.00  0.00    -0.089 A  
BRANCH  22  28
HETATM   28  C   UNL     1      -8.573   5.284  65.551  1.00  0.00    -0.146 C  
BRANCH  28  29
HETATM   29  C   UNL     1      -8.000   4.988  66.916  1.00  0.00    -0.104 A  
HETATM   30  C   UNL     1      -8.320   4.041  69.140  1.00  0.00    -0.087 A  
HETATM   31  C   UNL     1      -7.177   4.693  69.596  1.00  0.00    -0.051 A  
HETATM   32  C   UNL     1      -8.716   4.186  67.811  1.00  0.00    -0.107 A  
HETATM   33  C   UNL     1      -6.418   5.455  68.710  1.00  0.00    -0.043 A  
HETATM   34  F   UNL     1      -9.834   3.567  67.409  1.00  0.00    -0.246 F  
HETATM   35  C   UNL     1      -6.825   5.604  67.378  1.00  0.00    -0.060 A  
ENDBRANCH  28  29
ENDBRANCH  22  28
ENDBRANCH  12  19
ENDBRANCH   4   7
ENDBRANCH   2   3
TORSDOF 5
ENDMDL
MODEL      170
REMARK 921   NORMALIZED FREE ENERGY PREDICTED BY IDOCK:   -4.37 KCAL/MOL
REMARK 922        TOTAL FREE ENERGY PREDICTED BY IDOCK:   -6.45 KCAL/MOL
REMARK 923 INTER-LIGAND FREE ENERGY PREDICTED BY IDOCK:   -5.92 KCAL/MOL
REMARK 924 INTRA-LIGAND FREE ENERGY PREDICTED BY IDOCK:   -0.54 KCAL/MOL
REMARK 927      BINDING AFFINITY PREDICTED BY RF-SCORE:    0.00 PKD
ROOT
HETATM    1  C   UNL     1      -9.301   4.682  69.836  1.00  0.00    -0.144 C  
HETATM    2  O   UNL     1     -10.466   4.957  70.612  1.00  0.00    -0.202 OA 
ENDROOT
BRANCH   2   3
HETATM    3  C   UNL     1     -10.348   4.658  71.935  1.00  0.00    -0.150 C  
HETATM    4  N   UNL     1     -10.381   5.779  72.749  1.00  0.00    -0.185 N  
HETATM    5  O   UNL     1     -10.215   3.515  72.361  1.00  0.00    -0.164 OA 
HETATM    6  C   UNL     1     -10.317   5.657  74.193  1.00  0.00    -0.281 C  
BRANCH   4   7
HETATM    7  C   UNL     1     -10.628   7.075  72.219  1.00  0.00    -0.213 A  
HETATM    8  C   UNL     1     -11.919   7.554  72.017  1.00  0.00    -0.294 A  
HETATM    9  N   UNL     1     -13.043   6.740  72.171  1.00  0.00    -0.549 NA 
HETATM   10  N   UNL     1     -12.167   8.796  71.589  1.00  0.00    -0.319 NA 
HETATM   11  H1  UNL     1     -13.990   7.091  72.024  1.00  0.00     0.000 HD 
HETATM   12  C   UNL     1     -11.098   9.575  71.336  1.00  0.00    -0.368 A  
HETATM   13  H2  UNL     1     -13.006   6.332  73.105  1.00  0.00     0.000 HD 
HETATM   14  N   UNL     1      -9.808   9.196  71.467  1.00  0.00    -0.298 NA 
HETATM   15  H2  UNL     1      -8.149   6.720  71.387  1.00  0.00     0.000 HD 
HETATM   16  H1  UNL     1      -7.494   8.191  71.743  1.00  0.00     0.000 HD 
HETATM   17  C   UNL     1      -9.592   7.949  71.910  1.00  0.00    -0.173 A  
HETATM   18  N   UNL     1      -8.254   7.549  71.970  1.00  0.00    -0.100 NA 
BRANCH  12  19
HETATM   19  C   UNL     1     -11.359  10.957  70.891  1.00  0.00     0.295 A  
HETATM   20  C   UNL     1     -12.239  13.005  70.656  1.00  0.00    -0.307 A  
HETATM   21  N   UNL     1     -10.700  11.529  69.855  1.00  0.00     0.206 NA 
HETATM   22  N   UNL     1     -11.211  12.783  69.784  1.00  0.00    -0.013 NA 
HETATM   23  C   UNL     1     -14.005  13.029  72.682  1.00  0.00    -0.121 A  
HETATM   24  N   UNL     1     -12.995  14.117  70.750  1.00  0.00    -0.308 NA 
HETATM   25  C   UNL     1     -12.313  11.867  71.446  1.00  0.00    -0.120 A  
HETATM   26  C   UNL     1     -13.871  14.075  71.778  1.00  0.00    -0.392 A  
HETATM   27  C   UNL     1     -13.223  11.886  72.519  1.00  0.00     0.447 A  
BRANCH  22  28
HETATM   28  C   UNL     1     -10.708  13.732  68.802  1.00  0.00    -0.249 C  
BRANCH  28  29
HETATM   29  C   UNL     1     -10.296  13.096  67.495  1.00  0.00    -0.225 A  
HETATM   30  C   UNL     1     -10.869  12.521  65.196  1.00  0.00    -0.323 A  
HETATM   31  C   UNL     1      -9.789  11.644  65.133  1.00  0.00    -0.281 A  
HETATM   32  C   UNL     1     -11.109  13.241  66.365  1.00  0.00    -0.295 A  
HETATM   33  C   UNL     1      -8.935  11.522  66.228  1.00  0.00    -0.199 A  
HETATM   34  F   UNL     1     -12.170  14.058  66.404  1.00  0.00    -0.408 F  
HETATM   35  C   UNL     1      -9.185  12.242  67.403  1.00  0.00    -0.182 A  
ENDBRANCH  28  29
ENDBRANCH  22  28
ENDBRANCH  12  19
ENDBRANCH   4   7
ENDBRANCH   2   3
TORSDOF 5
ENDMDL
MODEL      171
REMARK 921   NORMALIZED FREE ENERGY PREDICTED BY IDOCK:   -4.34 KCAL/MOL
REMARK 922        TOTAL FREE ENERGY PREDICTED BY IDOCK:   -6.42 KCAL/MOL
REMARK 923 INTER-LIGAND FREE ENERGY PREDICTED BY IDOCK:   -5.87 KCAL/MOL
REMARK 924 INTRA-LIGAND FREE ENERGY PREDICTED BY IDOCK:   -0.55 KCAL/MOL
REMARK 927      BINDING AFFINITY PREDICTED BY RF-SCORE:    0.00 PKD
ROOT
HETATM    1  C   UNL     1     -10.545   4.748  65.927  1.00  0.00    -0.244 C  
HETATM    2  O   UNL     1      -9.503   5.682  66.202  1.00  0.00    -0.158 OA 
ENDROOT
BRANCH   2   3
HETATM    3  C   UNL     1      -8.259   5.264  65.839  1.00  0.00    -0.117 C  
HETATM    4  N   UNL     1      -7.440   6.300  65.419  1.00  0.00    -0.080 N  
HETATM    5  O   UNL     1      -7.903   4.090  65.872  1.00  0.00    -0.089 OA 
HETATM    6  C   UNL     1      -6.062   6.057  65.038  1.00  0.00    -0.026 C  
BRANCH   4   7
HETATM    7  C   UNL     1      -7.864   7.655  65.484  1.00  0.00    -0.112 A  
HETATM    8  C   UNL     1      -8.368   8.322  64.370  1.00  0.00    -0.073 A  
HETATM    9  N   UNL     1      -8.341   7.758  63.093  1.00  0.00    -0.374 NA 
HETATM   10  N   UNL     1      -8.840   9.572  64.432  1.00  0.00    -0.215 NA 
HETATM   11  H1  UNL     1      -8.710   8.246  62.278  1.00  0.00     0.000 HD 
HETATM   12  C   UNL     1      -8.790  10.180  65.633  1.00  0.00    -0.165 A  
HETATM   13  H2  UNL     1      -8.800   6.849  63.145  1.00  0.00     0.000 HD 
HETATM   14  N   UNL     1      -8.290   9.634  66.764  1.00  0.00    -0.116 NA 
HETATM   15  H2  UNL     1      -6.301   7.579  67.608  1.00  0.00     0.000 HD 
HETATM   16  H1  UNL     1      -7.237   8.382  68.704  1.00  0.00     0.000 HD 
HETATM   17  C   UNL     1      -7.837   8.376  66.672  1.00  0.00    -0.093 A  
HETATM   18  N   UNL     1      -7.258   7.853  67.831  1.00  0.00    -0.089 NA 
BRANCH  12  19
HETATM   19  C   UNL     1      -9.334  11.548  65.721  1.00  0.00    -0.221 A  
HETATM   20  C   UNL     1     -10.516  13.414  65.346  1.00  0.00    -0.302 A  
HETATM   21  N   UNL     1      -8.826  12.485  66.557  1.00  0.00    -0.144 NA 
HETATM   22  N   UNL     1      -9.604  13.576  66.349  1.00  0.00    -0.273 NA 
HETATM   23  C   UNL     1     -12.271  12.538  63.507  1.00  0.00    -0.652 A  
HETATM   24  N   UNL     1     -11.357  14.349  64.858  1.00  0.00    -0.361 NA 
HETATM   25  C   UNL     1     -10.424  12.083  64.966  1.00  0.00    -0.327 A  
HETATM   26  C   UNL     1     -12.211  13.859  63.932  1.00  0.00    -0.328 A  
HETATM   27  C   UNL     1     -11.354  11.619  64.019  1.00  0.00    -0.428 A  
BRANCH  22  28
HETATM   28  C   UNL     1      -9.388  14.795  67.115  1.00  0.00    -0.224 C  
BRANCH  28  29
HETATM   29  C   UNL     1     -10.325  14.952  68.288  1.00  0.00    -0.232 A  
HETATM   30  C   UNL     1     -11.362  13.966  70.263  1.00  0.00    -0.007 A  
HETATM   31  C   UNL     1     -12.299  14.996  70.300  1.00  0.00    -0.392 A  
HETATM   32  C   UNL     1     -10.385  13.956  69.269  1.00  0.00     0.083 A  
HETATM   33  C   UNL     1     -12.227  16.028  69.366  1.00  0.00     0.021 A  
HETATM   34  F   UNL     1      -9.513  12.938  69.244  1.00  0.00     0.233 F  
HETATM   35  C   UNL     1     -11.248  16.008  68.365  1.00  0.00    -0.364 A  
ENDBRANCH  28  29
ENDBRANCH  22  28
ENDBRANCH  12  19
ENDBRANCH   4   7
ENDBRANCH   2   3
TORSDOF 5
ENDMDL
MODEL      172
REMARK 921   NORMALIZED FREE ENERGY PREDICTED BY IDOCK:   -4.33 KCAL/MOL
REMARK 922        TOTAL FREE ENERGY PREDICTED BY IDOCK:   -6.40 KCAL/MOL
REMARK 923 INTER-LIGAND FREE ENERGY PREDICTED BY IDOCK:   -5.44 KCAL/MOL
REMARK 924 INTRA-LIGAND FREE ENERGY PREDICTED BY IDOCK:   -0.96 KCAL/MOL
REMARK 927      BINDING AFFINITY PREDICTED BY RF-SCORE:    0.00 PKD
ROOT
HETATM    1  C   UNL     1      -9.487   3.027  65.718  1.00  0.00    -0.018 C  
HETATM    2  O   UNL     1      -9.605   3.924  66.820  1.00  0.00    -0.198 OA 
ENDROOT
BRANCH   2   3
HETATM    3  C   UNL     1      -9.035   3.479  67.974  1.00  0.00    -0.135 C  
HETATM    4  N   UNL     1      -8.607   4.508  68.799  1.00  0.00    -0.084 N  
HETATM    5  O   UNL     1      -8.904   2.291  68.251  1.00  0.00    -0.083 OA 
HETATM    6  C   UNL     1      -8.017   4.232  70.094  1.00  0.00    -0.058 C  
BRANCH   4   7
HETATM    7  C   UNL     1      -8.861   5.870  68.479  1.00  0.00    -0.111 A  
HETATM    8  C   UNL     1      -7.966   6.630  67.732  1.00  0.00    -0.112 A  
HETATM    9  N   UNL     1      -6.699   6.154  67.387  1.00  0.00    -0.059 NA 
HETATM   10  N   UNL     1      -8.224   7.888  67.361  1.00  0.00    -0.122 NA 
HETATM   11  H1  UNL     1      -6.043   6.711  66.839  1.00  0.00     0.000 HD 
HETATM   12  C   UNL     1      -9.398   8.410  67.763  1.00  0.00    -0.134 A  
HETATM   13  H2  UNL     1      -6.821   5.261  66.911  1.00  0.00     0.000 HD 
HETATM   14  N   UNL     1     -10.320   7.770  68.517  1.00  0.00    -0.201 NA 
HETATM   15  H2  UNL     1     -10.476   5.592  70.548  1.00  0.00     0.000 HD 
HETATM   16  H1  UNL     1     -11.828   6.350  69.983  1.00  0.00     0.000 HD 
HETATM   17  C   UNL     1     -10.036   6.506  68.862  1.00  0.00    -0.164 A  
HETATM   18  N   UNL     1     -10.965   5.884  69.702  1.00  0.00    -0.376 NA 
BRANCH  12  19
HETATM   19  C   UNL     1      -9.708   9.788  67.335  1.00  0.00    -0.163 A  
HETATM   20  C   UNL     1     -10.084  11.614  66.093  1.00  0.00    -0.224 A  
HETATM   21  N   UNL     1      -9.859  10.809  68.212  1.00  0.00    -0.161 NA 
HETATM   22  N   UNL     1     -10.148  11.880  67.431  1.00  0.00    -0.195 NA 
HETATM   23  C   UNL     1     -10.080  10.553  63.623  1.00  0.00    -0.219 A  
HETATM   24  N   UNL     1     -10.232  12.497  65.085  1.00  0.00    -0.284 NA 
HETATM   25  C   UNL     1      -9.878  10.246  65.991  1.00  0.00    -0.292 A  
HETATM   26  C   UNL     1     -10.214  11.914  63.865  1.00  0.00    -0.389 A  
HETATM   27  C   UNL     1      -9.895   9.687  64.701  1.00  0.00     0.094 A  
BRANCH  22  28
HETATM   28  C   UNL     1     -10.425  13.177  68.029  1.00  0.00    -0.239 C  
BRANCH  28  29
HETATM   29  C   UNL     1      -9.295  14.169  67.885  1.00  0.00    -0.204 A  
HETATM   30  C   UNL     1      -8.456  16.227  66.882  1.00  0.00    -0.257 A  
HETATM   31  C   UNL     1      -7.157  15.895  67.258  1.00  0.00    -0.242 A  
HETATM   32  C   UNL     1      -9.509  15.371  67.203  1.00  0.00    -0.213 A  
HETATM   33  C   UNL     1      -6.926  14.728  67.984  1.00  0.00    -0.149 A  
HETATM   34  F   UNL     1     -10.744  15.706  66.805  1.00  0.00    -0.296 F  
HETATM   35  C   UNL     1      -7.986  13.868  68.297  1.00  0.00    -0.148 A  
ENDBRANCH  28  29
ENDBRANCH  22  28
ENDBRANCH  12  19
ENDBRANCH   4   7
ENDBRANCH   2   3
TORSDOF 5
ENDMDL
MODEL      173
REMARK 921   NORMALIZED FREE ENERGY PREDICTED BY IDOCK:   -4.31 KCAL/MOL
REMARK 922        TOTAL FREE ENERGY PREDICTED BY IDOCK:   -6.37 KCAL/MOL
REMARK 923 INTER-LIGAND FREE ENERGY PREDICTED BY IDOCK:   -5.73 KCAL/MOL
REMARK 924 INTRA-LIGAND FREE ENERGY PREDICTED BY IDOCK:   -0.64 KCAL/MOL
REMARK 927      BINDING AFFINITY PREDICTED BY RF-SCORE:    0.00 PKD
ROOT
HETATM    1  C   UNL     1      -8.334   8.322  65.553  1.00  0.00    -0.155 C  
HETATM    2  O   UNL     1      -8.692   8.576  66.911  1.00  0.00    -0.124 OA 
ENDROOT
BRANCH   2   3
HETATM    3  C   UNL     1      -7.767   8.171  67.824  1.00  0.00    -0.110 C  
HETATM    4  N   UNL     1      -7.045   9.223  68.366  1.00  0.00    -0.072 N  
HETATM    5  O   UNL     1      -7.585   6.997  68.129  1.00  0.00    -0.103 OA 
HETATM    6  C   UNL     1      -6.046   8.994  69.392  1.00  0.00    -0.040 C  
BRANCH   4   7
HETATM    7  C   UNL     1      -7.352  10.575  68.051  1.00  0.00    -0.089 A  
HETATM    8  C   UNL     1      -8.403  11.252  68.663  1.00  0.00    -0.146 A  
HETATM    9  N   UNL     1      -9.314  10.605  69.500  1.00  0.00    -0.413 NA 
HETATM   10  N   UNL     1      -8.659  12.544  68.431  1.00  0.00    -0.157 NA 
HETATM   11  H1  UNL     1     -10.084  11.101  69.949  1.00  0.00     0.000 HD 
HETATM   12  C   UNL     1      -7.856  13.173  67.551  1.00  0.00    -0.172 A  
HETATM   13  H2  UNL     1      -8.782  10.132  70.230  1.00  0.00     0.000 HD 
HETATM   14  N   UNL     1      -6.833  12.599  66.880  1.00  0.00     0.046 NA 
HETATM   15  H2  UNL     1      -5.986   9.917  65.891  1.00  0.00     0.000 HD 
HETATM   16  H1  UNL     1      -5.025  11.247  65.722  1.00  0.00     0.000 HD 
HETATM   17  C   UNL     1      -6.595  11.306  67.143  1.00  0.00    -0.106 A  
HETATM   18  N   UNL     1      -5.581  10.710  66.388  1.00  0.00    -0.068 NA 
BRANCH  12  19
HETATM   19  C   UNL     1      -8.109  14.606  67.310  1.00  0.00    -0.206 A  
HETATM   20  C   UNL     1      -9.082  16.621  67.184  1.00  0.00    -0.214 A  
HETATM   21  N   UNL     1      -7.224  15.408  66.670  1.00  0.00     0.076 NA 
HETATM   22  N   UNL     1      -7.816  16.628  66.670  1.00  0.00    -0.250 NA 
HETATM   23  C   UNL     1     -11.384  16.151  68.490  1.00  0.00    -0.359 A  
HETATM   24  N   UNL     1      -9.941  17.658  67.230  1.00  0.00    -0.310 NA 
HETATM   25  C   UNL     1      -9.279  15.341  67.681  1.00  0.00    -0.187 A  
HETATM   26  C   UNL     1     -11.085  17.367  67.889  1.00  0.00    -0.012 A  
HETATM   27  C   UNL     1     -10.474  15.100  68.382  1.00  0.00    -0.233 A  
BRANCH  22  28
HETATM   28  C   UNL     1      -7.135  17.780  66.099  1.00  0.00    -0.312 C  
BRANCH  28  29
HETATM   29  C   UNL     1      -6.759  18.832  67.116  1.00  0.00    -0.203 A  
HETATM   30  C   UNL     1      -6.105  21.136  67.573  1.00  0.00    -0.420 A  
HETATM   31  C   UNL     1      -5.711  20.781  68.860  1.00  0.00    -0.398 A  
HETATM   32  C   UNL     1      -6.629  20.167  66.719  1.00  0.00    -0.215 A  
HETATM   33  C   UNL     1      -5.879  19.468  69.296  1.00  0.00    -0.281 A  
HETATM   34  F   UNL     1      -6.976  20.533  65.477  1.00  0.00    -0.284 F  
HETATM   35  C   UNL     1      -6.399  18.497  68.431  1.00  0.00    -0.217 A  
ENDBRANCH  28  29
ENDBRANCH  22  28
ENDBRANCH  12  19
ENDBRANCH   4   7
ENDBRANCH   2   3
TORSDOF 5
ENDMDL
MODEL      174
REMARK 921   NORMALIZED FREE ENERGY PREDICTED BY IDOCK:   -4.27 KCAL/MOL
REMARK 922        TOTAL FREE ENERGY PREDICTED BY IDOCK:   -6.33 KCAL/MOL
REMARK 923 INTER-LIGAND FREE ENERGY PREDICTED BY IDOCK:   -5.50 KCAL/MOL
REMARK 924 INTRA-LIGAND FREE ENERGY PREDICTED BY IDOCK:   -0.83 KCAL/MOL
REMARK 927      BINDING AFFINITY PREDICTED BY RF-SCORE:    0.00 PKD
ROOT
HETATM    1  C   UNL     1     -11.138   7.749  72.991  1.00  0.00    -0.359 C  
HETATM    2  O   UNL     1     -11.103   7.342  71.624  1.00  0.00    -0.233 OA 
ENDROOT
BRANCH   2   3
HETATM    3  C   UNL     1     -10.069   6.515  71.307  1.00  0.00    -0.186 C  
HETATM    4  N   UNL     1      -9.276   7.007  70.282  1.00  0.00    -0.156 N  
HETATM    5  O   UNL     1      -9.866   5.441  71.865  1.00  0.00    -0.163 OA 
HETATM    6  C   UNL     1      -8.098   6.289  69.837  1.00  0.00    -0.120 C  
BRANCH   4   7
HETATM    7  C   UNL     1      -9.496   8.298  69.728  1.00  0.00    -0.163 A  
HETATM    8  C   UNL     1      -8.847   9.428  70.217  1.00  0.00    -0.236 A  
HETATM    9  N   UNL     1      -8.066   9.392  71.374  1.00  0.00    -0.253 NA 
HETATM   10  N   UNL     1      -8.986  10.636  69.660  1.00  0.00     0.041 NA 
HETATM   11  H1  UNL     1      -7.591  10.220  71.732  1.00  0.00     0.000 HD 
HETATM   12  C   UNL     1      -9.811  10.722  68.599  1.00  0.00    -0.184 A  
HETATM   13  H2  UNL     1      -7.368   8.660  71.255  1.00  0.00     0.000 HD 
HETATM   14  N   UNL     1     -10.512   9.695  68.069  1.00  0.00    -0.216 NA 
HETATM   15  H2  UNL     1     -11.684   7.081  68.896  1.00  0.00     0.000 HD 
HETATM   16  H1  UNL     1     -11.748   7.605  67.333  1.00  0.00     0.000 HD 
HETATM   17  C   UNL     1     -10.341   8.495  68.643  1.00  0.00    -0.198 A  
HETATM   18  N   UNL     1     -11.128   7.460  68.130  1.00  0.00     0.075 NA 
BRANCH  12  19
HETATM   19  C   UNL     1      -9.951  12.044  67.957  1.00  0.00    -0.197 A  
HETATM   20  C   UNL     1     -10.364  13.677  66.480  1.00  0.00    -0.282 A  
HETATM   21  N   UNL     1      -9.525  13.189  68.541  1.00  0.00    -0.157 NA 
HETATM   22  N   UNL     1      -9.849  14.159  67.650  1.00  0.00    -0.226 NA 
HETATM   23  C   UNL     1     -11.542  12.286  64.505  1.00  0.00    -0.418 A  
HETATM   24  N   UNL     1     -10.690  14.392  65.385  1.00  0.00    -0.326 NA 
HETATM   25  C   UNL     1     -10.518  12.312  66.672  1.00  0.00    -0.247 A  
HETATM   26  C   UNL     1     -11.270  13.645  64.420  1.00  0.00    -0.367 A  
HETATM   27  C   UNL     1     -11.153  11.586  65.648  1.00  0.00    -0.261 A  
BRANCH  22  28
HETATM   28  C   UNL     1      -9.582  15.558  67.951  1.00  0.00    -0.206 C  
BRANCH  28  29
HETATM   29  C   UNL     1      -8.175  15.995  67.621  1.00  0.00    -0.162 A  
HETATM   30  C   UNL     1      -6.613  16.894  65.978  1.00  0.00     0.385 A  
HETATM   31  C   UNL     1      -5.537  16.511  66.774  1.00  0.00     0.069 A  
HETATM   32  C   UNL     1      -7.915  16.642  66.408  1.00  0.00    -0.325 A  
HETATM   33  C   UNL     1      -5.772  15.912  68.011  1.00  0.00    -0.137 A  
HETATM   34  F   UNL     1      -8.930  16.999  65.608  1.00  0.00    -0.177 F  
HETATM   35  C   UNL     1      -7.082  15.655  68.434  1.00  0.00    -0.115 A  
ENDBRANCH  28  29
ENDBRANCH  22  28
ENDBRANCH  12  19
ENDBRANCH   4   7
ENDBRANCH   2   3
TORSDOF 5
ENDMDL
MODEL      175
REMARK 921   NORMALIZED FREE ENERGY PREDICTED BY IDOCK:   -4.24 KCAL/MOL
REMARK 922        TOTAL FREE ENERGY PREDICTED BY IDOCK:   -6.28 KCAL/MOL
REMARK 923 INTER-LIGAND FREE ENERGY PREDICTED BY IDOCK:   -5.48 KCAL/MOL
REMARK 924 INTRA-LIGAND FREE ENERGY PREDICTED BY IDOCK:   -0.80 KCAL/MOL
REMARK 927      BINDING AFFINITY PREDICTED BY RF-SCORE:    0.00 PKD
ROOT
HETATM    1  C   UNL     1     -11.959  11.918  69.238  1.00  0.00    -0.281 C  
HETATM    2  O   UNL     1     -12.062  10.528  69.538  1.00  0.00    -0.236 OA 
ENDROOT
BRANCH   2   3
HETATM    3  C   UNL     1     -11.859  10.215  70.848  1.00  0.00    -0.374 C  
HETATM    4  N   UNL     1     -11.117   9.057  71.021  1.00  0.00    -0.266 N  
HETATM    5  O   UNL     1     -12.298  10.884  71.779  1.00  0.00    -0.229 OA 
HETATM    6  C   UNL     1     -10.758   8.590  72.345  1.00  0.00    -0.306 C  
BRANCH   4   7
HETATM    7  C   UNL     1     -10.553   8.365  69.914  1.00  0.00    -0.228 A  
HETATM    8  C   UNL     1     -11.160   7.240  69.364  1.00  0.00    -0.068 A  
HETATM    9  N   UNL     1     -12.267   6.630  69.958  1.00  0.00    -0.520 NA 
HETATM   10  N   UNL     1     -10.682   6.622  68.278  1.00  0.00    -0.240 NA 
HETATM   11  H1  UNL     1     -12.712   5.806  69.555  1.00  0.00     0.000 HD 
HETATM   12  C   UNL     1      -9.557   7.129  67.739  1.00  0.00    -0.129 A  
HETATM   13  H2  UNL     1     -12.986   7.343  70.079  1.00  0.00     0.000 HD 
HETATM   14  N   UNL     1      -8.874   8.194  68.215  1.00  0.00    -0.133 NA 
HETATM   15  H2  UNL     1      -8.406   9.626  70.788  1.00  0.00     0.000 HD 
HETATM   16  H1  UNL     1      -7.772  10.168  69.365  1.00  0.00     0.000 HD 
HETATM   17  C   UNL     1      -9.386   8.798  69.297  1.00  0.00    -0.149 A  
HETATM   18  N   UNL     1      -8.629   9.851  69.818  1.00  0.00    -0.198 NA 
BRANCH  12  19
HETATM   19  C   UNL     1      -9.036   6.474  66.523  1.00  0.00    -0.143 A  
HETATM   20  C   UNL     1      -8.328   4.945  65.047  1.00  0.00    -0.136 A  
HETATM   21  N   UNL     1      -8.563   7.172  65.463  1.00  0.00    -0.122 NA 
HETATM   22  N   UNL     1      -8.205   6.218  64.568  1.00  0.00    -0.103 NA 
HETATM   23  C   UNL     1      -8.974   2.672  66.328  1.00  0.00    -0.143 A  
HETATM   24  N   UNL     1      -7.966   3.806  64.422  1.00  0.00    -0.085 NA 
HETATM   25  C   UNL     1      -8.939   5.067  66.287  1.00  0.00    -0.127 A  
HETATM   26  C   UNL     1      -8.305   2.695  65.112  1.00  0.00    -0.094 A  
HETATM   27  C   UNL     1      -9.295   3.879  66.949  1.00  0.00    -0.208 A  
BRANCH  22  28
HETATM   28  C   UNL     1      -7.684   6.589  63.261  1.00  0.00    -0.095 C  
BRANCH  28  29
HETATM   29  C   UNL     1      -7.101   7.981  63.210  1.00  0.00    -0.087 A  
HETATM   30  C   UNL     1      -7.323  10.299  62.484  1.00  0.00    -0.151 A  
HETATM   31  C   UNL     1      -5.972  10.522  62.742  1.00  0.00    -0.144 A  
HETATM   32  C   UNL     1      -7.874   9.042  62.725  1.00  0.00    -0.129 A  
HETATM   33  C   UNL     1      -5.194   9.496  63.275  1.00  0.00    -0.070 A  
HETATM   34  F   UNL     1      -9.171   8.850  62.443  1.00  0.00    -0.214 F  
HETATM   35  C   UNL     1      -5.751   8.233  63.508  1.00  0.00    -0.070 A  
ENDBRANCH  28  29
ENDBRANCH  22  28
ENDBRANCH  12  19
ENDBRANCH   4   7
ENDBRANCH   2   3
TORSDOF 5
ENDMDL
MODEL      176
REMARK 921   NORMALIZED FREE ENERGY PREDICTED BY IDOCK:   -4.23 KCAL/MOL
REMARK 922        TOTAL FREE ENERGY PREDICTED BY IDOCK:   -6.27 KCAL/MOL
REMARK 923 INTER-LIGAND FREE ENERGY PREDICTED BY IDOCK:   -6.05 KCAL/MOL
REMARK 924 INTRA-LIGAND FREE ENERGY PREDICTED BY IDOCK:   -0.22 KCAL/MOL
REMARK 927      BINDING AFFINITY PREDICTED BY RF-SCORE:    0.00 PKD
ROOT
HETATM    1  C   UNL     1     -10.354   7.396  68.362  1.00  0.00    -0.194 C  
HETATM    2  O   UNL     1      -9.016   7.194  68.813  1.00  0.00    -0.130 OA 
ENDROOT
BRANCH   2   3
HETATM    3  C   UNL     1      -8.895   6.999  70.156  1.00  0.00    -0.145 C  
HETATM    4  N   UNL     1      -8.735   8.181  70.862  1.00  0.00    -0.135 N  
HETATM    5  O   UNL     1      -8.917   5.892  70.684  1.00  0.00    -0.142 OA 
HETATM    6  C   UNL     1      -8.638   8.181  72.308  1.00  0.00    -0.175 C  
BRANCH   4   7
HETATM    7  C   UNL     1      -8.808   9.447  70.218  1.00  0.00    -0.236 A  
HETATM    8  C   UNL     1      -7.690  10.044  69.641  1.00  0.00    -0.156 A  
HETATM    9  N   UNL     1      -6.406   9.517  69.796  1.00  0.00    -0.043 NA 
HETATM   10  N   UNL     1      -7.757  11.197  68.968  1.00  0.00    -0.133 NA 
HETATM   11  H1  UNL     1      -5.587   9.954  69.373  1.00  0.00     0.000 HD 
HETATM   12  C   UNL     1      -8.968  11.781  68.885  1.00  0.00     0.130 A  
HETATM   13  H2  UNL     1      -6.431   8.544  69.492  1.00  0.00     0.000 HD 
HETATM   14  N   UNL     1     -10.105  11.302  69.436  1.00  0.00     0.005 NA 
HETATM   15  H2  UNL     1     -10.977   9.587  71.714  1.00  0.00     0.000 HD 
HETATM   16  H1  UNL     1     -12.056  10.203  70.629  1.00  0.00     0.000 HD 
HETATM   17  C   UNL     1     -10.007  10.139  70.094  1.00  0.00    -0.098 A  
HETATM   18  N   UNL     1     -11.175   9.695  70.719  1.00  0.00    -0.307 NA 
BRANCH  12  19
HETATM   19  C   UNL     1      -9.060  13.039  68.119  1.00  0.00    -0.204 A  
HETATM   20  C   UNL     1      -8.794  15.154  67.430  1.00  0.00    -0.186 A  
HETATM   21  N   UNL     1      -9.913  13.202  67.079  1.00  0.00    -0.239 NA 
HETATM   22  N   UNL     1      -9.678  14.466  66.649  1.00  0.00    -0.267 NA 
HETATM   23  C   UNL     1      -6.850  15.985  69.091  1.00  0.00    -0.180 A  
HETATM   24  N   UNL     1      -8.438  16.449  67.301  1.00  0.00    -0.170 NA 
HETATM   25  C   UNL     1      -8.311  14.236  68.350  1.00  0.00    -0.164 A  
HETATM   26  C   UNL     1      -7.465  16.817  68.165  1.00  0.00    -0.171 A  
HETATM   27  C   UNL     1      -7.280  14.663  69.206  1.00  0.00    -0.156 A  
BRANCH  22  28
HETATM   28  C   UNL     1     -10.388  14.998  65.495  1.00  0.00    -0.373 C  
BRANCH  28  29
HETATM   29  C   UNL     1     -11.049  13.939  64.645  1.00  0.00    -0.389 A  
HETATM   30  C   UNL     1     -13.046  12.636  64.134  1.00  0.00    -0.002 A  
HETATM   31  C   UNL     1     -12.288  11.750  63.373  1.00  0.00    -0.476 A  
HETATM   32  C   UNL     1     -12.427  13.721  64.753  1.00  0.00    -0.349 A  
HETATM   33  C   UNL     1     -10.923  11.976  63.208  1.00  0.00    -0.399 A  
HETATM   34  F   UNL     1     -13.178  14.542  65.500  1.00  0.00    -0.417 F  
HETATM   35  C   UNL     1     -10.304  13.062  63.839  1.00  0.00    -0.153 A  
ENDBRANCH  28  29
ENDBRANCH  22  28
ENDBRANCH  12  19
ENDBRANCH   4   7
ENDBRANCH   2   3
TORSDOF 5
ENDMDL
MODEL      177
REMARK 921   NORMALIZED FREE ENERGY PREDICTED BY IDOCK:   -4.22 KCAL/MOL
REMARK 922        TOTAL FREE ENERGY PREDICTED BY IDOCK:   -6.25 KCAL/MOL
REMARK 923 INTER-LIGAND FREE ENERGY PREDICTED BY IDOCK:   -5.38 KCAL/MOL
REMARK 924 INTRA-LIGAND FREE ENERGY PREDICTED BY IDOCK:   -0.87 KCAL/MOL
REMARK 927      BINDING AFFINITY PREDICTED BY RF-SCORE:    0.00 PKD
ROOT
HETATM    1  C   UNL     1      -9.565  10.740  63.164  1.00  0.00    -0.355 C  
HETATM    2  O   UNL     1      -9.446  11.012  64.559  1.00  0.00    -0.219 OA 
ENDROOT
BRANCH   2   3
HETATM    3  C   UNL     1      -9.909  12.235  64.938  1.00  0.00    -0.118 C  
HETATM    4  N   UNL     1      -9.998  12.378  66.314  1.00  0.00    -0.241 N  
HETATM    5  O   UNL     1     -10.224  13.116  64.144  1.00  0.00    -0.391 OA 
HETATM    6  C   UNL     1     -10.427  13.628  66.910  1.00  0.00    -0.272 C  
BRANCH   4   7
HETATM    7  C   UNL     1      -9.537  11.364  67.197  1.00  0.00    -0.179 A  
HETATM    8  C   UNL     1     -10.410  10.469  67.810  1.00  0.00    -0.212 A  
HETATM    9  N   UNL     1     -11.796  10.609  67.723  1.00  0.00    -0.645 NA 
HETATM   10  N   UNL     1      -9.985   9.465  68.584  1.00  0.00    -0.167 NA 
HETATM   11  H1  UNL     1     -12.436   9.954  68.172  1.00  0.00     0.000 HD 
HETATM   12  C   UNL     1      -8.655   9.362  68.768  1.00  0.00    -0.127 A  
HETATM   13  H2  UNL     1     -12.042  10.656  66.735  1.00  0.00     0.000 HD 
HETATM   14  N   UNL     1      -7.728  10.197  68.247  1.00  0.00    -0.087 NA 
HETATM   15  H2  UNL     1      -7.482  13.016  67.309  1.00  0.00     0.000 HD 
HETATM   16  H1  UNL     1      -6.228  11.950  67.193  1.00  0.00     0.000 HD 
HETATM   17  C   UNL     1      -8.185  11.186  67.466  1.00  0.00    -0.119 A  
HETATM   18  N   UNL     1      -7.221  12.081  66.995  1.00  0.00    -0.129 NA 
BRANCH  12  19
HETATM   19  C   UNL     1      -8.171   8.240  69.596  1.00  0.00    -0.118 A  
HETATM   20  C   UNL     1      -7.278   6.297  70.264  1.00  0.00    -0.083 A  
HETATM   21  N   UNL     1      -8.387   8.171  70.932  1.00  0.00    -0.116 NA 
HETATM   22  N   UNL     1      -7.780   7.019  71.309  1.00  0.00    -0.090 NA 
HETATM   23  C   UNL     1      -6.258   5.389  67.948  1.00  0.00    -0.038 A  
HETATM   24  N   UNL     1      -6.705   5.078  70.323  1.00  0.00    -0.035 NA 
HETATM   25  C   UNL     1      -7.444   7.096  69.142  1.00  0.00    -0.094 A  
HETATM   26  C   UNL     1      -6.217   4.665  69.133  1.00  0.00    -0.031 A  
HETATM   27  C   UNL     1      -6.894   6.631  67.934  1.00  0.00    -0.077 A  
BRANCH  22  28
HETATM   28  C   UNL     1      -7.759   6.619  72.708  1.00  0.00    -0.100 C  
BRANCH  28  29
HETATM   29  C   UNL     1      -8.902   5.712  73.100  1.00  0.00    -0.122 A  
HETATM   30  C   UNL     1      -9.644   3.512  73.844  1.00  0.00    -0.126 A  
HETATM   31  C   UNL     1     -10.958   3.828  73.511  1.00  0.00    -0.339 A  
HETATM   32  C   UNL     1      -8.634   4.452  73.645  1.00  0.00    -0.096 A  
HETATM   33  C   UNL     1     -11.258   5.096  73.015  1.00  0.00    -0.390 A  
HETATM   34  F   UNL     1      -7.375   4.109  73.952  1.00  0.00    -0.061 F  
HETATM   35  C   UNL     1     -10.238   6.034  72.809  1.00  0.00    -0.209 A  
ENDBRANCH  28  29
ENDBRANCH  22  28
ENDBRANCH  12  19
ENDBRANCH   4   7
ENDBRANCH   2   3
TORSDOF 5
ENDMDL
MODEL      178
REMARK 921   NORMALIZED FREE ENERGY PREDICTED BY IDOCK:   -4.17 KCAL/MOL
REMARK 922        TOTAL FREE ENERGY PREDICTED BY IDOCK:   -6.19 KCAL/MOL
REMARK 923 INTER-LIGAND FREE ENERGY PREDICTED BY IDOCK:   -6.37 KCAL/MOL
REMARK 924 INTRA-LIGAND FREE ENERGY PREDICTED BY IDOCK:    0.18 KCAL/MOL
REMARK 927      BINDING AFFINITY PREDICTED BY RF-SCORE:    0.00 PKD
ROOT
HETATM    1  C   UNL     1      -9.513   8.070  69.793  1.00  0.00    -0.159 C  
HETATM    2  O   UNL     1      -8.547   8.017  68.744  1.00  0.00    -0.127 OA 
ENDROOT
BRANCH   2   3
HETATM    3  C   UNL     1      -7.256   8.136  69.159  1.00  0.00    -0.073 C  
HETATM    4  N   UNL     1      -6.654   9.309  68.731  1.00  0.00    -0.052 N  
HETATM    5  O   UNL     1      -6.681   7.287  69.833  1.00  0.00    -0.048 OA 
HETATM    6  C   UNL     1      -5.295   9.635  69.114  1.00  0.00    -0.036 C  
BRANCH   4   7
HETATM    7  C   UNL     1      -7.387  10.305  68.029  1.00  0.00    -0.086 A  
HETATM    8  C   UNL     1      -7.769  10.138  66.701  1.00  0.00    -0.106 A  
HETATM    9  N   UNL     1      -7.325   9.060  65.932  1.00  0.00    -0.092 NA 
HETATM   10  N   UNL     1      -8.521  11.032  66.050  1.00  0.00    -0.169 NA 
HETATM   11  H1  UNL     1      -7.605   8.937  64.959  1.00  0.00     0.000 HD 
HETATM   12  C   UNL     1      -8.884  12.132  66.736  1.00  0.00    -0.198 A  
HETATM   13  H2  UNL     1      -7.559   8.203  66.434  1.00  0.00     0.000 HD 
HETATM   14  N   UNL     1      -8.538  12.405  68.014  1.00  0.00    -0.173 NA 
HETATM   15  H2  UNL     1      -6.367  11.786  69.960  1.00  0.00     0.000 HD 
HETATM   16  H1  UNL     1      -7.685  12.680  70.387  1.00  0.00     0.000 HD 
HETATM   17  C   UNL     1      -7.795  11.484  68.642  1.00  0.00    -0.137 A  
HETATM   18  N   UNL     1      -7.386  11.815  69.937  1.00  0.00     0.462 NA 
BRANCH  12  19
HETATM   19  C   UNL     1      -9.738  13.113  66.038  1.00  0.00    -0.226 A  
HETATM   20  C   UNL     1     -11.284  14.054  64.717  1.00  0.00    -0.375 A  
HETATM   21  N   UNL     1      -9.539  14.450  66.127  1.00  0.00    -0.299 NA 
HETATM   22  N   UNL     1     -10.528  14.986  65.369  1.00  0.00    -0.352 NA 
HETATM   23  C   UNL     1     -12.614  11.877  63.869  1.00  0.00    -0.450 A  
HETATM   24  N   UNL     1     -12.273  14.289  63.831  1.00  0.00    -0.654 NA 
HETATM   25  C   UNL     1     -10.851  12.823  65.188  1.00  0.00    -0.318 A  
HETATM   26  C   UNL     1     -12.902  13.162  63.430  1.00  0.00     0.366 A  
HETATM   27  C   UNL     1     -11.558  11.685  64.761  1.00  0.00    -0.170 A  
BRANCH  22  28
HETATM   28  C   UNL     1     -10.671  16.430  65.255  1.00  0.00    -0.295 C  
BRANCH  28  29
HETATM   29  C   UNL     1     -10.535  17.162  66.569  1.00  0.00    -0.255 A  
HETATM   30  C   UNL     1     -10.334  19.286  67.749  1.00  0.00    -0.531 A  
HETATM   31  C   UNL     1      -9.930  18.620  68.903  1.00  0.00    -0.399 A  
HETATM   32  C   UNL     1     -10.638  18.557  66.601  1.00  0.00    -0.342 A  
HETATM   33  C   UNL     1      -9.870  17.228  68.911  1.00  0.00    -0.286 A  
HETATM   34  F   UNL     1     -10.999  19.227  65.498  1.00  0.00    -0.514 F  
HETATM   35  C   UNL     1     -10.169  16.501  67.753  1.00  0.00    -0.278 A  
ENDBRANCH  28  29
ENDBRANCH  22  28
ENDBRANCH  12  19
ENDBRANCH   4   7
ENDBRANCH   2   3
TORSDOF 5
ENDMDL
MODEL      179
REMARK 921   NORMALIZED FREE ENERGY PREDICTED BY IDOCK:   -4.16 KCAL/MOL
REMARK 922        TOTAL FREE ENERGY PREDICTED BY IDOCK:   -6.18 KCAL/MOL
REMARK 923 INTER-LIGAND FREE ENERGY PREDICTED BY IDOCK:   -5.22 KCAL/MOL
REMARK 924 INTRA-LIGAND FREE ENERGY PREDICTED BY IDOCK:   -0.96 KCAL/MOL
REMARK 927      BINDING AFFINITY PREDICTED BY RF-SCORE:    0.00 PKD
ROOT
HETATM    1  C   UNL     1     -12.400  11.438  70.356  1.00  0.00    -0.319 C  
HETATM    2  O   UNL     1     -11.995  10.070  70.338  1.00  0.00    -0.268 OA 
ENDROOT
BRANCH   2   3
HETATM    3  C   UNL     1     -11.974   9.470  71.560  1.00  0.00    -0.399 C  
HETATM    4  N   UNL     1     -11.135   8.368  71.609  1.00  0.00    -0.260 N  
HETATM    5  O   UNL     1     -12.636   9.860  72.517  1.00  0.00    -0.128 OA 
HETATM    6  C   UNL     1     -10.944   7.627  72.840  1.00  0.00    -0.400 C  
BRANCH   4   7
HETATM    7  C   UNL     1     -10.318   8.008  70.502  1.00  0.00    -0.202 A  
HETATM    8  C   UNL     1     -10.774   7.159  69.497  1.00  0.00    -0.239 A  
HETATM    9  N   UNL     1     -11.994   6.486  69.592  1.00  0.00    -0.520 NA 
HETATM   10  N   UNL     1     -10.045   6.870  68.414  1.00  0.00    -0.161 NA 
HETATM   11  H1  UNL     1     -12.328   5.864  68.856  1.00  0.00     0.000 HD 
HETATM   12  C   UNL     1      -8.821   7.426  68.341  1.00  0.00    -0.121 A  
HETATM   13  H2  UNL     1     -12.719   7.182  69.764  1.00  0.00     0.000 HD 
HETATM   14  N   UNL     1      -8.274   8.235  69.276  1.00  0.00    -0.116 NA 
HETATM   15  H2  UNL     1      -8.449   8.763  72.205  1.00  0.00     0.000 HD 
HETATM   16  H1  UNL     1      -7.484   9.665  71.217  1.00  0.00     0.000 HD 
HETATM   17  C   UNL     1      -9.034   8.515  70.343  1.00  0.00    -0.152 A  
HETATM   18  N   UNL     1      -8.427   9.292  71.333  1.00  0.00    -0.304 NA 
BRANCH  12  19
HETATM   19  C   UNL     1      -8.018   7.139  67.136  1.00  0.00    -0.110 A  
HETATM   20  C   UNL     1      -6.740   7.355  65.309  1.00  0.00    -0.047 A  
HETATM   21  N   UNL     1      -7.930   5.900  66.595  1.00  0.00    -0.101 NA 
HETATM   22  N   UNL     1      -7.100   6.057  65.534  1.00  0.00    -0.067 NA 
HETATM   23  C   UNL     1      -6.125   9.970  65.432  1.00  0.00    -0.093 A  
HETATM   24  N   UNL     1      -6.002   7.824  64.283  1.00  0.00    -0.051 NA 
HETATM   25  C   UNL     1      -7.253   8.078  66.376  1.00  0.00    -0.079 A  
HETATM   26  C   UNL     1      -5.729   9.144  64.388  1.00  0.00    -0.068 A  
HETATM   27  C   UNL     1      -6.916   9.441  66.452  1.00  0.00    -0.084 A  
BRANCH  22  28
HETATM   28  C   UNL     1      -6.724   4.915  64.715  1.00  0.00    -0.048 C  
BRANCH  28  29
HETATM   29  C   UNL     1      -7.897   4.089  64.244  1.00  0.00    -0.085 A  
HETATM   30  C   UNL     1      -9.960   3.964  62.950  1.00  0.00    -0.166 A  
HETATM   31  C   UNL     1     -10.300   2.772  63.585  1.00  0.00    -0.188 A  
HETATM   32  C   UNL     1      -8.766   4.605  63.276  1.00  0.00    -0.132 A  
HETATM   33  C   UNL     1      -9.425   2.212  64.514  1.00  0.00    -0.112 A  
HETATM   34  F   UNL     1      -8.479   5.764  62.667  1.00  0.00    -0.110 F  
HETATM   35  C   UNL     1      -8.231   2.864  64.844  1.00  0.00    -0.087 A  
ENDBRANCH  28  29
ENDBRANCH  22  28
ENDBRANCH  12  19
ENDBRANCH   4   7
ENDBRANCH   2   3
TORSDOF 5
ENDMDL
MODEL      180
REMARK 921   NORMALIZED FREE ENERGY PREDICTED BY IDOCK:   -4.14 KCAL/MOL
REMARK 922        TOTAL FREE ENERGY PREDICTED BY IDOCK:   -6.15 KCAL/MOL
REMARK 923 INTER-LIGAND FREE ENERGY PREDICTED BY IDOCK:   -5.10 KCAL/MOL
REMARK 924 INTRA-LIGAND FREE ENERGY PREDICTED BY IDOCK:   -1.05 KCAL/MOL
REMARK 927      BINDING AFFINITY PREDICTED BY RF-SCORE:    0.00 PKD
ROOT
HETATM    1  C   UNL     1      -8.363   4.548  68.976  1.00  0.00    -0.079 C  
HETATM    2  O   UNL     1      -7.839   5.207  70.128  1.00  0.00    -0.075 OA 
ENDROOT
BRANCH   2   3
HETATM    3  C   UNL     1      -8.269   4.696  71.315  1.00  0.00    -0.100 C  
HETATM    4  N   UNL     1      -9.071   5.577  72.025  1.00  0.00    -0.141 N  
HETATM    5  O   UNL     1      -7.970   3.577  71.718  1.00  0.00    -0.060 OA 
HETATM    6  C   UNL     1      -9.663   5.194  73.292  1.00  0.00    -0.145 C  
BRANCH   4   7
HETATM    7  C   UNL     1      -9.465   6.828  71.477  1.00  0.00    -0.156 A  
HETATM    8  C   UNL     1      -8.755   7.998  71.731  1.00  0.00    -0.137 A  
HETATM    9  N   UNL     1      -7.713   8.046  72.660  1.00  0.00    -0.114 NA 
HETATM   10  N   UNL     1      -9.070   9.168  71.165  1.00  0.00    -0.236 NA 
HETATM   11  H1  UNL     1      -7.193   8.904  72.846  1.00  0.00     0.000 HD 
HETATM   12  C   UNL     1     -10.133   9.175  70.339  1.00  0.00    -0.218 A  
HETATM   13  H2  UNL     1      -7.040   7.323  72.409  1.00  0.00     0.000 HD 
HETATM   14  N   UNL     1     -10.906   8.104  70.053  1.00  0.00    -0.247 NA 
HETATM   15  H2  UNL     1     -11.747   5.519  71.276  1.00  0.00     0.000 HD 
HETATM   16  H1  UNL     1     -12.212   5.950  69.754  1.00  0.00     0.000 HD 
HETATM   17  C   UNL     1     -10.558   6.944  70.627  1.00  0.00    -0.222 A  
HETATM   18  N   UNL     1     -11.410   5.865  70.378  1.00  0.00    -0.244 NA 
BRANCH  12  19
HETATM   19  C   UNL     1     -10.472  10.454  69.684  1.00  0.00    -0.243 A  
HETATM   20  C   UNL     1     -11.495  12.361  69.105  1.00  0.00    -0.302 A  
HETATM   21  N   UNL     1      -9.789  10.933  68.618  1.00  0.00    -0.184 NA 
HETATM   22  N   UNL     1     -10.393  12.114  68.337  1.00  0.00    -0.225 NA 
HETATM   23  C   UNL     1     -13.398  12.507  70.998  1.00  0.00     0.326 A  
HETATM   24  N   UNL     1     -12.343  13.403  68.993  1.00  0.00    -0.118 NA 
HETATM   25  C   UNL     1     -11.534  11.342  70.045  1.00  0.00    -0.359 A  
HETATM   26  C   UNL     1     -13.285  13.425  69.963  1.00  0.00     0.988 A  
HETATM   27  C   UNL     1     -12.516  11.427  71.048  1.00  0.00    -0.486 A  
BRANCH  22  28
HETATM   28  C   UNL     1      -9.900  12.959  67.259  1.00  0.00    -0.218 C  
BRANCH  28  29
HETATM   29  C   UNL     1     -10.375  12.538  65.889  1.00  0.00    -0.284 A  
HETATM   30  C   UNL     1      -9.892  11.410  63.781  1.00  0.00    -0.353 A  
HETATM   31  C   UNL     1     -11.008  12.001  63.195  1.00  0.00    -0.269 A  
HETATM   32  C   UNL     1      -9.590  11.675  65.116  1.00  0.00    -0.183 A  
HETATM   33  C   UNL     1     -11.835  12.824  63.959  1.00  0.00    -0.506 A  
HETATM   34  F   UNL     1      -8.495  11.111  65.645  1.00  0.00    -0.177 F  
HETATM   35  C   UNL     1     -11.522  13.093  65.297  1.00  0.00    -0.328 A  
ENDBRANCH  28  29
ENDBRANCH  22  28
ENDBRANCH  12  19
ENDBRANCH   4   7
ENDBRANCH   2   3
TORSDOF 5
ENDMDL
MODEL      181
REMARK 921   NORMALIZED FREE ENERGY PREDICTED BY IDOCK:   -4.03 KCAL/MOL
REMARK 922        TOTAL FREE ENERGY PREDICTED BY IDOCK:   -6.01 KCAL/MOL
REMARK 923 INTER-LIGAND FREE ENERGY PREDICTED BY IDOCK:   -5.64 KCAL/MOL
REMARK 924 INTRA-LIGAND FREE ENERGY PREDICTED BY IDOCK:   -0.37 KCAL/MOL
REMARK 927      BINDING AFFINITY PREDICTED BY RF-SCORE:    0.00 PKD
ROOT
HETATM    1  C   UNL     1     -11.657  14.336  70.247  1.00  0.00    -0.224 C  
HETATM    2  O   UNL     1     -11.415  12.931  70.295  1.00  0.00    -0.058 OA 
ENDROOT
BRANCH   2   3
HETATM    3  C   UNL     1     -12.411  12.206  70.876  1.00  0.00    -0.273 C  
HETATM    4  N   UNL     1     -12.401  10.873  70.499  1.00  0.00    -0.346 N  
HETATM    5  O   UNL     1     -13.237  12.686  71.646  1.00  0.00    -0.396 OA 
HETATM    6  C   UNL     1     -13.356   9.932  71.050  1.00  0.00    -0.256 C  
BRANCH   4   7
HETATM    7  C   UNL     1     -11.370  10.342  69.675  1.00  0.00    -0.272 A  
HETATM    8  C   UNL     1     -10.405   9.471  70.174  1.00  0.00    -0.255 A  
HETATM    9  N   UNL     1     -10.294   9.192  71.538  1.00  0.00    -0.343 NA 
HETATM   10  N   UNL     1      -9.475   8.907  69.398  1.00  0.00    -0.160 NA 
HETATM   11  H1  UNL     1      -9.587   8.554  71.904  1.00  0.00     0.000 HD 
HETATM   12  C   UNL     1      -9.495   9.234  68.092  1.00  0.00    -0.138 A  
HETATM   13  H2  UNL     1     -11.204   8.867  71.864  1.00  0.00     0.000 HD 
HETATM   14  N   UNL     1     -10.366  10.092  67.516  1.00  0.00    -0.214 NA 
HETATM   15  H2  UNL     1     -12.046  12.448  68.236  1.00  0.00     0.000 HD 
HETATM   16  H1  UNL     1     -12.083  11.785  66.726  1.00  0.00     0.000 HD 
HETATM   17  C   UNL     1     -11.293  10.632  68.318  1.00  0.00    -0.289 A  
HETATM   18  N   UNL     1     -12.139  11.572  67.722  1.00  0.00    -0.587 NA 
BRANCH  12  19
HETATM   19  C   UNL     1      -8.492   8.595  67.219  1.00  0.00    -0.115 A  
HETATM   20  C   UNL     1      -6.779   8.247  65.817  1.00  0.00    -0.053 A  
HETATM   21  N   UNL     1      -8.524   7.276  66.912  1.00  0.00    -0.117 NA 
HETATM   22  N   UNL     1      -7.441   7.090  66.117  1.00  0.00    -0.078 NA 
HETATM   23  C   UNL     1      -5.696  10.706  65.725  1.00  0.00    -0.139 A  
HETATM   24  N   UNL     1      -5.728   8.385  64.984  1.00  0.00    -0.044 NA 
HETATM   25  C   UNL     1      -7.386   9.236  66.577  1.00  0.00    -0.092 A  
HETATM   26  C   UNL     1      -5.228   9.640  64.968  1.00  0.00    -0.046 A  
HETATM   27  C   UNL     1      -6.809  10.518  66.546  1.00  0.00    -0.113 A  
BRANCH  22  28
HETATM   28  C   UNL     1      -7.111   5.765  65.614  1.00  0.00    -0.069 C  
BRANCH  28  29
HETATM   29  C   UNL     1      -8.117   5.220  64.629  1.00  0.00    -0.122 A  
HETATM   30  C   UNL     1      -9.970   3.700  64.182  1.00  0.00    -0.192 A  
HETATM   31  C   UNL     1      -9.800   3.876  62.811  1.00  0.00    -0.146 A  
HETATM   32  C   UNL     1      -9.138   4.374  65.074  1.00  0.00    -0.150 A  
HETATM   33  C   UNL     1      -8.824   4.754  62.344  1.00  0.00    -0.123 A  
HETATM   34  F   UNL     1      -9.309   4.164  66.387  1.00  0.00    -0.131 F  
HETATM   35  C   UNL     1      -7.986   5.423  63.245  1.00  0.00    -0.099 A  
ENDBRANCH  28  29
ENDBRANCH  22  28
ENDBRANCH  12  19
ENDBRANCH   4   7
ENDBRANCH   2   3
TORSDOF 5
ENDMDL
MODEL      182
REMARK 921   NORMALIZED FREE ENERGY PREDICTED BY IDOCK:   -4.03 KCAL/MOL
REMARK 922        TOTAL FREE ENERGY PREDICTED BY IDOCK:   -6.01 KCAL/MOL
REMARK 923 INTER-LIGAND FREE ENERGY PREDICTED BY IDOCK:   -4.87 KCAL/MOL
REMARK 924 INTRA-LIGAND FREE ENERGY PREDICTED BY IDOCK:   -1.14 KCAL/MOL
REMARK 927      BINDING AFFINITY PREDICTED BY RF-SCORE:    0.00 PKD
ROOT
HETATM    1  C   UNL     1     -11.222  16.264  65.055  1.00  0.00    -0.176 C  
HETATM    2  O   UNL     1     -11.018  14.866  64.860  1.00  0.00    -0.381 OA 
ENDROOT
BRANCH   2   3
HETATM    3  C   UNL     1     -12.037  14.231  64.217  1.00  0.00    -0.441 C  
HETATM    4  N   UNL     1     -12.092  12.874  64.496  1.00  0.00    -0.389 N  
HETATM    5  O   UNL     1     -12.820  14.799  63.462  1.00  0.00    -0.486 OA 
HETATM    6  C   UNL     1     -13.139  12.038  63.942  1.00  0.00    -0.041 C  
BRANCH   4   7
HETATM    7  C   UNL     1     -11.221  12.277  65.448  1.00  0.00    -0.328 A  
HETATM    8  C   UNL     1     -11.537  12.223  66.803  1.00  0.00    -0.369 A  
HETATM    9  N   UNL     1     -12.645  12.888  67.332  1.00  0.00     0.216 NA 
HETATM   10  N   UNL     1     -10.764  11.600  67.698  1.00  0.00    -0.198 NA 
HETATM   11  H1  UNL     1     -12.877  12.849  68.324  1.00  0.00     0.000 HD 
HETATM   12  C   UNL     1      -9.635  11.032  67.234  1.00  0.00    -0.165 A  
HETATM   13  H2  UNL     1     -13.467  12.587  66.809  1.00  0.00     0.000 HD 
HETATM   14  N   UNL     1      -9.221  11.056  65.947  1.00  0.00    -0.193 NA 
HETATM   15  H2  UNL     1      -9.499  12.742  63.504  1.00  0.00     0.000 HD 
HETATM   16  H1  UNL     1      -8.669  11.317  63.485  1.00  0.00     0.000 HD 
HETATM   17  C   UNL     1     -10.024  11.678  65.072  1.00  0.00    -0.259 A  
HETATM   18  N   UNL     1      -9.547  11.757  63.761  1.00  0.00    -0.200 NA 
BRANCH  12  19
HETATM   19  C   UNL     1      -8.788  10.316  68.207  1.00  0.00    -0.126 A  
HETATM   20  C   UNL     1      -7.146   9.777  69.633  1.00  0.00    -0.083 A  
HETATM   21  N   UNL     1      -9.015   9.030  68.567  1.00  0.00    -0.133 NA 
HETATM   22  N   UNL     1      -8.044   8.761  69.475  1.00  0.00    -0.103 NA 
HETATM   23  C   UNL     1      -5.817  12.110  69.775  1.00  0.00    -0.123 A  
HETATM   24  N   UNL     1      -6.033   9.763  70.393  1.00  0.00    -0.060 NA 
HETATM   25  C   UNL     1      -7.640  10.835  68.884  1.00  0.00    -0.121 A  
HETATM   26  C   UNL     1      -5.398  10.955  70.424  1.00  0.00    -0.084 A  
HETATM   27  C   UNL     1      -6.957  12.061  68.973  1.00  0.00    -0.094 A  
BRANCH  22  28
HETATM   28  C   UNL     1      -7.987   7.464  70.133  1.00  0.00    -0.112 C  
BRANCH  28  29
HETATM   29  C   UNL     1      -7.611   6.328  69.210  1.00  0.00    -0.099 A  
HETATM   30  C   UNL     1      -5.916   5.254  67.826  1.00  0.00    -0.022 A  
HETATM   31  C   UNL     1      -6.893   4.472  67.215  1.00  0.00    -0.055 A  
HETATM   32  C   UNL     1      -6.279   6.164  68.817  1.00  0.00    -0.036 A  
HETATM   33  C   UNL     1      -8.220   4.580  67.626  1.00  0.00    -0.099 A  
HETATM   34  F   UNL     1      -5.320   6.920  69.369  1.00  0.00    -0.013 F  
HETATM   35  C   UNL     1      -8.580   5.502  68.617  1.00  0.00    -0.103 A  
ENDBRANCH  28  29
ENDBRANCH  22  28
ENDBRANCH  12  19
ENDBRANCH   4   7
ENDBRANCH   2   3
TORSDOF 5
ENDMDL
MODEL      183
REMARK 921   NORMALIZED FREE ENERGY PREDICTED BY IDOCK:   -4.01 KCAL/MOL
REMARK 922        TOTAL FREE ENERGY PREDICTED BY IDOCK:   -5.98 KCAL/MOL
REMARK 923 INTER-LIGAND FREE ENERGY PREDICTED BY IDOCK:   -4.94 KCAL/MOL
REMARK 924 INTRA-LIGAND FREE ENERGY PREDICTED BY IDOCK:   -1.05 KCAL/MOL
REMARK 927      BINDING AFFINITY PREDICTED BY RF-SCORE:    0.00 PKD
ROOT
HETATM    1  C   UNL     1     -11.875  15.515  69.386  1.00  0.00    -0.374 C  
HETATM    2  O   UNL     1     -10.496  15.365  69.054  1.00  0.00    -0.229 OA 
ENDROOT
BRANCH   2   3
HETATM    3  C   UNL     1     -10.042  16.241  68.115  1.00  0.00    -0.244 C  
HETATM    4  N   UNL     1      -9.196  15.651  67.189  1.00  0.00    -0.206 N  
HETATM    5  O   UNL     1     -10.343  17.430  68.097  1.00  0.00    -0.327 OA 
HETATM    6  C   UNL     1      -8.650  16.413  66.083  1.00  0.00    -0.308 C  
BRANCH   4   7
HETATM    7  C   UNL     1      -8.948  14.251  67.196  1.00  0.00    -0.225 A  
HETATM    8  C   UNL     1      -9.760  13.357  66.504  1.00  0.00    -0.282 A  
HETATM    9  N   UNL     1     -10.951  13.756  65.895  1.00  0.00    -0.282 NA 
HETATM   10  N   UNL     1      -9.497  12.047  66.440  1.00  0.00    -0.227 NA 
HETATM   11  H1  UNL     1     -11.546  13.101  65.388  1.00  0.00     0.000 HD 
HETATM   12  C   UNL     1      -8.406  11.615  67.101  1.00  0.00    -0.164 A  
HETATM   13  H2  UNL     1     -10.735  14.530  65.266  1.00  0.00     0.000 HD 
HETATM   14  N   UNL     1      -7.574  12.393  67.828  1.00  0.00    -0.122 NA 
HETATM   15  H2  UNL     1      -7.619  14.946  69.367  1.00  0.00     0.000 HD 
HETATM   16  H1  UNL     1      -6.231  14.079  69.165  1.00  0.00     0.000 HD 
HETATM   17  C   UNL     1      -7.858  13.703  67.862  1.00  0.00    -0.159 A  
HETATM   18  N   UNL     1      -7.031  14.482  68.676  1.00  0.00    -0.096 NA 
BRANCH  12  19
HETATM   19  C   UNL     1      -8.089  10.176  67.014  1.00  0.00    -0.117 A  
HETATM   20  C   UNL     1      -8.137   7.950  67.267  1.00  0.00    -0.118 A  
HETATM   21  N   UNL     1      -6.964   9.710  66.422  1.00  0.00    -0.087 NA 
HETATM   22  N   UNL     1      -7.059   8.362  66.536  1.00  0.00    -0.071 NA 
HETATM   23  C   UNL     1     -10.490   7.638  68.528  1.00  0.00    -0.206 A  
HETATM   24  N   UNL     1      -8.439   6.685  67.621  1.00  0.00    -0.121 NA 
HETATM   25  C   UNL     1      -8.874   9.096  67.528  1.00  0.00    -0.124 A  
HETATM   26  C   UNL     1      -9.626   6.584  68.260  1.00  0.00    -0.131 A  
HETATM   27  C   UNL     1     -10.114   8.933  68.171  1.00  0.00    -0.227 A  
BRANCH  22  28
HETATM   28  C   UNL     1      -6.036   7.498  65.967  1.00  0.00    -0.038 C  
BRANCH  28  29
HETATM   29  C   UNL     1      -6.512   6.685  64.787  1.00  0.00    -0.042 A  
HETATM   30  C   UNL     1      -7.542   6.642  62.577  1.00  0.00    -0.088 A  
HETATM   31  C   UNL     1      -7.751   5.269  62.688  1.00  0.00    -0.071 A  
HETATM   32  C   UNL     1      -6.922   7.333  63.617  1.00  0.00    -0.062 A  
HETATM   33  C   UNL     1      -7.304   4.593  63.822  1.00  0.00    -0.054 A  
HETATM   34  F   UNL     1      -6.757   8.657  63.492  1.00  0.00    -0.086 F  
HETATM   35  C   UNL     1      -6.689   5.294  64.866  1.00  0.00    -0.048 A  
ENDBRANCH  28  29
ENDBRANCH  22  28
ENDBRANCH  12  19
ENDBRANCH   4   7
ENDBRANCH   2   3
TORSDOF 5
ENDMDL
MODEL      184
REMARK 921   NORMALIZED FREE ENERGY PREDICTED BY IDOCK:   -4.00 KCAL/MOL
REMARK 922        TOTAL FREE ENERGY PREDICTED BY IDOCK:   -5.98 KCAL/MOL
REMARK 923 INTER-LIGAND FREE ENERGY PREDICTED BY IDOCK:   -5.54 KCAL/MOL
REMARK 924 INTRA-LIGAND FREE ENERGY PREDICTED BY IDOCK:   -0.44 KCAL/MOL
REMARK 927      BINDING AFFINITY PREDICTED BY RF-SCORE:    0.00 PKD
ROOT
HETATM    1  C   UNL     1     -11.330  16.389  67.585  1.00  0.00     0.032 C  
HETATM    2  O   UNL     1     -11.729  15.206  66.894  1.00  0.00    -0.244 OA 
ENDROOT
BRANCH   2   3
HETATM    3  C   UNL     1     -11.137  15.034  65.680  1.00  0.00    -0.349 C  
HETATM    4  N   UNL     1     -10.334  13.905  65.625  1.00  0.00    -0.313 N  
HETATM    5  O   UNL     1     -11.290  15.803  64.737  1.00  0.00    -0.392 OA 
HETATM    6  C   UNL     1      -9.657  13.529  64.399  1.00  0.00     1.011 C  
BRANCH   4   7
HETATM    7  C   UNL     1     -10.258  12.994  66.713  1.00  0.00    -0.246 A  
HETATM    8  C   UNL     1     -11.132  11.917  66.833  1.00  0.00    -0.305 A  
HETATM    9  N   UNL     1     -12.230  11.756  65.985  1.00  0.00    -0.089 NA 
HETATM   10  N   UNL     1     -11.027  11.010  67.810  1.00  0.00    -0.247 NA 
HETATM   11  H1  UNL     1     -12.871  10.967  66.073  1.00  0.00     0.000 HD 
HETATM   12  C   UNL     1     -10.035  11.192  68.702  1.00  0.00    -0.205 A  
HETATM   13  H2  UNL     1     -11.887  11.772  65.026  1.00  0.00     0.000 HD 
HETATM   14  N   UNL     1      -9.157  12.220  68.694  1.00  0.00    -0.055 NA 
HETATM   15  H2  UNL     1      -8.979  15.048  67.766  1.00  0.00     0.000 HD 
HETATM   16  H1  UNL     1      -7.696  14.281  68.465  1.00  0.00     0.000 HD 
HETATM   17  C   UNL     1      -9.281  13.105  67.696  1.00  0.00    -0.207 A  
HETATM   18  N   UNL     1      -8.413  14.199  67.744  1.00  0.00    -0.165 NA 
BRANCH  12  19
HETATM   19  C   UNL     1      -9.890  10.182  69.768  1.00  0.00    -0.208 A  
HETATM   20  C   UNL     1     -10.270   8.863  71.539  1.00  0.00    -0.328 A  
HETATM   21  N   UNL     1      -8.733   9.515  69.990  1.00  0.00    -0.203 NA 
HETATM   22  N   UNL     1      -9.019   8.683  71.023  1.00  0.00    -0.177 NA 
HETATM   23  C   UNL     1     -12.857   9.408  72.026  1.00  0.00    -0.496 A  
HETATM   24  N   UNL     1     -10.797   8.249  72.617  1.00  0.00    -0.346 NA 
HETATM   25  C   UNL     1     -10.895   9.774  70.700  1.00  0.00    -0.396 A  
HETATM   26  C   UNL     1     -12.095   8.563  72.823  1.00  0.00    -0.084 A  
HETATM   27  C   UNL     1     -12.254  10.045  70.942  1.00  0.00    -0.441 A  
BRANCH  22  28
HETATM   28  C   UNL     1      -8.015   7.757  71.526  1.00  0.00    -0.092 C  
BRANCH  28  29
HETATM   29  C   UNL     1      -8.575   6.417  71.939  1.00  0.00    -0.127 A  
HETATM   30  C   UNL     1      -8.645   4.613  73.578  1.00  0.00    -0.101 A  
HETATM   31  C   UNL     1      -9.269   3.780  72.653  1.00  0.00    -0.138 A  
HETATM   32  C   UNL     1      -8.311   5.918  73.219  1.00  0.00    -0.116 A  
HETATM   33  C   UNL     1      -9.589   4.271  71.388  1.00  0.00    -0.239 A  
HETATM   34  F   UNL     1      -7.688   6.687  74.122  1.00  0.00    -0.099 F  
HETATM   35  C   UNL     1      -9.245   5.580  71.031  1.00  0.00    -0.174 A  
ENDBRANCH  28  29
ENDBRANCH  22  28
ENDBRANCH  12  19
ENDBRANCH   4   7
ENDBRANCH   2   3
TORSDOF 5
ENDMDL
MODEL      185
REMARK 921   NORMALIZED FREE ENERGY PREDICTED BY IDOCK:   -4.00 KCAL/MOL
REMARK 922        TOTAL FREE ENERGY PREDICTED BY IDOCK:   -5.97 KCAL/MOL
REMARK 923 INTER-LIGAND FREE ENERGY PREDICTED BY IDOCK:   -5.48 KCAL/MOL
REMARK 924 INTRA-LIGAND FREE ENERGY PREDICTED BY IDOCK:   -0.49 KCAL/MOL
REMARK 927      BINDING AFFINITY PREDICTED BY RF-SCORE:    0.00 PKD
ROOT
HETATM    1  C   UNL     1      -7.158   7.512  65.276  1.00  0.00    -0.063 C  
HETATM    2  O   UNL     1      -6.670   7.909  66.556  1.00  0.00    -0.056 OA 
ENDROOT
BRANCH   2   3
HETATM    3  C   UNL     1      -7.243   7.258  67.606  1.00  0.00    -0.091 C  
HETATM    4  N   UNL     1      -7.795   8.120  68.541  1.00  0.00    -0.116 N  
HETATM    5  O   UNL     1      -7.259   6.036  67.718  1.00  0.00    -0.072 OA 
HETATM    6  C   UNL     1      -8.492   7.611  69.707  1.00  0.00    -0.134 C  
BRANCH   4   7
HETATM    7  C   UNL     1      -7.833   9.524  68.326  1.00  0.00    -0.086 A  
HETATM    8  C   UNL     1      -6.700  10.321  68.468  1.00  0.00    -0.057 A  
HETATM    9  N   UNL     1      -5.502   9.820  68.981  1.00  0.00    -0.036 NA 
HETATM   10  N   UNL     1      -6.702  11.630  68.197  1.00  0.00    -0.061 NA 
HETATM   11  H1  UNL     1      -4.672  10.403  69.085  1.00  0.00     0.000 HD 
HETATM   12  C   UNL     1      -7.870  12.164  67.793  1.00  0.00    -0.148 A  
HETATM   13  H2  UNL     1      -5.241   9.006  68.425  1.00  0.00     0.000 HD 
HETATM   14  N   UNL     1      -9.032  11.486  67.656  1.00  0.00    -0.156 NA 
HETATM   15  H2  UNL     1     -10.397   9.074  68.754  1.00  0.00     0.000 HD 
HETATM   16  H1  UNL     1     -11.070   9.979  67.551  1.00  0.00     0.000 HD 
HETATM   17  C   UNL     1      -8.994  10.173  67.923  1.00  0.00    -0.128 A  
HETATM   18  N   UNL     1     -10.218   9.503  67.846  1.00  0.00    -0.192 NA 
BRANCH  12  19
HETATM   19  C   UNL     1      -7.879  13.602  67.463  1.00  0.00    -0.177 A  
HETATM   20  C   UNL     1      -8.519  15.652  66.826  1.00  0.00    -0.272 A  
HETATM   21  N   UNL     1      -6.752  14.354  67.443  1.00  0.00    -0.275 NA 
HETATM   22  N   UNL     1      -7.186  15.597  67.118  1.00  0.00    -0.213 NA 
HETATM   23  C   UNL     1     -11.175  15.302  66.598  1.00  0.00    -0.232 A  
HETATM   24  N   UNL     1      -9.208  16.725  66.388  1.00  0.00    -0.264 NA 
HETATM   25  C   UNL     1      -9.020  14.391  67.115  1.00  0.00    -0.245 A  
HETATM   26  C   UNL     1     -10.536  16.494  66.282  1.00  0.00    -0.281 A  
HETATM   27  C   UNL     1     -10.411  14.212  67.015  1.00  0.00    -0.267 A  
BRANCH  22  28
HETATM   28  C   UNL     1      -6.251  16.710  67.042  1.00  0.00    -0.177 C  
BRANCH  28  29
HETATM   29  C   UNL     1      -6.333  17.657  68.215  1.00  0.00    -0.183 A  
HETATM   30  C   UNL     1      -6.871  19.884  69.051  1.00  0.00    -0.343 A  
HETATM   31  C   UNL     1      -6.200  19.612  70.241  1.00  0.00    -0.274 A  
HETATM   32  C   UNL     1      -6.939  18.908  68.057  1.00  0.00    -0.232 A  
HETATM   33  C   UNL     1      -5.634  18.355  70.442  1.00  0.00    -0.212 A  
HETATM   34  F   UNL     1      -7.569  19.208  66.913  1.00  0.00    -0.224 F  
HETATM   35  C   UNL     1      -5.698  17.382  69.437  1.00  0.00    -0.210 A  
ENDBRANCH  28  29
ENDBRANCH  22  28
ENDBRANCH  12  19
ENDBRANCH   4   7
ENDBRANCH   2   3
TORSDOF 5
ENDMDL
MODEL      186
REMARK 921   NORMALIZED FREE ENERGY PREDICTED BY IDOCK:   -3.99 KCAL/MOL
REMARK 922        TOTAL FREE ENERGY PREDICTED BY IDOCK:   -5.97 KCAL/MOL
REMARK 923 INTER-LIGAND FREE ENERGY PREDICTED BY IDOCK:   -5.91 KCAL/MOL
REMARK 924 INTRA-LIGAND FREE ENERGY PREDICTED BY IDOCK:   -0.05 KCAL/MOL
REMARK 927      BINDING AFFINITY PREDICTED BY RF-SCORE:    0.00 PKD
ROOT
HETATM    1  C   UNL     1      -6.647  16.751  69.999  1.00  0.00     0.243 C  
HETATM    2  O   UNL     1      -6.835  17.273  68.685  1.00  0.00    -0.187 OA 
ENDROOT
BRANCH   2   3
HETATM    3  C   UNL     1      -7.929  18.072  68.545  1.00  0.00    -0.303 C  
HETATM    4  N   UNL     1      -9.076  17.367  68.217  1.00  0.00    -0.264 N  
HETATM    5  O   UNL     1      -7.899  19.290  68.685  1.00  0.00    -0.338 OA 
HETATM    6  C   UNL     1     -10.352  18.040  68.073  1.00  0.00    -0.387 C  
BRANCH   4   7
HETATM    7  C   UNL     1      -9.082  15.946  68.155  1.00  0.00    -0.182 A  
HETATM    8  C   UNL     1      -8.343  15.249  67.204  1.00  0.00    -0.216 A  
HETATM    9  N   UNL     1      -7.680  15.897  66.160  1.00  0.00     0.011 NA 
HETATM   10  N   UNL     1      -8.280  13.913  67.179  1.00  0.00    -0.150 NA 
HETATM   11  H1  UNL     1      -7.138  15.386  65.463  1.00  0.00     0.000 HD 
HETATM   12  C   UNL     1      -8.990  13.255  68.115  1.00  0.00    -0.195 A  
HETATM   13  H2  UNL     1      -7.070  16.604  66.570  1.00  0.00     0.000 HD 
HETATM   14  N   UNL     1      -9.764  13.836  69.059  1.00  0.00     0.049 NA 
HETATM   15  H2  UNL     1     -11.323  16.340  69.493  1.00  0.00     0.000 HD 
HETATM   16  H1  UNL     1     -11.181  15.192  70.668  1.00  0.00     0.000 HD 
HETATM   17  C   UNL     1      -9.796  15.176  69.065  1.00  0.00    -0.238 A  
HETATM   18  N   UNL     1     -10.657  15.757  70.000  1.00  0.00    -0.313 NA 
BRANCH  12  19
HETATM   19  C   UNL     1      -8.905  11.782  68.117  1.00  0.00    -0.169 A  
HETATM   20  C   UNL     1      -9.007   9.628  67.510  1.00  0.00    -0.128 A  
HETATM   21  N   UNL     1      -8.599  11.068  69.227  1.00  0.00     0.004 NA 
HETATM   22  N   UNL     1      -8.607   9.778  68.807  1.00  0.00    -0.122 NA 
HETATM   23  C   UNL     1      -9.593   9.867  64.898  1.00  0.00    -0.356 A  
HETATM   24  N   UNL     1      -9.197   8.467  66.852  1.00  0.00    -0.148 NA 
HETATM   25  C   UNL     1      -9.134  10.913  67.004  1.00  0.00    -0.158 A  
HETATM   26  C   UNL     1      -9.498   8.643  65.546  1.00  0.00     0.052 A  
HETATM   27  C   UNL     1      -9.421  11.040  65.633  1.00  0.00    -0.250 A  
BRANCH  22  28
HETATM   28  C   UNL     1      -8.275   8.701  69.727  1.00  0.00    -0.121 C  
BRANCH  28  29
HETATM   29  C   UNL     1      -9.467   8.136  70.461  1.00  0.00    -0.168 A  
HETATM   30  C   UNL     1     -11.304   6.533  70.512  1.00  0.00    -0.426 A  
HETATM   31  C   UNL     1     -11.903   7.234  71.555  1.00  0.00    -0.335 A  
HETATM   32  C   UNL     1     -10.096   6.981  69.981  1.00  0.00    -0.187 A  
HETATM   33  C   UNL     1     -11.270   8.357  72.085  1.00  0.00    -0.431 A  
HETATM   34  F   UNL     1      -9.557   6.300  68.961  1.00  0.00    -0.128 F  
HETATM   35  C   UNL     1     -10.060   8.807  71.543  1.00  0.00    -0.371 A  
ENDBRANCH  28  29
ENDBRANCH  22  28
ENDBRANCH  12  19
ENDBRANCH   4   7
ENDBRANCH   2   3
TORSDOF 5
ENDMDL
MODEL      187
REMARK 921   NORMALIZED FREE ENERGY PREDICTED BY IDOCK:   -3.99 KCAL/MOL
REMARK 922        TOTAL FREE ENERGY PREDICTED BY IDOCK:   -5.96 KCAL/MOL
REMARK 923 INTER-LIGAND FREE ENERGY PREDICTED BY IDOCK:   -5.31 KCAL/MOL
REMARK 924 INTRA-LIGAND FREE ENERGY PREDICTED BY IDOCK:   -0.65 KCAL/MOL
REMARK 927      BINDING AFFINITY PREDICTED BY RF-SCORE:    0.00 PKD
ROOT
HETATM    1  C   UNL     1      -8.566  16.589  66.184  1.00  0.00    -0.299 C  
HETATM    2  O   UNL     1      -9.319  15.409  66.456  1.00  0.00    -0.240 OA 
ENDROOT
BRANCH   2   3
HETATM    3  C   UNL     1     -10.623  15.468  66.069  1.00  0.00    -0.325 C  
HETATM    4  N   UNL     1     -11.200  14.218  65.914  1.00  0.00    -0.313 N  
HETATM    5  O   UNL     1     -11.222  16.520  65.867  1.00  0.00     0.092 OA 
HETATM    6  C   UNL     1     -12.597  14.078  65.551  1.00  0.00    -0.516 C  
BRANCH   4   7
HETATM    7  C   UNL     1     -10.495  13.029  66.246  1.00  0.00    -0.276 A  
HETATM    8  C   UNL     1      -9.742  12.332  65.304  1.00  0.00    -0.113 A  
HETATM    9  N   UNL     1      -9.761  12.666  63.948  1.00  0.00    -0.677 NA 
HETATM   10  N   UNL     1      -9.015  11.255  65.617  1.00  0.00    -0.194 NA 
HETATM   11  H1  UNL     1      -9.209  12.156  63.258  1.00  0.00     0.000 HD 
HETATM   12  C   UNL     1      -9.055  10.850  66.901  1.00  0.00    -0.154 A  
HETATM   13  H2  UNL     1      -9.522  13.654  63.868  1.00  0.00     0.000 HD 
HETATM   14  N   UNL     1      -9.778  11.433  67.882  1.00  0.00    -0.175 NA 
HETATM   15  H2  UNL     1     -12.250  13.067  68.216  1.00  0.00     0.000 HD 
HETATM   16  H1  UNL     1     -11.279  12.691  69.496  1.00  0.00     0.000 HD 
HETATM   17  C   UNL     1     -10.487  12.518  67.538  1.00  0.00    -0.219 A  
HETATM   18  N   UNL     1     -11.285  13.065  68.547  1.00  0.00    -0.256 NA 
BRANCH  12  19
HETATM   19  C   UNL     1      -8.233   9.680  67.266  1.00  0.00    -0.114 A  
HETATM   20  C   UNL     1      -6.899   8.255  68.367  1.00  0.00    -0.065 A  
HETATM   21  N   UNL     1      -7.959   8.678  66.396  1.00  0.00    -0.098 NA 
HETATM   22  N   UNL     1      -7.206   7.808  67.114  1.00  0.00    -0.088 NA 
HETATM   23  C   UNL     1      -6.780   9.438  70.778  1.00  0.00    -0.105 A  
HETATM   24  N   UNL     1      -6.098   7.651  69.268  1.00  0.00    -0.033 NA 
HETATM   25  C   UNL     1      -7.613   9.433  68.531  1.00  0.00    -0.081 A  
HETATM   26  C   UNL     1      -6.067   8.290  70.459  1.00  0.00    -0.032 A  
HETATM   27  C   UNL     1      -7.568  10.043  69.798  1.00  0.00    -0.167 A  
BRANCH  22  28
HETATM   28  C   UNL     1      -6.749   6.561  66.518  1.00  0.00    -0.056 C  
BRANCH  28  29
HETATM   29  C   UNL     1      -7.652   5.384  66.799  1.00  0.00    -0.088 A  
HETATM   30  C   UNL     1      -9.082   3.611  65.929  1.00  0.00    -0.153 A  
HETATM   31  C   UNL     1      -9.619   3.405  67.197  1.00  0.00    -0.124 A  
HETATM   32  C   UNL     1      -8.104   4.587  65.742  1.00  0.00    -0.102 A  
HETATM   33  C   UNL     1      -9.147   4.151  68.275  1.00  0.00    -0.176 A  
HETATM   34  F   UNL     1      -7.624   4.779  64.505  1.00  0.00    -0.067 F  
HETATM   35  C   UNL     1      -8.170   5.135  68.081  1.00  0.00    -0.097 A  
ENDBRANCH  28  29
ENDBRANCH  22  28
ENDBRANCH  12  19
ENDBRANCH   4   7
ENDBRANCH   2   3
TORSDOF 5
ENDMDL
MODEL      188
REMARK 921   NORMALIZED FREE ENERGY PREDICTED BY IDOCK:   -3.98 KCAL/MOL
REMARK 922        TOTAL FREE ENERGY PREDICTED BY IDOCK:   -5.95 KCAL/MOL
REMARK 923 INTER-LIGAND FREE ENERGY PREDICTED BY IDOCK:   -5.50 KCAL/MOL
REMARK 924 INTRA-LIGAND FREE ENERGY PREDICTED BY IDOCK:   -0.45 KCAL/MOL
REMARK 927      BINDING AFFINITY PREDICTED BY RF-SCORE:    0.00 PKD
ROOT
HETATM    1  C   UNL     1     -10.686   5.741  67.208  1.00  0.00    -0.261 C  
HETATM    2  O   UNL     1      -9.900   6.451  66.253  1.00  0.00    -0.110 OA 
ENDROOT
BRANCH   2   3
HETATM    3  C   UNL     1      -8.713   5.859  65.944  1.00  0.00    -0.150 C  
HETATM    4  N   UNL     1      -7.640   6.735  66.000  1.00  0.00    -0.084 N  
HETATM    5  O   UNL     1      -8.607   4.675  65.639  1.00  0.00    -0.119 OA 
HETATM    6  C   UNL     1      -6.287   6.277  65.749  1.00  0.00    -0.038 C  
BRANCH   4   7
HETATM    7  C   UNL     1      -7.798   8.075  66.446  1.00  0.00    -0.097 A  
HETATM    8  C   UNL     1      -7.499   8.456  67.752  1.00  0.00    -0.098 A  
HETATM    9  N   UNL     1      -7.180   7.523  68.741  1.00  0.00    -0.080 NA 
HETATM   10  N   UNL     1      -7.572   9.725  68.166  1.00  0.00    -0.082 NA 
HETATM   11  H1  UNL     1      -6.961   7.802  69.697  1.00  0.00     0.000 HD 
HETATM   12  C   UNL     1      -7.973  10.637  67.259  1.00  0.00    -0.116 A  
HETATM   13  H2  UNL     1      -6.404   6.959  68.396  1.00  0.00     0.000 HD 
HETATM   14  N   UNL     1      -8.318  10.366  65.981  1.00  0.00    -0.143 NA 
HETATM   15  H2  UNL     1      -9.394   8.118  64.346  1.00  0.00     0.000 HD 
HETATM   16  H1  UNL     1      -8.963   9.557  63.664  1.00  0.00     0.000 HD 
HETATM   17  C   UNL     1      -8.222   9.087  65.593  1.00  0.00    -0.119 A  
HETATM   18  N   UNL     1      -8.651   8.814  64.291  1.00  0.00    -0.122 NA 
BRANCH  12  19
HETATM   19  C   UNL     1      -8.030  12.045  67.696  1.00  0.00    -0.150 A  
HETATM   20  C   UNL     1      -7.626  13.982  68.746  1.00  0.00    -0.113 A  
HETATM   21  N   UNL     1      -8.996  12.900  67.284  1.00  0.00    -0.199 NA 
HETATM   22  N   UNL     1      -8.683  14.074  67.886  1.00  0.00    -0.174 NA 
HETATM   23  C   UNL     1      -5.387  13.364  70.100  1.00  0.00    -0.105 A  
HETATM   24  N   UNL     1      -7.147  14.956  69.548  1.00  0.00    -0.174 NA 
HETATM   25  C   UNL     1      -7.125  12.698  68.591  1.00  0.00    -0.096 A  
HETATM   26  C   UNL     1      -6.028  14.591  70.212  1.00  0.00    -0.158 A  
HETATM   27  C   UNL     1      -5.943  12.379  69.283  1.00  0.00    -0.092 A  
BRANCH  22  28
HETATM   28  C   UNL     1      -9.483  15.266  67.645  1.00  0.00    -0.205 C  
BRANCH  28  29
HETATM   29  C   UNL     1     -10.631  15.045  66.689  1.00  0.00    -0.301 A  
HETATM   30  C   UNL     1     -12.706  13.873  66.173  1.00  0.00    -0.336 A  
HETATM   31  C   UNL     1     -12.626  14.289  64.847  1.00  0.00    -0.339 A  
HETATM   32  C   UNL     1     -11.719  14.258  67.079  1.00  0.00    -0.403 A  
HETATM   33  C   UNL     1     -11.579  15.118  64.446  1.00  0.00    -0.275 A  
HETATM   34  F   UNL     1     -11.810  13.820  68.343  1.00  0.00    -0.332 F  
HETATM   35  C   UNL     1     -10.586  15.494  65.359  1.00  0.00    -0.428 A  
ENDBRANCH  28  29
ENDBRANCH  22  28
ENDBRANCH  12  19
ENDBRANCH   4   7
ENDBRANCH   2   3
TORSDOF 5
ENDMDL
MODEL      189
REMARK 921   NORMALIZED FREE ENERGY PREDICTED BY IDOCK:   -3.87 KCAL/MOL
REMARK 922        TOTAL FREE ENERGY PREDICTED BY IDOCK:   -5.81 KCAL/MOL
REMARK 923 INTER-LIGAND FREE ENERGY PREDICTED BY IDOCK:   -4.92 KCAL/MOL
REMARK 924 INTRA-LIGAND FREE ENERGY PREDICTED BY IDOCK:   -0.89 KCAL/MOL
REMARK 927      BINDING AFFINITY PREDICTED BY RF-SCORE:    0.00 PKD
ROOT
HETATM    1  C   UNL     1     -11.122  11.810  63.154  1.00  0.00    -0.164 C  
HETATM    2  O   UNL     1     -11.288  11.703  64.566  1.00  0.00    -0.308 OA 
ENDROOT
BRANCH   2   3
HETATM    3  C   UNL     1     -11.175  12.882  65.239  1.00  0.00    -0.288 C  
HETATM    4  N   UNL     1     -10.680  12.727  66.524  1.00  0.00    -0.256 N  
HETATM    5  O   UNL     1     -11.489  13.967  64.760  1.00  0.00    -0.340 OA 
HETATM    6  C   UNL     1     -10.444  13.874  67.379  1.00  0.00    -0.263 C  
BRANCH   4   7
HETATM    7  C   UNL     1     -10.245  11.461  67.004  1.00  0.00    -0.213 A  
HETATM    8  C   UNL     1     -11.058  10.656  67.797  1.00  0.00    -0.321 A  
HETATM    9  N   UNL     1     -12.281  11.104  68.299  1.00  0.00    -0.709 NA 
HETATM   10  N   UNL     1     -10.692   9.433  68.194  1.00  0.00    -0.209 NA 
HETATM   11  H1  UNL     1     -12.877  10.515  68.879  1.00  0.00     0.000 HD 
HETATM   12  C   UNL     1      -9.473   9.009  67.807  1.00  0.00    -0.141 A  
HETATM   13  H2  UNL     1     -12.840  11.430  67.510  1.00  0.00     0.000 HD 
HETATM   14  N   UNL     1      -8.596   9.725  67.068  1.00  0.00    -0.124 NA 
HETATM   15  H2  UNL     1      -7.905  12.566  66.486  1.00  0.00     0.000 HD 
HETATM   16  H1  UNL     1      -7.138  11.314  65.734  1.00  0.00     0.000 HD 
HETATM   17  C   UNL     1      -8.998  10.942  66.676  1.00  0.00    -0.164 A  
HETATM   18  N   UNL     1      -8.053  11.695  65.975  1.00  0.00     0.116 NA 
BRANCH  12  19
HETATM   19  C   UNL     1      -9.069   7.649  68.215  1.00  0.00    -0.136 A  
HETATM   20  C   UNL     1      -7.944   5.915  69.077  1.00  0.00    -0.099 A  
HETATM   21  N   UNL     1      -9.741   6.540  67.825  1.00  0.00    -0.121 NA 
HETATM   22  N   UNL     1      -9.072   5.519  68.417  1.00  0.00    -0.110 NA 
HETATM   23  C   UNL     1      -6.004   7.194  70.428  1.00  0.00    -0.024 A  
HETATM   24  N   UNL     1      -7.038   5.119  69.679  1.00  0.00    -0.054 NA 
HETATM   25  C   UNL     1      -7.951   7.301  69.035  1.00  0.00    -0.119 A  
HETATM   26  C   UNL     1      -6.080   5.811  70.335  1.00  0.00    -0.026 A  
HETATM   27  C   UNL     1      -6.948   7.972  69.757  1.00  0.00    -0.052 A  
BRANCH  22  28
HETATM   28  C   UNL     1      -9.532   4.147  68.264  1.00  0.00    -0.154 C  
BRANCH  28  29
HETATM   29  C   UNL     1      -8.913   3.423  67.092  1.00  0.00    -0.173 A  
HETATM   30  C   UNL     1      -7.485   1.617  66.288  1.00  0.00    -0.061 A  
HETATM   31  C   UNL     1      -7.426   2.209  65.029  1.00  0.00    -0.066 A  
HETATM   32  C   UNL     1      -8.229   2.220  67.301  1.00  0.00    -0.073 A  
HETATM   33  C   UNL     1      -8.142   3.379  64.782  1.00  0.00    -0.090 A  
HETATM   34  F   UNL     1      -8.246   1.641  68.510  1.00  0.00    -0.056 F  
HETATM   35  C   UNL     1      -8.881   3.984  65.805  1.00  0.00    -0.123 A  
ENDBRANCH  28  29
ENDBRANCH  22  28
ENDBRANCH  12  19
ENDBRANCH   4   7
ENDBRANCH   2   3
TORSDOF 5
ENDMDL
MODEL      190
REMARK 921   NORMALIZED FREE ENERGY PREDICTED BY IDOCK:   -3.82 KCAL/MOL
REMARK 922        TOTAL FREE ENERGY PREDICTED BY IDOCK:   -5.74 KCAL/MOL
REMARK 923 INTER-LIGAND FREE ENERGY PREDICTED BY IDOCK:   -5.76 KCAL/MOL
REMARK 924 INTRA-LIGAND FREE ENERGY PREDICTED BY IDOCK:    0.02 KCAL/MOL
REMARK 927      BINDING AFFINITY PREDICTED BY RF-SCORE:    0.00 PKD
ROOT
HETATM    1  C   UNL     1     -10.959  15.423  69.475  1.00  0.00    -0.275 C  
HETATM    2  O   UNL     1     -11.029  13.999  69.420  1.00  0.00    -0.231 OA 
ENDROOT
BRANCH   2   3
HETATM    3  C   UNL     1     -11.923  13.444  70.284  1.00  0.00    -0.308 C  
HETATM    4  N   UNL     1     -12.092  12.082  70.088  1.00  0.00    -0.321 N  
HETATM    5  O   UNL     1     -12.524  14.084  71.141  1.00  0.00    -0.334 OA 
HETATM    6  C   UNL     1     -12.969  11.306  70.942  1.00  0.00    -0.147 C  
BRANCH   4   7
HETATM    7  C   UNL     1     -11.307  11.365  69.144  1.00  0.00    -0.288 A  
HETATM    8  C   UNL     1     -10.340  10.445  69.539  1.00  0.00    -0.237 A  
HETATM    9  N   UNL     1      -9.971  10.286  70.876  1.00  0.00     0.039 NA 
HETATM   10  N   UNL     1      -9.645   9.710  68.664  1.00  0.00    -0.148 NA 
HETATM   11  H1  UNL     1      -9.262   9.612  71.166  1.00  0.00     0.000 HD 
HETATM   12  C   UNL     1      -9.909   9.912  67.359  1.00  0.00    -0.179 A  
HETATM   13  H2  UNL     1     -10.818  10.096  71.411  1.00  0.00     0.000 HD 
HETATM   14  N   UNL     1     -10.802  10.802  66.871  1.00  0.00    -0.254 NA 
HETATM   15  H2  UNL     1     -12.080  13.386  67.633  1.00  0.00     0.000 HD 
HETATM   16  H1  UNL     1     -12.490  12.590  66.247  1.00  0.00     0.000 HD 
HETATM   17  C   UNL     1     -11.490  11.515  67.774  1.00  0.00    -0.286 A  
HETATM   18  N   UNL     1     -12.355  12.480  67.253  1.00  0.00    -0.232 NA 
BRANCH  12  19
HETATM   19  C   UNL     1      -9.170   9.086  66.384  1.00  0.00    -0.188 A  
HETATM   20  C   UNL     1      -8.359   8.226  64.481  1.00  0.00    -0.087 A  
HETATM   21  N   UNL     1      -8.454   7.995  66.745  1.00  0.00    -0.125 NA 
HETATM   22  N   UNL     1      -7.927   7.540  65.581  1.00  0.00    -0.110 NA 
HETATM   23  C   UNL     1      -9.279  10.007  62.690  1.00  0.00    -0.317 A  
HETATM   24  N   UNL     1      -8.078   7.947  63.192  1.00  0.00    -0.133 NA 
HETATM   25  C   UNL     1      -9.107   9.287  64.969  1.00  0.00    -0.245 A  
HETATM   26  C   UNL     1      -8.571   8.867  62.333  1.00  0.00    -0.208 A  
HETATM   27  C   UNL     1      -9.572  10.230  64.036  1.00  0.00    -0.365 A  
BRANCH  22  28
HETATM   28  C   UNL     1      -7.044   6.384  65.571  1.00  0.00    -0.065 C  
BRANCH  28  29
HETATM   29  C   UNL     1      -7.764   5.068  65.398  1.00  0.00    -0.087 A  
HETATM   30  C   UNL     1      -8.638   3.363  63.889  1.00  0.00    -0.090 A  
HETATM   31  C   UNL     1      -9.391   2.816  64.925  1.00  0.00    -0.139 A  
HETATM   32  C   UNL     1      -7.830   4.472  64.134  1.00  0.00    -0.086 A  
HETATM   33  C   UNL     1      -9.302   3.359  66.205  1.00  0.00    -0.157 A  
HETATM   34  F   UNL     1      -7.137   4.992  63.111  1.00  0.00    -0.039 F  
HETATM   35  C   UNL     1      -8.495   4.479  66.443  1.00  0.00    -0.112 A  
ENDBRANCH  28  29
ENDBRANCH  22  28
ENDBRANCH  12  19
ENDBRANCH   4   7
ENDBRANCH   2   3
TORSDOF 5
ENDMDL
MODEL      191
REMARK 921   NORMALIZED FREE ENERGY PREDICTED BY IDOCK:   -3.71 KCAL/MOL
REMARK 922        TOTAL FREE ENERGY PREDICTED BY IDOCK:   -5.60 KCAL/MOL
REMARK 923 INTER-LIGAND FREE ENERGY PREDICTED BY IDOCK:   -5.28 KCAL/MOL
REMARK 924 INTRA-LIGAND FREE ENERGY PREDICTED BY IDOCK:   -0.31 KCAL/MOL
REMARK 927      BINDING AFFINITY PREDICTED BY RF-SCORE:    0.00 PKD
ROOT
HETATM    1  C   UNL     1     -12.075  14.270  70.778  1.00  0.00    -0.348 C  
HETATM    2  O   UNL     1     -11.740  12.887  70.686  1.00  0.00    -0.098 OA 
ENDROOT
BRANCH   2   3
HETATM    3  C   UNL     1     -12.644  12.047  71.261  1.00  0.00    -0.252 C  
HETATM    4  N   UNL     1     -12.536  10.742  70.807  1.00  0.00    -0.363 N  
HETATM    5  O   UNL     1     -13.475  12.410  72.088  1.00  0.00    -0.525 OA 
HETATM    6  C   UNL     1     -13.384   9.693  71.339  1.00  0.00    -0.368 C  
BRANCH   4   7
HETATM    7  C   UNL     1     -11.500  10.349  69.917  1.00  0.00    -0.297 A  
HETATM    8  C   UNL     1     -10.465   9.508  70.318  1.00  0.00    -0.268 A  
HETATM    9  N   UNL     1     -10.293   9.129  71.651  1.00  0.00    -0.348 NA 
HETATM   10  N   UNL     1      -9.525   9.071  69.475  1.00  0.00    -0.161 NA 
HETATM   11  H1  UNL     1      -9.535   8.514  71.945  1.00  0.00     0.000 HD 
HETATM   12  C   UNL     1      -9.607   9.499  68.200  1.00  0.00    -0.137 A  
HETATM   13  H2  UNL     1     -11.169   8.719  71.973  1.00  0.00     0.000 HD 
HETATM   14  N   UNL     1     -10.549  10.340  67.719  1.00  0.00    -0.230 NA 
HETATM   15  H2  UNL     1     -12.356  12.512  68.672  1.00  0.00     0.000 HD 
HETATM   16  H1  UNL     1     -12.396  11.970  67.114  1.00  0.00     0.000 HD 
HETATM   17  C   UNL     1     -11.485  10.751  68.587  1.00  0.00    -0.295 A  
HETATM   18  N   UNL     1     -12.408  11.675  68.091  1.00  0.00    -0.253 NA 
BRANCH  12  19
HETATM   19  C   UNL     1      -8.592   9.000  67.252  1.00  0.00    -0.114 A  
HETATM   20  C   UNL     1      -6.837   8.860  65.867  1.00  0.00    -0.072 A  
HETATM   21  N   UNL     1      -8.658   7.769  66.692  1.00  0.00    -0.130 NA 
HETATM   22  N   UNL     1      -7.550   7.696  65.913  1.00  0.00    -0.088 NA 
HETATM   23  C   UNL     1      -5.666  11.242  66.295  1.00  0.00    -0.125 A  
HETATM   24  N   UNL     1      -5.749   9.113  65.112  1.00  0.00    -0.053 NA 
HETATM   25  C   UNL     1      -7.439   9.707  66.786  1.00  0.00    -0.094 A  
HETATM   26  C   UNL     1      -5.205  10.325  65.359  1.00  0.00    -0.080 A  
HETATM   27  C   UNL     1      -6.817  10.945  67.025  1.00  0.00    -0.100 A  
BRANCH  22  28
HETATM   28  C   UNL     1      -7.247   6.482  65.170  1.00  0.00    -0.070 C  
BRANCH  28  29
HETATM   29  C   UNL     1      -6.872   5.310  66.046  1.00  0.00    -0.061 A  
HETATM   30  C   UNL     1      -7.577   3.312  67.254  1.00  0.00    -0.074 A  
HETATM   31  C   UNL     1      -6.373   3.294  67.952  1.00  0.00    -0.036 A  
HETATM   32  C   UNL     1      -7.813   4.308  66.307  1.00  0.00    -0.095 A  
HETATM   33  C   UNL     1      -5.399   4.251  67.672  1.00  0.00    -0.012 A  
HETATM   34  F   UNL     1      -8.992   4.314  65.669  1.00  0.00    -0.119 F  
HETATM   35  C   UNL     1      -5.644   5.254  66.726  1.00  0.00    -0.017 A  
ENDBRANCH  28  29
ENDBRANCH  22  28
ENDBRANCH  12  19
ENDBRANCH   4   7
ENDBRANCH   2   3
TORSDOF 5
ENDMDL
MODEL      192
REMARK 921   NORMALIZED FREE ENERGY PREDICTED BY IDOCK:   -3.63 KCAL/MOL
REMARK 922        TOTAL FREE ENERGY PREDICTED BY IDOCK:   -5.49 KCAL/MOL
REMARK 923 INTER-LIGAND FREE ENERGY PREDICTED BY IDOCK:   -4.88 KCAL/MOL
REMARK 924 INTRA-LIGAND FREE ENERGY PREDICTED BY IDOCK:   -0.61 KCAL/MOL
REMARK 927      BINDING AFFINITY PREDICTED BY RF-SCORE:    0.00 PKD
ROOT
HETATM    1  C   UNL     1      -7.930  12.176  68.949  1.00  0.00     0.096 C  
HETATM    2  O   UNL     1      -7.771  12.338  67.541  1.00  0.00    -0.137 OA 
ENDROOT
BRANCH   2   3
HETATM    3  C   UNL     1      -8.721  13.115  66.951  1.00  0.00    -0.148 C  
HETATM    4  N   UNL     1      -9.758  12.378  66.400  1.00  0.00    -0.236 N  
HETATM    5  O   UNL     1      -8.660  14.339  66.903  1.00  0.00    -0.209 OA 
HETATM    6  C   UNL     1     -10.887  13.032  65.769  1.00  0.00    -0.272 C  
BRANCH   4   7
HETATM    7  C   UNL     1      -9.832  10.967  66.559  1.00  0.00    -0.204 A  
HETATM    8  C   UNL     1      -9.000  10.102  65.853  1.00  0.00    -0.157 A  
HETATM    9  N   UNL     1      -8.157  10.552  64.835  1.00  0.00    -0.283 NA 
HETATM   10  N   UNL     1      -9.007   8.779  66.045  1.00  0.00    -0.179 NA 
HETATM   11  H1  UNL     1      -7.547   9.919  64.317  1.00  0.00     0.000 HD 
HETATM   12  C   UNL     1      -9.881   8.303  66.953  1.00  0.00    -0.247 A  
HETATM   13  H2  UNL     1      -7.576  11.298  65.219  1.00  0.00     0.000 HD 
HETATM   14  N   UNL     1     -10.752   9.052  67.665  1.00  0.00    -0.222 NA 
HETATM   15  H2  UNL     1     -12.219  11.639  67.459  1.00  0.00     0.000 HD 
HETATM   16  H1  UNL     1     -12.314  10.692  68.807  1.00  0.00     0.000 HD 
HETATM   17  C   UNL     1     -10.712  10.375  67.457  1.00  0.00    -0.287 A  
HETATM   18  N   UNL     1     -11.668  11.126  68.147  1.00  0.00    -0.547 NA 
BRANCH  12  19
HETATM   19  C   UNL     1      -9.877   6.848  67.196  1.00  0.00    -0.165 A  
HETATM   20  C   UNL     1      -9.805   4.839  68.186  1.00  0.00    -0.120 A  
HETATM   21  N   UNL     1      -9.856   5.939  66.192  1.00  0.00    -0.072 NA 
HETATM   22  N   UNL     1      -9.878   4.740  66.826  1.00  0.00    -0.188 NA 
HETATM   23  C   UNL     1      -9.900   5.551  70.777  1.00  0.00    -0.247 A  
HETATM   24  N   UNL     1      -9.717   3.823  69.068  1.00  0.00    -0.107 NA 
HETATM   25  C   UNL     1      -9.882   6.195  68.469  1.00  0.00    -0.157 A  
HETATM   26  C   UNL     1      -9.761   4.235  70.355  1.00  0.00    -0.209 A  
HETATM   27  C   UNL     1      -9.951   6.568  69.823  1.00  0.00    -0.189 A  
BRANCH  22  28
HETATM   28  C   UNL     1      -9.910   3.501  66.063  1.00  0.00     0.059 C  
BRANCH  28  29
HETATM   29  C   UNL     1      -8.548   3.028  65.612  1.00  0.00    -0.115 A  
HETATM   30  C   UNL     1      -6.918   2.812  63.811  1.00  0.00    -0.040 A  
HETATM   31  C   UNL     1      -6.194   1.889  64.561  1.00  0.00    -0.018 A  
HETATM   32  C   UNL     1      -8.077   3.377  64.341  1.00  0.00    -0.086 A  
HETATM   33  C   UNL     1      -6.615   1.565  65.850  1.00  0.00    -0.023 A  
HETATM   34  F   UNL     1      -8.767   4.243  63.586  1.00  0.00    -0.102 F  
HETATM   35  C   UNL     1      -7.784   2.129  66.374  1.00  0.00    -0.071 A  
ENDBRANCH  28  29
ENDBRANCH  22  28
ENDBRANCH  12  19
ENDBRANCH   4   7
ENDBRANCH   2   3
TORSDOF 5
ENDMDL
MODEL      193
REMARK 921   NORMALIZED FREE ENERGY PREDICTED BY IDOCK:   -3.36 KCAL/MOL
REMARK 922        TOTAL FREE ENERGY PREDICTED BY IDOCK:   -5.14 KCAL/MOL
REMARK 923 INTER-LIGAND FREE ENERGY PREDICTED BY IDOCK:   -5.06 KCAL/MOL
REMARK 924 INTRA-LIGAND FREE ENERGY PREDICTED BY IDOCK:   -0.08 KCAL/MOL
REMARK 927      BINDING AFFINITY PREDICTED BY RF-SCORE:    0.00 PKD
ROOT
HETATM    1  C   UNL     1      -7.519   4.415  69.238  1.00  0.00    -0.055 C  
HETATM    2  O   UNL     1      -7.991   5.462  70.085  1.00  0.00    -0.082 OA 
ENDROOT
BRANCH   2   3
HETATM    3  C   UNL     1      -8.775   5.043  71.116  1.00  0.00    -0.128 C  
HETATM    4  N   UNL     1      -9.570   6.053  71.636  1.00  0.00    -0.152 N  
HETATM    5  O   UNL     1      -8.771   3.895  71.547  1.00  0.00    -0.094 OA 
HETATM    6  C   UNL     1     -10.508   5.788  72.709  1.00  0.00    -0.210 C  
BRANCH   4   7
HETATM    7  C   UNL     1      -9.609   7.346  71.045  1.00  0.00    -0.161 A  
HETATM    8  C   UNL     1      -8.790   8.381  71.487  1.00  0.00    -0.185 A  
HETATM    9  N   UNL     1      -7.999   8.263  72.633  1.00  0.00    -0.205 NA 
HETATM   10  N   UNL     1      -8.761   9.579  70.896  1.00  0.00    -0.243 NA 
HETATM   11  H1  UNL     1      -7.399   9.021  72.957  1.00  0.00     0.000 HD 
HETATM   12  C   UNL     1      -9.587   9.757  69.846  1.00  0.00    -0.235 A  
HETATM   13  H2  UNL     1      -7.419   7.431  72.525  1.00  0.00     0.000 HD 
HETATM   14  N   UNL     1     -10.443   8.830  69.361  1.00  0.00    -0.221 NA 
HETATM   15  H2  UNL     1     -11.970   6.443  70.288  1.00  0.00     0.000 HD 
HETATM   16  H1  UNL     1     -11.989   6.927  68.711  1.00  0.00     0.000 HD 
HETATM   17  C   UNL     1     -10.438   7.635  69.968  1.00  0.00    -0.229 A  
HETATM   18  N   UNL     1     -11.380   6.714  69.501  1.00  0.00    -0.320 NA 
BRANCH  12  19
HETATM   19  C   UNL     1      -9.543  11.065  69.165  1.00  0.00    -0.061 A  
HETATM   20  C   UNL     1      -8.878  12.840  67.971  1.00  0.00    -0.195 A  
HETATM   21  N   UNL     1     -10.522  11.992  69.300  1.00  0.00     0.034 NA 
HETATM   22  N   UNL     1     -10.117  13.022  68.515  1.00  0.00    -0.223 NA 
HETATM   23  C   UNL     1      -6.565  11.924  66.953  1.00  0.00    -0.083 A  
HETATM   24  N   UNL     1      -8.183  13.725  67.228  1.00  0.00    -0.179 NA 
HETATM   25  C   UNL     1      -8.506  11.547  68.307  1.00  0.00    -0.159 A  
HETATM   26  C   UNL     1      -7.026  13.218  66.748  1.00  0.00     1.119 A  
HETATM   27  C   UNL     1      -7.306  11.059  67.760  1.00  0.00    -0.093 A  
BRANCH  22  28
HETATM   28  C   UNL     1     -10.948  14.208  68.366  1.00  0.00    -0.254 C  
BRANCH  28  29
HETATM   29  C   UNL     1     -11.774  14.531  69.588  1.00  0.00    -0.356 A  
HETATM   30  C   UNL     1     -12.400  16.150  71.301  1.00  0.00    -0.181 A  
HETATM   31  C   UNL     1     -12.988  15.140  72.058  1.00  0.00    -0.437 A  
HETATM   32  C   UNL     1     -11.809  15.842  70.077  1.00  0.00    -0.354 A  
HETATM   33  C   UNL     1     -13.012  13.836  71.567  1.00  0.00    -0.444 A  
HETATM   34  F   UNL     1     -11.229  16.831  69.382  1.00  0.00    -0.277 F  
HETATM   35  C   UNL     1     -12.409  13.530  70.341  1.00  0.00    -0.397 A  
ENDBRANCH  28  29
ENDBRANCH  22  28
ENDBRANCH  12  19
ENDBRANCH   4   7
ENDBRANCH   2   3
TORSDOF 5
ENDMDL
MODEL      194
REMARK 921   NORMALIZED FREE ENERGY PREDICTED BY IDOCK:   -3.34 KCAL/MOL
REMARK 922        TOTAL FREE ENERGY PREDICTED BY IDOCK:   -5.13 KCAL/MOL
REMARK 923 INTER-LIGAND FREE ENERGY PREDICTED BY IDOCK:   -5.70 KCAL/MOL
REMARK 924 INTRA-LIGAND FREE ENERGY PREDICTED BY IDOCK:    0.58 KCAL/MOL
REMARK 927      BINDING AFFINITY PREDICTED BY RF-SCORE:    0.00 PKD
ROOT
HETATM    1  C   UNL     1     -10.934  15.434  71.770  1.00  0.00    -0.019 C  
HETATM    2  O   UNL     1     -11.661  14.490  70.985  1.00  0.00    -0.300 OA 
ENDROOT
BRANCH   2   3
HETATM    3  C   UNL     1     -12.569  13.754  71.684  1.00  0.00    -0.279 C  
HETATM    4  N   UNL     1     -12.729  12.472  71.181  1.00  0.00    -0.317 N  
HETATM    5  O   UNL     1     -13.188  14.184  72.652  1.00  0.00    -0.466 OA 
HETATM    6  C   UNL     1     -13.618  11.523  71.822  1.00  0.00     0.094 C  
BRANCH   4   7
HETATM    7  C   UNL     1     -11.924  11.987  70.114  1.00  0.00    -0.321 A  
HETATM    8  C   UNL     1     -11.804  12.678  68.911  1.00  0.00    -0.302 A  
HETATM    9  N   UNL     1     -12.584  13.799  68.619  1.00  0.00    -0.124 NA 
HETATM   10  N   UNL     1     -10.994  12.274  67.927  1.00  0.00    -0.214 NA 
HETATM   11  H1  UNL     1     -12.495  14.305  67.739  1.00  0.00     0.000 HD 
HETATM   12  C   UNL     1     -10.301  11.139  68.140  1.00  0.00    -0.187 A  
HETATM   13  H2  UNL     1     -12.459  14.470  69.377  1.00  0.00     0.000 HD 
HETATM   14  N   UNL     1     -10.371  10.379  69.255  1.00  0.00    -0.217 NA 
HETATM   15  H2  UNL     1     -12.285   9.741  71.451  1.00  0.00     0.000 HD 
HETATM   16  H1  UNL     1     -10.755   9.123  71.426  1.00  0.00     0.000 HD 
HETATM   17  C   UNL     1     -11.183  10.817  70.228  1.00  0.00    -0.245 A  
HETATM   18  N   UNL     1     -11.300   9.982  71.343  1.00  0.00    -0.284 NA 
BRANCH  12  19
HETATM   19  C   UNL     1      -9.381  10.698  67.073  1.00  0.00    -0.155 A  
HETATM   20  C   UNL     1      -8.441  10.311  65.077  1.00  0.00    -0.172 A  
HETATM   21  N   UNL     1      -8.300   9.918  67.316  1.00  0.00    -0.121 NA 
HETATM   22  N   UNL     1      -7.723   9.759  66.099  1.00  0.00    -0.102 NA 
HETATM   23  C   UNL     1     -10.051  11.750  63.475  1.00  0.00    -0.463 A  
HETATM   24  N   UNL     1      -8.164  10.234  63.759  1.00  0.00    -0.159 NA 
HETATM   25  C   UNL     1      -9.485  10.998  65.679  1.00  0.00    -0.250 A  
HETATM   26  C   UNL     1      -9.007  10.967  62.999  1.00  0.00    -0.238 A  
HETATM   27  C   UNL     1     -10.316  11.767  64.845  1.00  0.00    -0.334 A  
BRANCH  22  28
HETATM   28  C   UNL     1      -6.488   9.002  65.960  1.00  0.00    -0.064 C  
BRANCH  28  29
HETATM   29  C   UNL     1      -6.535   7.636  66.604  1.00  0.00    -0.053 A  
HETATM   30  C   UNL     1      -7.662   5.486  66.829  1.00  0.00    -0.100 A  
HETATM   31  C   UNL     1      -6.933   5.211  67.983  1.00  0.00    -0.061 A  
HETATM   32  C   UNL     1      -7.453   6.685  66.149  1.00  0.00    -0.081 A  
HETATM   33  C   UNL     1      -5.974   6.121  68.427  1.00  0.00    -0.016 A  
HETATM   34  F   UNL     1      -8.188   6.932  65.055  1.00  0.00    -0.125 F  
HETATM   35  C   UNL     1      -5.775   7.327  67.744  1.00  0.00    -0.029 A  
ENDBRANCH  28  29
ENDBRANCH  22  28
ENDBRANCH  12  19
ENDBRANCH   4   7
ENDBRANCH   2   3
TORSDOF 5
ENDMDL
MODEL      195
REMARK 921   NORMALIZED FREE ENERGY PREDICTED BY IDOCK:   -3.29 KCAL/MOL
REMARK 922        TOTAL FREE ENERGY PREDICTED BY IDOCK:   -5.06 KCAL/MOL
REMARK 923 INTER-LIGAND FREE ENERGY PREDICTED BY IDOCK:   -5.38 KCAL/MOL
REMARK 924 INTRA-LIGAND FREE ENERGY PREDICTED BY IDOCK:    0.32 KCAL/MOL
REMARK 927      BINDING AFFINITY PREDICTED BY RF-SCORE:    0.00 PKD
ROOT
HETATM    1  C   UNL     1     -11.097  16.223  68.693  1.00  0.00    -0.356 C  
HETATM    2  O   UNL     1     -11.540  15.085  67.955  1.00  0.00    -0.328 OA 
ENDROOT
BRANCH   2   3
HETATM    3  C   UNL     1     -11.081  15.028  66.674  1.00  0.00    -0.326 C  
HETATM    4  N   UNL     1     -10.452  13.829  66.376  1.00  0.00    -0.281 N  
HETATM    5  O   UNL     1     -11.203  15.947  65.870  1.00  0.00    -0.121 OA 
HETATM    6  C   UNL     1      -9.939  13.564  65.047  1.00  0.00    -0.166 C  
BRANCH   4   7
HETATM    7  C   UNL     1     -10.415  12.759  67.311  1.00  0.00    -0.232 A  
HETATM    8  C   UNL     1     -11.385  11.761  67.325  1.00  0.00    -0.315 A  
HETATM    9  N   UNL     1     -12.534  11.833  66.535  1.00  0.00     0.766 NA 
HETATM   10  N   UNL     1     -11.324  10.709  68.149  1.00  0.00    -0.336 NA 
HETATM   11  H1  UNL     1     -13.245  11.102  66.545  1.00  0.00     0.000 HD 
HETATM   12  C   UNL     1     -10.277  10.661  68.994  1.00  0.00    -0.215 A  
HETATM   13  H2  UNL     1     -12.237  11.964  65.568  1.00  0.00     0.000 HD 
HETATM   14  N   UNL     1      -9.302  11.593  69.083  1.00  0.00     0.176 NA 
HETATM   15  H2  UNL     1      -8.888  14.501  68.574  1.00  0.00     0.000 HD 
HETATM   16  H1  UNL     1      -7.655  13.523  69.070  1.00  0.00     0.000 HD 
HETATM   17  C   UNL     1      -9.386  12.629  68.236  1.00  0.00    -0.195 A  
HETATM   18  N   UNL     1      -8.411  13.619  68.390  1.00  0.00    -0.162 NA 
BRANCH  12  19
HETATM   19  C   UNL     1     -10.182   9.490  69.887  1.00  0.00    -0.231 A  
HETATM   20  C   UNL     1      -9.909   7.411  70.675  1.00  0.00    -0.179 A  
HETATM   21  N   UNL     1     -10.504   9.545  71.202  1.00  0.00    -0.315 NA 
HETATM   22  N   UNL     1     -10.266   8.290  71.657  1.00  0.00    -0.205 NA 
HETATM   23  C   UNL     1      -9.015   6.152  68.475  1.00  0.00    -0.115 A  
HETATM   24  N   UNL     1      -9.699   6.086  70.813  1.00  0.00    -0.172 NA 
HETATM   25  C   UNL     1      -9.767   8.170  69.523  1.00  0.00    -0.170 A  
HETATM   26  C   UNL     1      -9.260   5.500  69.677  1.00  0.00    -0.132 A  
HETATM   27  C   UNL     1      -9.281   7.518  68.377  1.00  0.00    -0.139 A  
BRANCH  22  28
HETATM   28  C   UNL     1     -10.457   7.966  73.063  1.00  0.00    -0.343 C  
BRANCH  28  29
HETATM   29  C   UNL     1      -9.929   6.606  73.452  1.00  0.00    -0.231 A  
HETATM   30  C   UNL     1     -10.402   4.301  74.093  1.00  0.00    -0.284 A  
HETATM   31  C   UNL     1      -9.087   4.137  74.522  1.00  0.00    -0.110 A  
HETATM   32  C   UNL     1     -10.808   5.522  73.558  1.00  0.00    -0.276 A  
HETATM   33  C   UNL     1      -8.180   5.185  74.379  1.00  0.00    -0.101 A  
HETATM   34  F   UNL     1     -12.086   5.657  73.176  1.00  0.00    -0.155 F  
HETATM   35  C   UNL     1      -8.595   6.413  73.848  1.00  0.00    -0.131 A  
ENDBRANCH  28  29
ENDBRANCH  22  28
ENDBRANCH  12  19
ENDBRANCH   4   7
ENDBRANCH   2   3
TORSDOF 5
ENDMDL
MODEL      196
REMARK 921   NORMALIZED FREE ENERGY PREDICTED BY IDOCK:   -2.87 KCAL/MOL
REMARK 922        TOTAL FREE ENERGY PREDICTED BY IDOCK:   -4.52 KCAL/MOL
REMARK 923 INTER-LIGAND FREE ENERGY PREDICTED BY IDOCK:   -3.52 KCAL/MOL
REMARK 924 INTRA-LIGAND FREE ENERGY PREDICTED BY IDOCK:   -1.00 KCAL/MOL
REMARK 927      BINDING AFFINITY PREDICTED BY RF-SCORE:    0.00 PKD
ROOT
HETATM    1  C   UNL     1      -6.827  14.887  69.980  1.00  0.00    -0.129 C  
HETATM    2  O   UNL     1      -7.035  13.838  69.036  1.00  0.00    -0.109 OA 
ENDROOT
BRANCH   2   3
HETATM    3  C   UNL     1      -6.110  13.785  68.038  1.00  0.00    -0.140 C  
HETATM    4  N   UNL     1      -6.027  12.537  67.441  1.00  0.00    -0.153 N  
HETATM    5  O   UNL     1      -5.415  14.741  67.708  1.00  0.00    -0.249 OA 
HETATM    6  C   UNL     1      -5.131  12.298  66.327  1.00  0.00     0.962 C  
BRANCH   4   7
HETATM    7  C   UNL     1      -6.916  11.485  67.795  1.00  0.00    -0.078 A  
HETATM    8  C   UNL     1      -8.257  11.498  67.422  1.00  0.00    -0.149 A  
HETATM    9  N   UNL     1      -8.847  12.611  66.819  1.00  0.00    -0.317 NA 
HETATM   10  N   UNL     1      -9.087  10.483  67.683  1.00  0.00    -0.141 NA 
HETATM   11  H1  UNL     1      -9.829  12.620  66.545  1.00  0.00     0.000 HD 
HETATM   12  C   UNL     1      -8.570   9.434  68.352  1.00  0.00    -0.124 A  
HETATM   13  H2  UNL     1      -8.293  12.848  65.997  1.00  0.00     0.000 HD 
HETATM   14  N   UNL     1      -7.294   9.338  68.788  1.00  0.00    -0.074 NA 
HETATM   15  H2  UNL     1      -5.035  11.103  69.606  1.00  0.00     0.000 HD 
HETATM   16  H1  UNL     1      -4.873   9.463  69.536  1.00  0.00     0.000 HD 
HETATM   17  C   UNL     1      -6.484  10.367  68.499  1.00  0.00    -0.051 A  
HETATM   18  N   UNL     1      -5.190  10.284  69.019  1.00  0.00    -0.035 NA 
BRANCH  12  19
HETATM   19  C   UNL     1      -9.468   8.294  68.621  1.00  0.00    -0.147 A  
HETATM   20  C   UNL     1     -10.656   6.406  68.417  1.00  0.00    -0.257 A  
HETATM   21  N   UNL     1     -10.224   8.208  69.742  1.00  0.00    -0.199 NA 
HETATM   22  N   UNL     1     -10.877   7.026  69.613  1.00  0.00    -0.243 NA 
HETATM   23  C   UNL     1      -9.723   5.475  66.074  1.00  0.00    -0.107 A  
HETATM   24  N   UNL     1     -11.235   5.272  67.974  1.00  0.00     0.853 NA 
HETATM   25  C   UNL     1      -9.684   7.161  67.776  1.00  0.00    -0.161 A  
HETATM   26  C   UNL     1     -10.737   4.852  66.789  1.00  0.00     0.051 A  
HETATM   27  C   UNL     1      -9.181   6.665  66.560  1.00  0.00    -0.183 A  
BRANCH  22  28
HETATM   28  C   UNL     1     -11.767   6.556  70.665  1.00  0.00    -0.374 C  
BRANCH  28  29
HETATM   29  C   UNL     1     -11.048   6.056  71.895  1.00  0.00    -0.331 A  
HETATM   30  C   UNL     1     -10.186   6.522  74.127  1.00  0.00    -0.380 A  
HETATM   31  C   UNL     1      -9.424   5.356  74.090  1.00  0.00    -0.138 A  
HETATM   32  C   UNL     1     -10.992   6.856  73.040  1.00  0.00    -0.274 A  
HETATM   33  C   UNL     1      -9.504   4.516  72.980  1.00  0.00    -0.149 A  
HETATM   34  F   UNL     1     -11.694   7.997  73.096  1.00  0.00    -0.433 F  
HETATM   35  C   UNL     1     -10.309   4.861  71.888  1.00  0.00    -0.259 A  
ENDBRANCH  28  29
ENDBRANCH  22  28
ENDBRANCH  12  19
ENDBRANCH   4   7
ENDBRANCH   2   3
TORSDOF 5
ENDMDL
MODEL      197
REMARK 921   NORMALIZED FREE ENERGY PREDICTED BY IDOCK:   -2.86 KCAL/MOL
REMARK 922        TOTAL FREE ENERGY PREDICTED BY IDOCK:   -4.50 KCAL/MOL
REMARK 923 INTER-LIGAND FREE ENERGY PREDICTED BY IDOCK:   -3.73 KCAL/MOL
REMARK 924 INTRA-LIGAND FREE ENERGY PREDICTED BY IDOCK:   -0.77 KCAL/MOL
REMARK 927      BINDING AFFINITY PREDICTED BY RF-SCORE:    0.00 PKD
ROOT
HETATM    1  C   UNL     1      -8.799   8.748  62.433  1.00  0.00    -0.077 C  
HETATM    2  O   UNL     1      -8.443   9.080  63.774  1.00  0.00    -0.183 OA 
ENDROOT
BRANCH   2   3
HETATM    3  C   UNL     1      -8.791  10.341  64.155  1.00  0.00    -0.222 C  
HETATM    4  N   UNL     1      -8.955  10.467  65.525  1.00  0.00    -0.175 N  
HETATM    5  O   UNL     1      -8.952  11.266  63.365  1.00  0.00    -0.135 OA 
HETATM    6  C   UNL     1      -9.278  11.747  66.125  1.00  0.00    -0.210 C  
BRANCH   4   7
HETATM    7  C   UNL     1      -8.669   9.391  66.409  1.00  0.00    -0.135 A  
HETATM    8  C   UNL     1      -9.678   8.616  66.975  1.00  0.00    -0.201 A  
HETATM    9  N   UNL     1     -11.029   8.943  66.837  1.00  0.00    -0.166 NA 
HETATM   10  N   UNL     1      -9.423   7.556  67.748  1.00  0.00    -0.140 NA 
HETATM   11  H1  UNL     1     -11.768   8.375  67.251  1.00  0.00     0.000 HD 
HETATM   12  C   UNL     1      -8.127   7.272  67.981  1.00  0.00    -0.120 A  
HETATM   13  H2  UNL     1     -11.226   9.032  65.840  1.00  0.00     0.000 HD 
HETATM   14  N   UNL     1      -7.077   7.980  67.509  1.00  0.00    -0.078 NA 
HETATM   15  H2  UNL     1      -6.417  10.750  66.625  1.00  0.00     0.000 HD 
HETATM   16  H1  UNL     1      -5.314   9.526  66.540  1.00  0.00     0.000 HD 
HETATM   17  C   UNL     1      -7.365   9.029  66.727  1.00  0.00    -0.086 A  
HETATM   18  N   UNL     1      -6.272   9.791  66.307  1.00  0.00    -0.067 NA 
BRANCH  12  19
HETATM   19  C   UNL     1      -7.832   6.087  68.809  1.00  0.00    -0.100 A  
HETATM   20  C   UNL     1      -7.504   3.981  69.499  1.00  0.00    -0.053 A  
HETATM   21  N   UNL     1      -7.644   6.160  70.149  1.00  0.00    -0.093 NA 
HETATM   22  N   UNL     1      -7.385   4.881  70.520  1.00  0.00    -0.053 NA 
HETATM   23  C   UNL     1      -7.610   2.662  67.159  1.00  0.00    -0.069 A  
HETATM   24  N   UNL     1      -7.395   2.640  69.586  1.00  0.00    -0.044 NA 
HETATM   25  C   UNL     1      -7.717   4.736  68.355  1.00  0.00    -0.081 A  
HETATM   26  C   UNL     1      -7.464   2.025  68.384  1.00  0.00    -0.046 A  
HETATM   27  C   UNL     1      -7.752   4.050  67.128  1.00  0.00    -0.084 A  
BRANCH  22  28
HETATM   28  C   UNL     1      -7.082   4.561  71.907  1.00  0.00    -0.056 C  
BRANCH  28  29
HETATM   29  C   UNL     1      -7.658   5.543  72.899  1.00  0.00    -0.097 A  
HETATM   30  C   UNL     1      -9.629   6.626  73.841  1.00  0.00    -0.236 A  
HETATM   31  C   UNL     1      -8.826   7.586  74.450  1.00  0.00    -0.195 A  
HETATM   32  C   UNL     1      -9.043   5.614  73.082  1.00  0.00    -0.126 A  
HETATM   33  C   UNL     1      -7.440   7.506  74.325  1.00  0.00    -0.155 A  
HETATM   34  F   UNL     1      -9.844   4.719  72.487  1.00  0.00    -0.164 F  
HETATM   35  C   UNL     1      -6.857   6.492  73.555  1.00  0.00    -0.077 A  
ENDBRANCH  28  29
ENDBRANCH  22  28
ENDBRANCH  12  19
ENDBRANCH   4   7
ENDBRANCH   2   3
TORSDOF 5
ENDMDL
MODEL      198
REMARK 921   NORMALIZED FREE ENERGY PREDICTED BY IDOCK:   -2.76 KCAL/MOL
REMARK 922        TOTAL FREE ENERGY PREDICTED BY IDOCK:   -4.37 KCAL/MOL
REMARK 923 INTER-LIGAND FREE ENERGY PREDICTED BY IDOCK:   -3.93 KCAL/MOL
REMARK 924 INTRA-LIGAND FREE ENERGY PREDICTED BY IDOCK:   -0.45 KCAL/MOL
REMARK 927      BINDING AFFINITY PREDICTED BY RF-SCORE:    0.00 PKD
ROOT
HETATM    1  C   UNL     1      -9.287  14.478  66.007  1.00  0.00    -0.160 C  
HETATM    2  O   UNL     1      -9.399  13.186  65.414  1.00  0.00     0.154 OA 
ENDROOT
BRANCH   2   3
HETATM    3  C   UNL     1     -10.536  12.993  64.691  1.00  0.00    -0.378 C  
HETATM    4  N   UNL     1     -10.973  11.678  64.709  1.00  0.00    -0.303 N  
HETATM    5  O   UNL     1     -11.109  13.889  64.078  1.00  0.00    -0.199 OA 
HETATM    6  C   UNL     1     -12.196  11.286  64.035  1.00  0.00     0.641 C  
BRANCH   4   7
HETATM    7  C   UNL     1     -10.329  10.693  65.507  1.00  0.00    -0.227 A  
HETATM    8  C   UNL     1      -9.508   9.717  64.949  1.00  0.00    -0.220 A  
HETATM    9  N   UNL     1      -9.392   9.547  63.568  1.00  0.00    -0.462 NA 
HETATM   10  N   UNL     1      -8.837   8.830  65.692  1.00  0.00    -0.190 NA 
HETATM   11  H1  UNL     1      -8.790   8.832  63.159  1.00  0.00     0.000 HD 
HETATM   12  C   UNL     1      -9.006   8.906  67.026  1.00  0.00    -0.127 A  
HETATM   13  H2  UNL     1      -9.125  10.445  63.166  1.00  0.00     0.000 HD 
HETATM   14  N   UNL     1      -9.804   9.791  67.663  1.00  0.00    -0.159 NA 
HETATM   15  H2  UNL     1     -12.259  11.407  67.159  1.00  0.00     0.000 HD 
HETATM   16  H1  UNL     1     -11.420  11.521  68.575  1.00  0.00     0.000 HD 
HETATM   17  C   UNL     1     -10.453  10.674  66.891  1.00  0.00    -0.249 A  
HETATM   18  N   UNL     1     -11.329  11.534  67.559  1.00  0.00    -0.364 NA 
BRANCH  12  19
HETATM   19  C   UNL     1      -8.248   7.951  67.858  1.00  0.00    -0.129 A  
HETATM   20  C   UNL     1      -7.132   6.145  68.574  1.00  0.00    -0.082 A  
HETATM   21  N   UNL     1      -8.016   8.156  69.177  1.00  0.00    -0.111 NA 
HETATM   22  N   UNL     1      -7.286   7.078  69.559  1.00  0.00    -0.091 NA 
HETATM   23  C   UNL     1      -6.895   4.759  66.282  1.00  0.00    -0.062 A  
HETATM   24  N   UNL     1      -6.537   4.941  68.686  1.00  0.00    -0.047 NA 
HETATM   25  C   UNL     1      -7.676   6.712  67.431  1.00  0.00    -0.109 A  
HETATM   26  C   UNL     1      -6.451   4.282  67.508  1.00  0.00    -0.042 A  
HETATM   27  C   UNL     1      -7.536   5.998  66.228  1.00  0.00    -0.086 A  
BRANCH  22  28
HETATM   28  C   UNL     1      -6.801   6.961  70.926  1.00  0.00    -0.055 C  
BRANCH  28  29
HETATM   29  C   UNL     1      -7.854   6.509  71.910  1.00  0.00    -0.103 A  
HETATM   30  C   UNL     1      -8.535   6.219  74.234  1.00  0.00    -0.126 A  
HETATM   31  C   UNL     1      -9.577   5.385  73.837  1.00  0.00    -0.142 A  
HETATM   32  C   UNL     1      -7.692   6.776  73.274  1.00  0.00    -0.089 A  
HETATM   33  C   UNL     1      -9.791   5.146  72.480  1.00  0.00    -0.197 A  
HETATM   34  F   UNL     1      -6.682   7.554  73.688  1.00  0.00    -0.070 F  
HETATM   35  C   UNL     1      -8.936   5.702  71.521  1.00  0.00    -0.148 A  
ENDBRANCH  28  29
ENDBRANCH  22  28
ENDBRANCH  12  19
ENDBRANCH   4   7
ENDBRANCH   2   3
TORSDOF 5
ENDMDL
MODEL      199
REMARK 921   NORMALIZED FREE ENERGY PREDICTED BY IDOCK:   -2.57 KCAL/MOL
REMARK 922        TOTAL FREE ENERGY PREDICTED BY IDOCK:   -4.13 KCAL/MOL
REMARK 923 INTER-LIGAND FREE ENERGY PREDICTED BY IDOCK:   -4.32 KCAL/MOL
REMARK 924 INTRA-LIGAND FREE ENERGY PREDICTED BY IDOCK:    0.19 KCAL/MOL
REMARK 927      BINDING AFFINITY PREDICTED BY RF-SCORE:    0.00 PKD
ROOT
HETATM    1  C   UNL     1      -8.873   9.171  69.737  1.00  0.00    -0.160 C  
HETATM    2  O   UNL     1      -7.812   9.777  69.001  1.00  0.00    -0.079 OA 
ENDROOT
BRANCH   2   3
HETATM    3  C   UNL     1      -6.708  10.072  69.740  1.00  0.00    -0.086 C  
HETATM    4  N   UNL     1      -6.283  11.382  69.581  1.00  0.00    -0.103 N  
HETATM    5  O   UNL     1      -6.141   9.260  70.465  1.00  0.00    -0.040 OA 
HETATM    6  C   UNL     1      -5.149  11.896  70.324  1.00  0.00    -0.089 C  
BRANCH   4   7
HETATM    7  C   UNL     1      -7.023  12.312  68.802  1.00  0.00    -0.098 A  
HETATM    8  C   UNL     1      -7.287  12.096  67.452  1.00  0.00    -0.151 A  
HETATM    9  N   UNL     1      -6.711  11.039  66.745  1.00  0.00    -0.118 NA 
HETATM   10  N   UNL     1      -8.043  12.925  66.725  1.00  0.00     0.056 NA 
HETATM   11  H1  UNL     1      -6.904  10.881  65.756  1.00  0.00     0.000 HD 
HETATM   12  C   UNL     1      -8.534  14.009  67.355  1.00  0.00    -0.200 A  
HETATM   13  H2  UNL     1      -6.925  10.177  67.245  1.00  0.00     0.000 HD 
HETATM   14  N   UNL     1      -8.310  14.327  68.650  1.00  0.00    -0.151 NA 
HETATM   15  H2  UNL     1      -6.263  13.893  70.773  1.00  0.00     0.000 HD 
HETATM   16  H1  UNL     1      -7.669  14.700  71.076  1.00  0.00     0.000 HD 
HETATM   17  C   UNL     1      -7.558  13.470  69.355  1.00  0.00     0.410 A  
HETATM   18  N   UNL     1      -7.276  13.850  70.670  1.00  0.00     1.047 NA 
BRANCH  12  19
HETATM   19  C   UNL     1      -9.395  14.916  66.571  1.00  0.00    -0.282 A  
HETATM   20  C   UNL     1     -10.854  15.730  65.079  1.00  0.00    -0.443 A  
HETATM   21  N   UNL     1      -9.355  16.262  66.709  1.00  0.00    -0.225 NA 
HETATM   22  N   UNL     1     -10.293  16.715  65.840  1.00  0.00    -0.392 NA 
HETATM   23  C   UNL     1     -11.822  13.453  64.027  1.00  0.00    -0.498 A  
HETATM   24  N   UNL     1     -11.743  15.888  64.078  1.00  0.00    -0.606 NA 
HETATM   25  C   UNL     1     -10.353  14.537  65.579  1.00  0.00    -0.379 A  
HETATM   26  C   UNL     1     -12.191  14.715  63.578  1.00  0.00     0.600 A  
HETATM   27  C   UNL     1     -10.873  13.345  65.044  1.00  0.00    -0.337 A  
BRANCH  22  28
HETATM   28  C   UNL     1     -10.576  18.139  65.735  1.00  0.00    -0.175 C  
BRANCH  28  29
HETATM   29  C   UNL     1      -9.898  18.976  66.793  1.00  0.00    -0.395 A  
HETATM   30  C   UNL     1      -7.842  19.961  67.658  1.00  0.00    -0.325 A  
HETATM   31  C   UNL     1      -8.463  20.216  68.878  1.00  0.00     0.246 A  
HETATM   32  C   UNL     1      -8.561  19.354  66.629  1.00  0.00    -0.329 A  
HETATM   33  C   UNL     1      -9.809  19.896  69.047  1.00  0.00    -0.352 A  
HETATM   34  F   UNL     1      -7.929  19.098  65.475  1.00  0.00    -0.180 F  
HETATM   35  C   UNL     1     -10.524  19.279  68.013  1.00  0.00    -0.488 A  
ENDBRANCH  28  29
ENDBRANCH  22  28
ENDBRANCH  12  19
ENDBRANCH   4   7
ENDBRANCH   2   3
TORSDOF 5
ENDMDL
MODEL      200
REMARK 921   NORMALIZED FREE ENERGY PREDICTED BY IDOCK:   -2.53 KCAL/MOL
REMARK 922        TOTAL FREE ENERGY PREDICTED BY IDOCK:   -4.07 KCAL/MOL
REMARK 923 INTER-LIGAND FREE ENERGY PREDICTED BY IDOCK:   -4.33 KCAL/MOL
REMARK 924 INTRA-LIGAND FREE ENERGY PREDICTED BY IDOCK:    0.26 KCAL/MOL
REMARK 927      BINDING AFFINITY PREDICTED BY RF-SCORE:    0.00 PKD
ROOT
HETATM    1  C   UNL     1      -7.512   4.481  69.241  1.00  0.00    -0.055 C  
HETATM    2  O   UNL     1      -7.756   5.644  70.030  1.00  0.00    -0.079 OA 
ENDROOT
BRANCH   2   3
HETATM    3  C   UNL     1      -8.540   5.432  71.123  1.00  0.00    -0.125 C  
HETATM    4  N   UNL     1      -9.021   6.606  71.681  1.00  0.00    -0.142 N  
HETATM    5  O   UNL     1      -8.786   4.317  71.573  1.00  0.00    -0.107 OA 
HETATM    6  C   UNL     1      -9.912   6.580  72.824  1.00  0.00    -0.172 C  
BRANCH   4   7
HETATM    7  C   UNL     1      -8.784   7.868  71.072  1.00  0.00    -0.133 A  
HETATM    8  C   UNL     1      -7.679   8.648  71.401  1.00  0.00    -0.122 A  
HETATM    9  N   UNL     1      -6.826   8.316  72.456  1.00  0.00    -0.086 NA 
HETATM   10  N   UNL     1      -7.403   9.802  70.785  1.00  0.00    -0.318 NA 
HETATM   11  H1  UNL     1      -6.016   8.887  72.697  1.00  0.00     0.000 HD 
HETATM   12  C   UNL     1      -8.264  10.200  69.829  1.00  0.00    -0.145 A  
HETATM   13  H2  UNL     1      -6.499   7.363  72.303  1.00  0.00     0.000 HD 
HETATM   14  N   UNL     1      -9.381   9.535  69.458  1.00  0.00    -0.177 NA 
HETATM   15  H2  UNL     1     -11.368   7.624  70.594  1.00  0.00     0.000 HD 
HETATM   16  H1  UNL     1     -11.433   8.110  69.019  1.00  0.00     0.000 HD 
HETATM   17  C   UNL     1      -9.623   8.375  70.086  1.00  0.00    -0.165 A  
HETATM   18  N   UNL     1     -10.818   7.738  69.743  1.00  0.00    -0.239 NA 
BRANCH  12  19
HETATM   19  C   UNL     1      -7.954  11.457  69.121  1.00  0.00     0.055 A  
HETATM   20  C   UNL     1      -7.084  13.444  68.560  1.00  0.00    -0.108 A  
HETATM   21  N   UNL     1      -8.635  11.865  68.023  1.00  0.00    -0.160 NA 
HETATM   22  N   UNL     1      -8.041  13.033  67.676  1.00  0.00    -0.158 NA 
HETATM   23  C   UNL     1      -5.154  13.691  70.415  1.00  0.00    -0.098 A  
HETATM   24  N   UNL     1      -6.394  14.602  68.525  1.00  0.00    -0.082 NA 
HETATM   25  C   UNL     1      -6.944  12.407  69.471  1.00  0.00     0.161 A  
HETATM   26  C   UNL     1      -5.443  14.679  69.483  1.00  0.00    -0.091 A  
HETATM   27  C   UNL     1      -5.922  12.526  70.429  1.00  0.00    -0.100 A  
BRANCH  22  28
HETATM   28  C   UNL     1      -8.478  13.762  66.494  1.00  0.00     0.331 C  
BRANCH  28  29
HETATM   29  C   UNL     1      -9.951  13.613  66.196  1.00  0.00    -0.314 A  
HETATM   30  C   UNL     1     -12.096  14.684  65.749  1.00  0.00    -0.201 A  
HETATM   31  C   UNL     1     -12.759  13.482  65.986  1.00  0.00    -0.307 A  
HETATM   32  C   UNL     1     -10.707  14.738  65.848  1.00  0.00    -0.316 A  
HETATM   33  C   UNL     1     -12.023  12.336  66.284  1.00  0.00    -0.307 A  
HETATM   34  F   UNL     1     -10.099  15.915  65.639  1.00  0.00    -0.302 F  
HETATM   35  C   UNL     1     -10.629  12.398  66.389  1.00  0.00    -0.271 A  
ENDBRANCH  28  29
ENDBRANCH  22  28
ENDBRANCH  12  19
ENDBRANCH   4   7
ENDBRANCH   2   3
TORSDOF 5
ENDMDL
MODEL      201
REMARK 921   NORMALIZED FREE ENERGY PREDICTED BY IDOCK:   -2.47 KCAL/MOL
REMARK 922        TOTAL FREE ENERGY PREDICTED BY IDOCK:   -3.99 KCAL/MOL
REMARK 923 INTER-LIGAND FREE ENERGY PREDICTED BY IDOCK:   -4.39 KCAL/MOL
REMARK 924 INTRA-LIGAND FREE ENERGY PREDICTED BY IDOCK:    0.39 KCAL/MOL
REMARK 927      BINDING AFFINITY PREDICTED BY RF-SCORE:    0.00 PKD
ROOT
HETATM    1  C   UNL     1      -9.642   6.470  65.732  1.00  0.00     0.330 C  
HETATM    2  O   UNL     1     -10.394   6.452  66.944  1.00  0.00    -0.198 OA 
ENDROOT
BRANCH   2   3
HETATM    3  C   UNL     1      -9.825   5.734  67.951  1.00  0.00    -0.127 C  
HETATM    4  N   UNL     1      -8.909   6.468  68.689  1.00  0.00    -0.122 N  
HETATM    5  O   UNL     1     -10.088   4.557  68.176  1.00  0.00    -0.077 OA 
HETATM    6  C   UNL     1      -8.235   5.888  69.834  1.00  0.00    -0.117 C  
BRANCH   4   7
HETATM    7  C   UNL     1      -8.704   7.854  68.450  1.00  0.00    -0.131 A  
HETATM    8  C   UNL     1      -9.717   8.791  68.637  1.00  0.00    -0.162 A  
HETATM    9  N   UNL     1     -11.033   8.414  68.915  1.00  0.00    -0.428 NA 
HETATM   10  N   UNL     1      -9.519  10.105  68.487  1.00  0.00    -0.153 NA 
HETATM   11  H1  UNL     1     -11.775   9.100  69.051  1.00  0.00     0.000 HD 
HETATM   12  C   UNL     1      -8.283  10.494  68.122  1.00  0.00    -0.114 A  
HETATM   13  H2  UNL     1     -11.015   7.807  69.734  1.00  0.00     0.000 HD 
HETATM   14  N   UNL     1      -7.242   9.665  67.885  1.00  0.00    -0.081 NA 
HETATM   15  H2  UNL     1      -6.725   6.860  67.015  1.00  0.00     0.000 HD 
HETATM   16  H1  UNL     1      -5.498   7.876  67.444  1.00  0.00     0.000 HD 
HETATM   17  C   UNL     1      -7.469   8.355  68.055  1.00  0.00    -0.097 A  
HETATM   18  N   UNL     1      -6.405   7.508  67.735  1.00  0.00    -0.051 NA 
BRANCH  12  19
HETATM   19  C   UNL     1      -8.044  11.943  67.983  1.00  0.00    -0.151 A  
HETATM   20  C   UNL     1      -7.300  14.034  68.294  1.00  0.00    -0.115 A  
HETATM   21  N   UNL     1      -8.722  12.715  67.100  1.00  0.00    -0.196 NA 
HETATM   22  N   UNL     1      -8.202  13.956  67.272  1.00  0.00    -0.179 NA 
HETATM   23  C   UNL     1      -5.441  13.630  70.193  1.00  0.00    -0.112 A  
HETATM   24  N   UNL     1      -6.691  15.146  68.753  1.00  0.00    -0.096 NA 
HETATM   25  C   UNL     1      -7.112  12.731  68.730  1.00  0.00    -0.089 A  
HETATM   26  C   UNL     1      -5.774  14.889  69.711  1.00  0.00    -0.106 A  
HETATM   27  C   UNL     1      -6.126  12.515  69.709  1.00  0.00    -0.134 A  
BRANCH  22  28
HETATM   28  C   UNL     1      -8.658  15.068  66.451  1.00  0.00    -0.048 C  
BRANCH  28  29
HETATM   29  C   UNL     1      -9.911  14.770  65.662  1.00  0.00    -0.390 A  
HETATM   30  C   UNL     1     -12.284  15.196  65.297  1.00  0.00     0.167 A  
HETATM   31  C   UNL     1     -12.380  14.053  64.507  1.00  0.00    -0.409 A  
HETATM   32  C   UNL     1     -11.058  15.547  65.859  1.00  0.00    -0.205 A  
HETATM   33  C   UNL     1     -11.240  13.292  64.254  1.00  0.00    -0.417 A  
HETATM   34  F   UNL     1     -11.002  16.638  66.635  1.00  0.00    -0.231 F  
HETATM   35  C   UNL     1     -10.013  13.645  64.827  1.00  0.00    -0.147 A  
ENDBRANCH  28  29
ENDBRANCH  22  28
ENDBRANCH  12  19
ENDBRANCH   4   7
ENDBRANCH   2   3
TORSDOF 5
ENDMDL
MODEL      202
REMARK 921   NORMALIZED FREE ENERGY PREDICTED BY IDOCK:   -2.37 KCAL/MOL
REMARK 922        TOTAL FREE ENERGY PREDICTED BY IDOCK:   -3.87 KCAL/MOL
REMARK 923 INTER-LIGAND FREE ENERGY PREDICTED BY IDOCK:   -3.48 KCAL/MOL
REMARK 924 INTRA-LIGAND FREE ENERGY PREDICTED BY IDOCK:   -0.38 KCAL/MOL
REMARK 927      BINDING AFFINITY PREDICTED BY RF-SCORE:    0.00 PKD
ROOT
HETATM    1  C   UNL     1      -6.644  16.751  69.997  1.00  0.00     0.243 C  
HETATM    2  O   UNL     1      -6.826  17.307  68.697  1.00  0.00    -0.187 OA 
ENDROOT
BRANCH   2   3
HETATM    3  C   UNL     1      -7.938  18.082  68.564  1.00  0.00    -0.303 C  
HETATM    4  N   UNL     1      -9.051  17.366  68.149  1.00  0.00    -0.259 N  
HETATM    5  O   UNL     1      -7.952  19.290  68.779  1.00  0.00    -0.351 OA 
HETATM    6  C   UNL     1     -10.341  18.010  67.997  1.00  0.00    -0.387 C  
BRANCH   4   7
HETATM    7  C   UNL     1      -9.010  15.953  67.999  1.00  0.00    -0.182 A  
HETATM    8  C   UNL     1      -9.571  15.096  68.943  1.00  0.00    -0.223 A  
HETATM    9  N   UNL     1     -10.064  15.561  70.164  1.00  0.00    -0.396 NA 
HETATM   10  N   UNL     1      -9.606  13.770  68.781  1.00  0.00    -0.108 NA 
HETATM   11  H1  UNL     1     -10.475  14.934  70.856  1.00  0.00     0.000 HD 
HETATM   12  C   UNL     1      -9.049  13.282  67.656  1.00  0.00    -0.204 A  
HETATM   13  H2  UNL     1     -10.745  16.294  69.966  1.00  0.00     0.000 HD 
HETATM   14  N   UNL     1      -8.451  14.022  66.696  1.00  0.00     0.026 NA 
HETATM   15  H2  UNL     1      -7.028  16.624  66.393  1.00  0.00     0.000 HD 
HETATM   16  H1  UNL     1      -7.341  15.651  65.099  1.00  0.00     0.000 HD 
HETATM   17  C   UNL     1      -8.443  15.350  66.883  1.00  0.00    -0.252 A  
HETATM   18  N   UNL     1      -7.758  16.093  65.918  1.00  0.00     0.581 NA 
BRANCH  12  19
HETATM   19  C   UNL     1      -9.108  11.822  67.451  1.00  0.00    -0.175 A  
HETATM   20  C   UNL     1      -8.876   9.608  67.712  1.00  0.00    -0.125 A  
HETATM   21  N   UNL     1      -9.570  11.262  66.307  1.00  0.00    -0.203 NA 
HETATM   22  N   UNL     1      -9.475   9.927  66.526  1.00  0.00    -0.172 NA 
HETATM   23  C   UNL     1      -7.895   9.496  70.212  1.00  0.00    -0.180 A  
HETATM   24  N   UNL     1      -8.566   8.374  68.156  1.00  0.00    -0.138 NA 
HETATM   25  C   UNL     1      -8.694  10.812  68.376  1.00  0.00    -0.142 A  
HETATM   26  C   UNL     1      -8.069   8.374  69.413  1.00  0.00    -0.114 A  
HETATM   27  C   UNL     1      -8.199  10.754  69.691  1.00  0.00     0.142 A  
BRANCH  22  28
HETATM   28  C   UNL     1      -9.928   8.979  65.520  1.00  0.00     0.278 C  
BRANCH  28  29
HETATM   29  C   UNL     1      -8.853   8.567  64.542  1.00  0.00     0.119 A  
HETATM   30  C   UNL     1      -7.851   8.818  62.333  1.00  0.00    -0.135 A  
HETATM   31  C   UNL     1      -7.127   7.642  62.515  1.00  0.00    -0.078 A  
HETATM   32  C   UNL     1      -8.697   9.272  63.344  1.00  0.00    -0.177 A  
HETATM   33  C   UNL     1      -7.226   6.951  63.721  1.00  0.00    -0.066 A  
HETATM   34  F   UNL     1      -9.400  10.393  63.129  1.00  0.00    -0.214 F  
HETATM   35  C   UNL     1      -8.084   7.408  64.729  1.00  0.00    -0.104 A  
ENDBRANCH  28  29
ENDBRANCH  22  28
ENDBRANCH  12  19
ENDBRANCH   4   7
ENDBRANCH   2   3
TORSDOF 5
ENDMDL
MODEL      203
REMARK 921   NORMALIZED FREE ENERGY PREDICTED BY IDOCK:   -2.26 KCAL/MOL
REMARK 922        TOTAL FREE ENERGY PREDICTED BY IDOCK:   -3.72 KCAL/MOL
REMARK 923 INTER-LIGAND FREE ENERGY PREDICTED BY IDOCK:   -3.47 KCAL/MOL
REMARK 924 INTRA-LIGAND FREE ENERGY PREDICTED BY IDOCK:   -0.25 KCAL/MOL
REMARK 927      BINDING AFFINITY PREDICTED BY RF-SCORE:    0.00 PKD
ROOT
HETATM    1  C   UNL     1      -5.404  11.832  66.951  1.00  0.00    -0.115 C  
HETATM    2  O   UNL     1      -6.087  11.886  68.202  1.00  0.00    -0.049 OA 
ENDROOT
BRANCH   2   3
HETATM    3  C   UNL     1      -7.183  12.694  68.212  1.00  0.00    -0.113 C  
HETATM    4  N   UNL     1      -8.372  11.997  68.063  1.00  0.00    -0.153 N  
HETATM    5  O   UNL     1      -7.124  13.914  68.331  1.00  0.00    -0.086 OA 
HETATM    6  C   UNL     1      -9.650  12.681  68.097  1.00  0.00    -0.219 C  
BRANCH   4   7
HETATM    7  C   UNL     1      -8.398  10.576  68.020  1.00  0.00    -0.116 A  
HETATM    8  C   UNL     1      -8.745   9.881  66.865  1.00  0.00    -0.128 A  
HETATM    9  N   UNL     1      -9.240  10.529  65.731  1.00  0.00    -0.173 NA 
HETATM   10  N   UNL     1      -8.704   8.547  66.787  1.00  0.00    -0.119 NA 
HETATM   11  H1  UNL     1      -9.494  10.021  64.884  1.00  0.00     0.000 HD 
HETATM   12  C   UNL     1      -8.325   7.887  67.898  1.00  0.00    -0.126 A  
HETATM   13  H2  UNL     1      -8.570  11.252  65.470  1.00  0.00     0.000 HD 
HETATM   14  N   UNL     1      -8.001   8.463  69.077  1.00  0.00    -0.109 NA 
HETATM   15  H2  UNL     1      -8.582  10.943  70.627  1.00  0.00     0.000 HD 
HETATM   16  H1  UNL     1      -7.511   9.811  71.170  1.00  0.00     0.000 HD 
HETATM   17  C   UNL     1      -8.041   9.803  69.118  1.00  0.00    -0.107 A  
HETATM   18  N   UNL     1      -7.774  10.379  70.363  1.00  0.00    -0.017 NA 
BRANCH  12  19
HETATM   19  C   UNL     1      -8.246   6.415  67.816  1.00  0.00    -0.118 A  
HETATM   20  C   UNL     1      -7.578   4.288  68.035  1.00  0.00    -0.068 A  
HETATM   21  N   UNL     1      -9.102   5.678  67.069  1.00  0.00    -0.113 NA 
HETATM   22  N   UNL     1      -8.709   4.397  67.277  1.00  0.00    -0.104 NA 
HETATM   23  C   UNL     1      -5.524   4.579  69.745  1.00  0.00    -0.008 A  
HETATM   24  N   UNL     1      -6.907   3.156  68.330  1.00  0.00    -0.048 NA 
HETATM   25  C   UNL     1      -7.292   5.574  68.470  1.00  0.00    -0.076 A  
HETATM   26  C   UNL     1      -5.880   3.359  69.185  1.00  0.00    -0.023 A  
HETATM   27  C   UNL     1      -6.230   5.725  69.380  1.00  0.00    -0.032 A  
BRANCH  22  28
HETATM   28  C   UNL     1      -9.432   3.293  66.663  1.00  0.00    -0.094 C  
BRANCH  28  29
HETATM   29  C   UNL     1      -9.262   3.211  65.165  1.00  0.00    -0.150 A  
HETATM   30  C   UNL     1     -10.240   3.480  62.947  1.00  0.00    -0.173 A  
HETATM   31  C   UNL     1      -9.187   2.766  62.383  1.00  0.00    -0.083 A  
HETATM   32  C   UNL     1     -10.266   3.702  64.324  1.00  0.00    -0.221 A  
HETATM   33  C   UNL     1      -8.148   2.311  63.194  1.00  0.00    -0.069 A  
HETATM   34  F   UNL     1     -11.305   4.372  64.841  1.00  0.00    -0.375 F  
HETATM   35  C   UNL     1      -8.183   2.530  64.576  1.00  0.00    -0.086 A  
ENDBRANCH  28  29
ENDBRANCH  22  28
ENDBRANCH  12  19
ENDBRANCH   4   7
ENDBRANCH   2   3
TORSDOF 5
ENDMDL
MODEL      204
REMARK 921   NORMALIZED FREE ENERGY PREDICTED BY IDOCK:   -2.12 KCAL/MOL
REMARK 922        TOTAL FREE ENERGY PREDICTED BY IDOCK:   -3.55 KCAL/MOL
REMARK 923 INTER-LIGAND FREE ENERGY PREDICTED BY IDOCK:   -4.21 KCAL/MOL
REMARK 924 INTRA-LIGAND FREE ENERGY PREDICTED BY IDOCK:    0.67 KCAL/MOL
REMARK 927      BINDING AFFINITY PREDICTED BY RF-SCORE:    0.00 PKD
ROOT
HETATM    1  C   UNL     1     -11.104  16.396  68.929  1.00  0.00    -0.328 C  
HETATM    2  O   UNL     1     -10.500  17.391  68.105  1.00  0.00    -0.355 OA 
ENDROOT
BRANCH   2   3
HETATM    3  C   UNL     1      -9.335  17.898  68.595  1.00  0.00    -0.277 C  
HETATM    4  N   UNL     1      -8.344  16.940  68.736  1.00  0.00    -0.249 N  
HETATM    5  O   UNL     1      -9.182  19.080  68.889  1.00  0.00    -0.347 OA 
HETATM    6  C   UNL     1      -7.017  17.298  69.199  1.00  0.00    -0.215 C  
BRANCH   4   7
HETATM    7  C   UNL     1      -8.537  15.602  68.297  1.00  0.00    -0.158 A  
HETATM    8  C   UNL     1      -8.718  15.287  66.953  1.00  0.00    -0.258 A  
HETATM    9  N   UNL     1      -8.879  16.273  65.977  1.00  0.00    -0.399 NA 
HETATM   10  N   UNL     1      -8.828  14.028  66.516  1.00  0.00    -0.099 NA 
HETATM   11  H1  UNL     1      -9.011  16.043  64.992  1.00  0.00     0.000 HD 
HETATM   12  C   UNL     1      -8.775  13.057  67.448  1.00  0.00    -0.205 A  
HETATM   13  H2  UNL     1      -8.084  16.908  66.043  1.00  0.00     0.000 HD 
HETATM   14  N   UNL     1      -8.637  13.257  68.777  1.00  0.00     0.047 NA 
HETATM   15  H2  UNL     1      -9.216  15.337  70.833  1.00  0.00     0.000 HD 
HETATM   16  H1  UNL     1      -8.433  13.936  71.213  1.00  0.00     0.000 HD 
HETATM   17  C   UNL     1      -8.517  14.529  69.181  1.00  0.00     0.017 A  
HETATM   18  N   UNL     1      -8.448  14.723  70.564  1.00  0.00     1.296 NA 
BRANCH  12  19
HETATM   19  C   UNL     1      -8.865  11.662  66.975  1.00  0.00    -0.177 A  
HETATM   20  C   UNL     1      -8.417   9.694  66.004  1.00  0.00    -0.124 A  
HETATM   21  N   UNL     1      -9.983  10.910  67.124  1.00  0.00    -0.184 NA 
HETATM   22  N   UNL     1      -9.653   9.711  66.584  1.00  0.00    -0.175 NA 
HETATM   23  C   UNL     1      -5.869  10.079  65.238  1.00  0.00    -0.091 A  
HETATM   24  N   UNL     1      -7.860   8.677  65.316  1.00  0.00    -0.102 NA 
HETATM   25  C   UNL     1      -7.842  10.920  66.306  1.00  0.00    -0.158 A  
HETATM   26  C   UNL     1      -6.583   8.925  64.947  1.00  0.00    -0.069 A  
HETATM   27  C   UNL     1      -6.503  11.116  65.924  1.00  0.00     0.077 A  
BRANCH  22  28
HETATM   28  C   UNL     1     -10.602   8.608  66.599  1.00  0.00    -0.060 C  
BRANCH  28  29
HETATM   29  C   UNL     1     -10.340   7.592  67.685  1.00  0.00    -0.303 A  
HETATM   30  C   UNL     1      -9.986   5.260  68.305  1.00  0.00    -0.214 A  
HETATM   31  C   UNL     1     -10.203   5.571  69.645  1.00  0.00    -0.336 A  
HETATM   32  C   UNL     1     -10.048   6.267  67.343  1.00  0.00    -0.156 A  
HETATM   33  C   UNL     1     -10.444   6.892  70.017  1.00  0.00    -0.231 A  
HETATM   34  F   UNL     1      -9.860   5.933  66.059  1.00  0.00    -0.170 F  
HETATM   35  C   UNL     1     -10.513   7.899  69.045  1.00  0.00    -0.210 A  
ENDBRANCH  28  29
ENDBRANCH  22  28
ENDBRANCH  12  19
ENDBRANCH   4   7
ENDBRANCH   2   3
TORSDOF 5
ENDMDL
MODEL      205
REMARK 921   NORMALIZED FREE ENERGY PREDICTED BY IDOCK:   -1.98 KCAL/MOL
REMARK 922        TOTAL FREE ENERGY PREDICTED BY IDOCK:   -3.37 KCAL/MOL
REMARK 923 INTER-LIGAND FREE ENERGY PREDICTED BY IDOCK:   -2.46 KCAL/MOL
REMARK 924 INTRA-LIGAND FREE ENERGY PREDICTED BY IDOCK:   -0.91 KCAL/MOL
REMARK 927      BINDING AFFINITY PREDICTED BY RF-SCORE:    0.00 PKD
ROOT
HETATM    1  C   UNL     1      -5.246  11.042  67.849  1.00  0.00    -0.039 C  
HETATM    2  O   UNL     1      -6.169  10.948  68.932  1.00  0.00    -0.040 OA 
ENDROOT
BRANCH   2   3
HETATM    3  C   UNL     1      -7.337  11.622  68.738  1.00  0.00    -0.118 C  
HETATM    4  N   UNL     1      -8.403  10.785  68.448  1.00  0.00    -0.125 N  
HETATM    5  O   UNL     1      -7.433  12.843  68.804  1.00  0.00    -0.110 OA 
HETATM    6  C   UNL     1      -9.739  11.314  68.258  1.00  0.00    -0.198 C  
BRANCH   4   7
HETATM    7  C   UNL     1      -8.264   9.370  68.473  1.00  0.00    -0.113 A  
HETATM    8  C   UNL     1      -7.860   8.651  67.351  1.00  0.00    -0.098 A  
HETATM    9  N   UNL     1      -7.721   9.251  66.097  1.00  0.00    -0.096 NA 
HETATM   10  N   UNL     1      -7.654   7.330  67.378  1.00  0.00    -0.103 NA 
HETATM   11  H1  UNL     1      -7.426   8.725  65.275  1.00  0.00     0.000 HD 
HETATM   12  C   UNL     1      -7.875   6.706  68.551  1.00  0.00    -0.110 A  
HETATM   13  H2  UNL     1      -7.091  10.045  66.201  1.00  0.00     0.000 HD 
HETATM   14  N   UNL     1      -8.300   7.305  69.686  1.00  0.00    -0.131 NA 
HETATM   15  H2  UNL     1      -9.865   9.692  70.545  1.00  0.00     0.000 HD 
HETATM   16  H1  UNL     1      -9.156   8.680  71.638  1.00  0.00     0.000 HD 
HETATM   17  C   UNL     1      -8.486   8.631  69.629  1.00  0.00    -0.129 A  
HETATM   18  N   UNL     1      -8.994   9.223  70.789  1.00  0.00    -0.240 NA 
BRANCH  12  19
HETATM   19  C   UNL     1      -7.623   5.253  68.601  1.00  0.00    -0.082 A  
HETATM   20  C   UNL     1      -6.788   3.239  69.114  1.00  0.00    -0.041 A  
HETATM   21  N   UNL     1      -8.222   4.377  67.760  1.00  0.00    -0.098 NA 
HETATM   22  N   UNL     1      -7.743   3.167  68.141  1.00  0.00    -0.059 NA 
HETATM   23  C   UNL     1      -5.174   3.870  71.169  1.00  0.00     0.000 A  
HETATM   24  N   UNL     1      -6.073   2.215  69.624  1.00  0.00    -0.023 NA 
HETATM   25  C   UNL     1      -6.738   4.572  69.495  1.00  0.00    -0.044 A  
HETATM   26  C   UNL     1      -5.272   2.588  70.647  1.00  0.00    -0.004 A  
HETATM   27  C   UNL     1      -5.909   4.901  70.582  1.00  0.00    -0.017 A  
BRANCH  22  28
HETATM   28  C   UNL     1      -8.200   1.951  67.484  1.00  0.00    -0.067 C  
BRANCH  28  29
HETATM   29  C   UNL     1      -8.296   2.068  65.982  1.00  0.00    -0.095 A  
HETATM   30  C   UNL     1      -7.171   2.474  63.857  1.00  0.00    -0.049 A  
HETATM   31  C   UNL     1      -8.400   2.656  63.227  1.00  0.00    -0.085 A  
HETATM   32  C   UNL     1      -7.129   2.176  65.218  1.00  0.00    -0.056 A  
HETATM   33  C   UNL     1      -9.578   2.502  63.956  1.00  0.00    -0.140 A  
HETATM   34  F   UNL     1      -5.931   2.031  65.801  1.00  0.00    -0.019 F  
HETATM   35  C   UNL     1      -9.529   2.211  65.325  1.00  0.00     0.072 A  
ENDBRANCH  28  29
ENDBRANCH  22  28
ENDBRANCH  12  19
ENDBRANCH   4   7
ENDBRANCH   2   3
TORSDOF 5
ENDMDL
MODEL      206
REMARK 921   NORMALIZED FREE ENERGY PREDICTED BY IDOCK:   -1.88 KCAL/MOL
REMARK 922        TOTAL FREE ENERGY PREDICTED BY IDOCK:   -3.23 KCAL/MOL
REMARK 923 INTER-LIGAND FREE ENERGY PREDICTED BY IDOCK:   -4.52 KCAL/MOL
REMARK 924 INTRA-LIGAND FREE ENERGY PREDICTED BY IDOCK:    1.29 KCAL/MOL
REMARK 927      BINDING AFFINITY PREDICTED BY RF-SCORE:    0.00 PKD
ROOT
HETATM    1  C   UNL     1      -9.168   6.115  72.688  1.00  0.00    -0.140 C  
HETATM    2  O   UNL     1      -8.033   5.608  71.988  1.00  0.00    -0.105 OA 
ENDROOT
BRANCH   2   3
HETATM    3  C   UNL     1      -8.301   4.560  71.162  1.00  0.00    -0.091 C  
HETATM    4  N   UNL     1      -9.160   4.892  70.126  1.00  0.00    -0.105 N  
HETATM    5  O   UNL     1      -7.838   3.435  71.324  1.00  0.00    -0.056 OA 
HETATM    6  C   UNL     1      -9.524   3.918  69.115  1.00  0.00    -0.176 C  
BRANCH   4   7
HETATM    7  C   UNL     1      -9.599   6.229  69.925  1.00  0.00    -0.156 A  
HETATM    8  C   UNL     1     -10.902   6.626  70.214  1.00  0.00    -0.271 A  
HETATM    9  N   UNL     1     -11.896   5.710  70.565  1.00  0.00     0.758 NA 
HETATM   10  N   UNL     1     -11.310   7.894  70.101  1.00  0.00    -0.161 NA 
HETATM   11  H1  UNL     1     -12.850   6.000  70.776  1.00  0.00     0.000 HD 
HETATM   12  C   UNL     1     -10.399   8.788  69.670  1.00  0.00    -0.213 A  
HETATM   13  H2  UNL     1     -11.553   5.168  71.358  1.00  0.00     0.000 HD 
HETATM   14  N   UNL     1      -9.122   8.500  69.332  1.00  0.00    -0.149 NA 
HETATM   15  H2  UNL     1      -7.501   6.209  68.326  1.00  0.00     0.000 HD 
HETATM   16  H1  UNL     1      -6.811   7.657  68.710  1.00  0.00     0.000 HD 
HETATM   17  C   UNL     1      -8.741   7.222  69.468  1.00  0.00    -0.134 A  
HETATM   18  N   UNL     1      -7.441   6.928  69.046  1.00  0.00    -0.093 NA 
BRANCH  12  19
HETATM   19  C   UNL     1     -10.828  10.196  69.569  1.00  0.00    -0.255 A  
HETATM   20  C   UNL     1     -11.865  12.152  69.914  1.00  0.00    -0.319 A  
HETATM   21  N   UNL     1     -10.415  11.017  68.573  1.00  0.00    -0.180 NA 
HETATM   22  N   UNL     1     -11.010  12.204  68.851  1.00  0.00    -0.227 NA 
HETATM   23  C   UNL     1     -13.213  11.615  72.177  1.00  0.00    -0.327 A  
HETATM   24  N   UNL     1     -12.659  13.144  70.363  1.00  0.00    -0.177 NA 
HETATM   25  C   UNL     1     -11.715  10.883  70.456  1.00  0.00    -0.441 A  
HETATM   26  C   UNL     1     -13.320  12.820  71.497  1.00  0.00    -0.144 A  
HETATM   27  C   UNL     1     -12.403  10.608  71.650  1.00  0.00    -0.336 A  
BRANCH  22  28
HETATM   28  C   UNL     1     -10.765  13.367  68.011  1.00  0.00    -0.248 C  
BRANCH  28  29
HETATM   29  C   UNL     1      -9.303  13.713  67.860  1.00  0.00    -0.206 A  
HETATM   30  C   UNL     1      -7.090  13.073  67.060  1.00  0.00     0.246 A  
HETATM   31  C   UNL     1      -6.508  14.079  67.826  1.00  0.00    -0.181 A  
HETATM   32  C   UNL     1      -8.474  12.903  67.076  1.00  0.00    -0.142 A  
HETATM   33  C   UNL     1      -7.318  14.932  68.574  1.00  0.00    -0.119 A  
HETATM   34  F   UNL     1      -9.002  11.909  66.348  1.00  0.00    -0.192 F  
HETATM   35  C   UNL     1      -8.707  14.752  68.593  1.00  0.00    -0.178 A  
ENDBRANCH  28  29
ENDBRANCH  22  28
ENDBRANCH  12  19
ENDBRANCH   4   7
ENDBRANCH   2   3
TORSDOF 5
ENDMDL
MODEL      207
REMARK 921   NORMALIZED FREE ENERGY PREDICTED BY IDOCK:   -1.84 KCAL/MOL
REMARK 922        TOTAL FREE ENERGY PREDICTED BY IDOCK:   -3.18 KCAL/MOL
REMARK 923 INTER-LIGAND FREE ENERGY PREDICTED BY IDOCK:   -3.49 KCAL/MOL
REMARK 924 INTRA-LIGAND FREE ENERGY PREDICTED BY IDOCK:    0.31 KCAL/MOL
REMARK 927      BINDING AFFINITY PREDICTED BY RF-SCORE:    0.00 PKD
ROOT
HETATM    1  C   UNL     1      -6.173   7.872  65.309  1.00  0.00    -0.038 C  
HETATM    2  O   UNL     1      -5.564   7.243  66.436  1.00  0.00    -0.023 OA 
ENDROOT
BRANCH   2   3
HETATM    3  C   UNL     1      -6.297   6.236  66.985  1.00  0.00    -0.041 C  
HETATM    4  N   UNL     1      -7.328   6.693  67.791  1.00  0.00    -0.094 N  
HETATM    5  O   UNL     1      -6.063   5.046  66.795  1.00  0.00    -0.029 OA 
HETATM    6  C   UNL     1      -8.247   5.770  68.426  1.00  0.00    -0.108 C  
BRANCH   4   7
HETATM    7  C   UNL     1      -7.618   8.080  67.910  1.00  0.00    -0.112 A  
HETATM    8  C   UNL     1      -8.646   8.681  67.189  1.00  0.00    -0.121 A  
HETATM    9  N   UNL     1      -9.349   8.000  66.193  1.00  0.00    -0.337 NA 
HETATM   10  N   UNL     1      -8.978   9.967  67.344  1.00  0.00    -0.131 NA 
HETATM   11  H1  UNL     1     -10.102   8.440  65.665  1.00  0.00     0.000 HD 
HETATM   12  C   UNL     1      -8.252  10.678  68.228  1.00  0.00    -0.120 A  
HETATM   13  H2  UNL     1      -9.717   7.143  66.604  1.00  0.00     0.000 HD 
HETATM   14  N   UNL     1      -7.215  10.199  68.951  1.00  0.00    -0.075 NA 
HETATM   15  H2  UNL     1      -5.134   8.069  68.802  1.00  0.00     0.000 HD 
HETATM   16  H1  UNL     1      -5.281   9.048  70.122  1.00  0.00     0.000 HD 
HETATM   17  C   UNL     1      -6.915   8.904  68.782  1.00  0.00    -0.063 A  
HETATM   18  N   UNL     1      -5.797   8.444  69.482  1.00  0.00    -0.030 NA 
BRANCH  12  19
HETATM   19  C   UNL     1      -8.627  12.091  68.430  1.00  0.00    -0.147 A  
HETATM   20  C   UNL     1      -8.591  14.261  68.986  1.00  0.00     0.060 A  
HETATM   21  N   UNL     1      -9.878  12.555  68.198  1.00  0.00    -0.217 NA 
HETATM   22  N   UNL     1      -9.802  13.879  68.482  1.00  0.00    -0.227 NA 
HETATM   23  C   UNL     1      -6.012  14.559  69.683  1.00  0.00    -0.111 A  
HETATM   24  N   UNL     1      -8.253  15.485  69.440  1.00  0.00    -0.252 NA 
HETATM   25  C   UNL     1      -7.776  13.142  68.895  1.00  0.00     0.080 A  
HETATM   26  C   UNL     1      -6.949  15.579  69.785  1.00  0.00    -0.132 A  
HETATM   27  C   UNL     1      -6.422  13.302  69.240  1.00  0.00    -0.107 A  
BRANCH  22  28
HETATM   28  C   UNL     1     -10.961  14.741  68.306  1.00  0.00    -0.258 C  
BRANCH  28  29
HETATM   29  C   UNL     1     -11.044  15.379  66.939  1.00  0.00    -0.256 A  
HETATM   30  C   UNL     1     -10.763  17.368  65.557  1.00  0.00    -0.081 A  
HETATM   31  C   UNL     1     -11.489  16.771  64.529  1.00  0.00     0.370 A  
HETATM   32  C   UNL     1     -10.541  16.669  66.743  1.00  0.00    -0.214 A  
HETATM   33  C   UNL     1     -11.956  15.466  64.682  1.00  0.00    -0.176 A  
HETATM   34  F   UNL     1      -9.860  17.279  67.723  1.00  0.00    -0.255 F  
HETATM   35  C   UNL     1     -11.737  14.773  65.879  1.00  0.00    -0.248 A  
ENDBRANCH  28  29
ENDBRANCH  22  28
ENDBRANCH  12  19
ENDBRANCH   4   7
ENDBRANCH   2   3
TORSDOF 5
ENDMDL
MODEL      208
REMARK 921   NORMALIZED FREE ENERGY PREDICTED BY IDOCK:   -1.09 KCAL/MOL
REMARK 922        TOTAL FREE ENERGY PREDICTED BY IDOCK:   -2.22 KCAL/MOL
REMARK 923 INTER-LIGAND FREE ENERGY PREDICTED BY IDOCK:   -2.92 KCAL/MOL
REMARK 924 INTRA-LIGAND FREE ENERGY PREDICTED BY IDOCK:    0.71 KCAL/MOL
REMARK 927      BINDING AFFINITY PREDICTED BY RF-SCORE:    0.00 PKD
ROOT
HETATM    1  C   UNL     1      -5.128  12.317  66.800  1.00  0.00     0.187 C  
HETATM    2  O   UNL     1      -5.635  12.855  68.020  1.00  0.00    -0.080 OA 
ENDROOT
BRANCH   2   3
HETATM    3  C   UNL     1      -6.736  13.643  67.874  1.00  0.00    -0.153 C  
HETATM    4  N   UNL     1      -7.902  12.917  67.685  1.00  0.00    -0.154 N  
HETATM    5  O   UNL     1      -6.699  14.869  67.899  1.00  0.00    -0.128 OA 
HETATM    6  C   UNL     1      -9.184  13.581  67.559  1.00  0.00    -0.219 C  
BRANCH   4   7
HETATM    7  C   UNL     1      -7.911  11.497  67.756  1.00  0.00    -0.126 A  
HETATM    8  C   UNL     1      -8.146  10.706  66.634  1.00  0.00    -0.136 A  
HETATM    9  N   UNL     1      -8.543  11.254  65.412  1.00  0.00    -0.386 NA 
HETATM   10  N   UNL     1      -8.085   9.371  66.669  1.00  0.00    -0.108 NA 
HETATM   11  H1  UNL     1      -8.715  10.675  64.590  1.00  0.00     0.000 HD 
HETATM   12  C   UNL     1      -7.801   8.808  67.859  1.00  0.00    -0.102 A  
HETATM   13  H2  UNL     1      -7.859  11.964  65.153  1.00  0.00     0.000 HD 
HETATM   14  N   UNL     1      -7.590   9.482  69.011  1.00  0.00    -0.073 NA 
HETATM   15  H2  UNL     1      -8.331  12.068  70.297  1.00  0.00     0.000 HD 
HETATM   16  H1  UNL     1      -7.303  11.001  71.023  1.00  0.00     0.000 HD 
HETATM   17  C   UNL     1      -7.646  10.820  68.940  1.00  0.00    -0.121 A  
HETATM   18  N   UNL     1      -7.497  11.498  70.153  1.00  0.00     0.719 NA 
BRANCH  12  19
HETATM   19  C   UNL     1      -7.702   7.336  67.904  1.00  0.00    -0.113 A  
HETATM   20  C   UNL     1      -7.820   5.162  67.377  1.00  0.00    -0.096 A  
HETATM   21  N   UNL     1      -7.319   6.663  69.015  1.00  0.00    -0.091 NA 
HETATM   22  N   UNL     1      -7.340   5.360  68.640  1.00  0.00    -0.073 NA 
HETATM   23  C   UNL     1      -8.574   5.308  64.801  1.00  0.00    -0.136 A  
HETATM   24  N   UNL     1      -8.040   3.978  66.771  1.00  0.00    -0.097 NA 
HETATM   25  C   UNL     1      -7.992   6.428  66.838  1.00  0.00    -0.109 A  
HETATM   26  C   UNL     1      -8.426   4.107  65.482  1.00  0.00    -0.110 A  
HETATM   27  C   UNL     1      -8.368   6.507  65.485  1.00  0.00    -0.146 A  
BRANCH  22  28
HETATM   28  C   UNL     1      -6.939   4.316  69.572  1.00  0.00    -0.046 C  
BRANCH  28  29
HETATM   29  C   UNL     1      -8.083   3.740  70.372  1.00  0.00    -0.061 A  
HETATM   30  C   UNL     1      -9.684   4.007  72.191  1.00  0.00    -0.221 A  
HETATM   31  C   UNL     1      -9.972   2.645  72.154  1.00  0.00    -0.236 A  
HETATM   32  C   UNL     1      -8.754   4.542  71.301  1.00  0.00    -0.112 A  
HETATM   33  C   UNL     1      -9.355   1.836  71.202  1.00  0.00    -0.189 A  
HETATM   34  F   UNL     1      -8.479   5.852  71.378  1.00  0.00    -0.121 F  
HETATM   35  C   UNL     1      -8.415   2.377  70.316  1.00  0.00    -0.087 A  
ENDBRANCH  28  29
ENDBRANCH  22  28
ENDBRANCH  12  19
ENDBRANCH   4   7
ENDBRANCH   2   3
TORSDOF 5
ENDMDL
MODEL      209
REMARK 921   NORMALIZED FREE ENERGY PREDICTED BY IDOCK:   -0.79 KCAL/MOL
REMARK 922        TOTAL FREE ENERGY PREDICTED BY IDOCK:   -1.82 KCAL/MOL
REMARK 923 INTER-LIGAND FREE ENERGY PREDICTED BY IDOCK:   -3.04 KCAL/MOL
REMARK 924 INTRA-LIGAND FREE ENERGY PREDICTED BY IDOCK:    1.22 KCAL/MOL
REMARK 927      BINDING AFFINITY PREDICTED BY RF-SCORE:    0.00 PKD
ROOT
HETATM    1  C   UNL     1      -5.150  12.918  66.930  1.00  0.00     0.615 C  
HETATM    2  O   UNL     1      -5.435  13.761  68.045  1.00  0.00    -0.105 OA 
ENDROOT
BRANCH   2   3
HETATM    3  C   UNL     1      -6.368  14.723  67.801  1.00  0.00    -0.153 C  
HETATM    4  N   UNL     1      -7.667  14.242  67.846  1.00  0.00    -0.136 N  
HETATM    5  O   UNL     1      -6.087  15.892  67.557  1.00  0.00    -0.144 OA 
HETATM    6  C   UNL     1      -8.800  15.128  67.659  1.00  0.00    -0.173 C  
BRANCH   4   7
HETATM    7  C   UNL     1      -7.949  12.901  68.222  1.00  0.00    -0.151 A  
HETATM    8  C   UNL     1      -8.638  12.030  67.382  1.00  0.00    -0.171 A  
HETATM    9  N   UNL     1      -9.230  12.462  66.193  1.00  0.00    -0.397 NA 
HETATM   10  N   UNL     1      -8.846  10.746  67.690  1.00  0.00    -0.132 NA 
HETATM   11  H1  UNL     1      -9.734  11.824  65.577  1.00  0.00     0.000 HD 
HETATM   12  C   UNL     1      -8.372  10.323  68.877  1.00  0.00    -0.136 A  
HETATM   13  H2  UNL     1      -8.511  12.925  65.638  1.00  0.00     0.000 HD 
HETATM   14  N   UNL     1      -7.722  11.093  69.778  1.00  0.00     0.238 NA 
HETATM   15  H2  UNL     1      -7.536  13.951  70.607  1.00  0.00     0.000 HD 
HETATM   16  H1  UNL     1      -6.593  12.785  71.294  1.00  0.00     0.000 HD 
HETATM   17  C   UNL     1      -7.518  12.373  69.434  1.00  0.00     0.407 A  
HETATM   18  N   UNL     1      -6.909  13.173  70.405  1.00  0.00     0.590 NA 
BRANCH  12  19
HETATM   19  C   UNL     1      -8.570   8.900  69.216  1.00  0.00    -0.133 A  
HETATM   20  C   UNL     1      -9.309   6.786  69.247  1.00  0.00    -0.144 A  
HETATM   21  N   UNL     1      -7.974   8.313  70.282  1.00  0.00    -0.099 NA 
HETATM   22  N   UNL     1      -8.392   7.024  70.230  1.00  0.00    -0.132 NA 
HETATM   23  C   UNL     1     -10.860   6.763  67.051  1.00  0.00    -0.453 A  
HETATM   24  N   UNL     1      -9.965   5.631  69.014  1.00  0.00    -0.160 NA 
HETATM   25  C   UNL     1      -9.392   7.962  68.517  1.00  0.00    -0.141 A  
HETATM   26  C   UNL     1     -10.736   5.675  67.905  1.00  0.00    -0.158 A  
HETATM   27  C   UNL     1     -10.187   7.946  67.357  1.00  0.00    -0.320 A  
BRANCH  22  28
HETATM   28  C   UNL     1      -7.918   6.054  71.206  1.00  0.00    -0.113 C  
BRANCH  28  29
HETATM   29  C   UNL     1      -9.007   5.499  72.093  1.00  0.00    -0.142 A  
HETATM   30  C   UNL     1     -10.399   3.601  72.730  1.00  0.00    -0.239 A  
HETATM   31  C   UNL     1     -11.252   4.447  73.434  1.00  0.00    -0.386 A  
HETATM   32  C   UNL     1      -9.287   4.128  72.076  1.00  0.00    -0.130 A  
HETATM   33  C   UNL     1     -10.965   5.809  73.509  1.00  0.00    -0.208 A  
HETATM   34  F   UNL     1      -8.499   3.292  71.385  1.00  0.00    -0.064 F  
HETATM   35  C   UNL     1      -9.851   6.334  72.844  1.00  0.00    -0.174 A  
ENDBRANCH  28  29
ENDBRANCH  22  28
ENDBRANCH  12  19
ENDBRANCH   4   7
ENDBRANCH   2   3
TORSDOF 5
ENDMDL
MODEL      210
REMARK 921   NORMALIZED FREE ENERGY PREDICTED BY IDOCK:   -0.23 KCAL/MOL
REMARK 922        TOTAL FREE ENERGY PREDICTED BY IDOCK:   -1.10 KCAL/MOL
REMARK 923 INTER-LIGAND FREE ENERGY PREDICTED BY IDOCK:   -2.18 KCAL/MOL
REMARK 924 INTRA-LIGAND FREE ENERGY PREDICTED BY IDOCK:    1.08 KCAL/MOL
REMARK 927      BINDING AFFINITY PREDICTED BY RF-SCORE:    0.00 PKD
ROOT
HETATM    1  C   UNL     1      -5.129  12.901  66.914  1.00  0.00     0.615 C  
HETATM    2  O   UNL     1      -5.422  13.717  68.047  1.00  0.00    -0.105 OA 
ENDROOT
BRANCH   2   3
HETATM    3  C   UNL     1      -6.331  14.703  67.813  1.00  0.00    -0.152 C  
HETATM    4  N   UNL     1      -7.637  14.238  67.773  1.00  0.00    -0.148 N  
HETATM    5  O   UNL     1      -6.026  15.880  67.646  1.00  0.00    -0.137 OA 
HETATM    6  C   UNL     1      -8.749  15.148  67.583  1.00  0.00    -0.170 C  
BRANCH   4   7
HETATM    7  C   UNL     1      -7.951  12.882  68.063  1.00  0.00    -0.158 A  
HETATM    8  C   UNL     1      -8.616  12.070  67.149  1.00  0.00    -0.182 A  
HETATM    9  N   UNL     1      -9.153  12.574  65.963  1.00  0.00    -0.433 NA 
HETATM   10  N   UNL     1      -8.853  10.774  67.378  1.00  0.00    -0.129 NA 
HETATM   11  H1  UNL     1      -9.640  11.979  65.294  1.00  0.00     0.000 HD 
HETATM   12  C   UNL     1      -8.432  10.279  68.558  1.00  0.00    -0.121 A  
HETATM   13  H2  UNL     1      -8.406  13.057  65.464  1.00  0.00     0.000 HD 
HETATM   14  N   UNL     1      -7.809  10.990  69.524  1.00  0.00     0.006 NA 
HETATM   15  H2  UNL     1      -7.621  13.795  70.517  1.00  0.00     0.000 HD 
HETATM   16  H1  UNL     1      -6.721  12.579  71.176  1.00  0.00     0.000 HD 
HETATM   17  C   UNL     1      -7.576  12.283  69.260  1.00  0.00     0.327 A  
HETATM   18  N   UNL     1      -6.997  13.019  70.297  1.00  0.00     0.706 NA 
BRANCH  12  19
HETATM   19  C   UNL     1      -8.661   8.843  68.809  1.00  0.00    -0.137 A  
HETATM   20  C   UNL     1      -9.199   6.895  69.775  1.00  0.00    -0.147 A  
HETATM   21  N   UNL     1      -8.288   7.879  67.934  1.00  0.00    -0.125 NA 
HETATM   22  N   UNL     1      -8.686   6.723  68.521  1.00  0.00    -0.125 NA 
HETATM   23  C   UNL     1     -10.341   7.758  72.050  1.00  0.00    -0.267 A  
HETATM   24  N   UNL     1      -9.590   5.927  70.629  1.00  0.00    -0.170 NA 
HETATM   25  C   UNL     1      -9.272   8.267  69.967  1.00  0.00    -0.151 A  
HETATM   26  C   UNL     1     -10.148   6.414  71.759  1.00  0.00    -0.185 A  
HETATM   27  C   UNL     1      -9.886   8.720  71.148  1.00  0.00    -0.313 A  
BRANCH  22  28
HETATM   28  C   UNL     1      -8.493   5.448  67.847  1.00  0.00    -0.098 C  
BRANCH  28  29
HETATM   29  C   UNL     1      -7.542   4.518  68.562  1.00  0.00    -0.064 A  
HETATM   30  C   UNL     1      -7.214   2.473  69.849  1.00  0.00    -0.040 A  
HETATM   31  C   UNL     1      -5.939   2.894  70.216  1.00  0.00    -0.019 A  
HETATM   32  C   UNL     1      -7.998   3.279  69.025  1.00  0.00    -0.053 A  
HETATM   33  C   UNL     1      -5.443   4.101  69.725  1.00  0.00    -0.012 A  
HETATM   34  F   UNL     1      -9.231   2.858  68.709  1.00  0.00    -0.158 F  
HETATM   35  C   UNL     1      -6.237   4.910  68.904  1.00  0.00    -0.031 A  
ENDBRANCH  28  29
ENDBRANCH  22  28
ENDBRANCH  12  19
ENDBRANCH   4   7
ENDBRANCH   2   3
TORSDOF 5
ENDMDL
MODEL      211
REMARK 921   NORMALIZED FREE ENERGY PREDICTED BY IDOCK:   -0.22 KCAL/MOL
REMARK 922        TOTAL FREE ENERGY PREDICTED BY IDOCK:   -1.08 KCAL/MOL
REMARK 923 INTER-LIGAND FREE ENERGY PREDICTED BY IDOCK:   -3.25 KCAL/MOL
REMARK 924 INTRA-LIGAND FREE ENERGY PREDICTED BY IDOCK:    2.16 KCAL/MOL
REMARK 927      BINDING AFFINITY PREDICTED BY RF-SCORE:    0.00 PKD
ROOT
HETATM    1  C   UNL     1     -10.770   5.464  66.955  1.00  0.00    -0.184 C  
HETATM    2  O   UNL     1     -10.702   5.082  65.582  1.00  0.00    -0.159 OA 
ENDROOT
BRANCH   2   3
HETATM    3  C   UNL     1      -9.753   4.146  65.303  1.00  0.00    -0.199 C  
HETATM    4  N   UNL     1      -8.467   4.572  65.597  1.00  0.00    -0.115 N  
HETATM    5  O   UNL     1     -10.009   3.043  64.830  1.00  0.00    -0.052 OA 
HETATM    6  C   UNL     1      -7.328   3.695  65.412  1.00  0.00    -0.076 C  
BRANCH   4   7
HETATM    7  C   UNL     1      -8.227   5.823  66.228  1.00  0.00    -0.109 A  
HETATM    8  C   UNL     1      -7.863   5.913  67.569  1.00  0.00    -0.098 A  
HETATM    9  N   UNL     1      -7.866   4.801  68.414  1.00  0.00    -0.081 NA 
HETATM   10  N   UNL     1      -7.561   7.076  68.157  1.00  0.00    -0.105 NA 
HETATM   11  H1  UNL     1      -7.599   4.866  69.396  1.00  0.00     0.000 HD 
HETATM   12  C   UNL     1      -7.645   8.181  67.392  1.00  0.00    -0.101 A  
HETATM   13  H2  UNL     1      -7.287   4.081  67.982  1.00  0.00     0.000 HD 
HETATM   14  N   UNL     1      -8.020   8.206  66.094  1.00  0.00    -0.098 NA 
HETATM   15  H2  UNL     1      -9.678   6.634  64.179  1.00  0.00     0.000 HD 
HETATM   16  H1  UNL     1      -8.815   7.954  63.698  1.00  0.00     0.000 HD 
HETATM   17  C   UNL     1      -8.303   7.023  65.531  1.00  0.00    -0.133 A  
HETATM   18  N   UNL     1      -8.759   7.074  64.210  1.00  0.00     0.442 NA 
BRANCH  12  19
HETATM   19  C   UNL     1      -7.286   9.467  68.021  1.00  0.00    -0.079 A  
HETATM   20  C   UNL     1      -6.531  11.018  69.451  1.00  0.00    -0.095 A  
HETATM   21  N   UNL     1      -7.641  10.663  67.494  1.00  0.00    -0.093 NA 
HETATM   22  N   UNL     1      -7.113  11.575  68.348  1.00  0.00    -0.076 NA 
HETATM   23  C   UNL     1      -5.308   9.469  71.276  1.00  0.00    -0.059 A  
HETATM   24  N   UNL     1      -6.007  11.673  70.507  1.00  0.00    -0.285 NA 
HETATM   25  C   UNL     1      -6.554   9.648  69.237  1.00  0.00    -0.048 A  
HETATM   26  C   UNL     1      -5.413  10.848  71.398  1.00  0.00     0.061 A  
HETATM   27  C   UNL     1      -5.898   8.837  70.180  1.00  0.00    -0.027 A  
BRANCH  22  28
HETATM   28  C   UNL     1      -7.251  13.000  68.085  1.00  0.00    -0.116 C  
BRANCH  28  29
HETATM   29  C   UNL     1      -8.588  13.386  67.500  1.00  0.00    -0.200 A  
HETATM   30  C   UNL     1     -10.989  12.979  67.363  1.00  0.00    -0.284 A  
HETATM   31  C   UNL     1     -11.071  13.774  66.223  1.00  0.00    -0.302 A  
HETATM   32  C   UNL     1      -9.758  12.798  67.993  1.00  0.00    -0.220 A  
HETATM   33  C   UNL     1      -9.928  14.412  65.743  1.00  0.00    -0.354 A  
HETATM   34  F   UNL     1      -9.706  12.007  69.074  1.00  0.00    -0.122 F  
HETATM   35  C   UNL     1      -8.693  14.220  66.375  1.00  0.00     0.116 A  
ENDBRANCH  28  29
ENDBRANCH  22  28
ENDBRANCH  12  19
ENDBRANCH   4   7
ENDBRANCH   2   3
TORSDOF 5
ENDMDL
MODEL      212
REMARK 921   NORMALIZED FREE ENERGY PREDICTED BY IDOCK:   -0.18 KCAL/MOL
REMARK 922        TOTAL FREE ENERGY PREDICTED BY IDOCK:   -1.04 KCAL/MOL
REMARK 923 INTER-LIGAND FREE ENERGY PREDICTED BY IDOCK:   -1.75 KCAL/MOL
REMARK 924 INTRA-LIGAND FREE ENERGY PREDICTED BY IDOCK:    0.71 KCAL/MOL
REMARK 927      BINDING AFFINITY PREDICTED BY RF-SCORE:    0.00 PKD
ROOT
HETATM    1  C   UNL     1      -5.126  12.882  66.712  1.00  0.00     0.881 C  
HETATM    2  O   UNL     1      -5.515  13.389  67.987  1.00  0.00    -0.095 OA 
ENDROOT
BRANCH   2   3
HETATM    3  C   UNL     1      -6.555  14.269  67.952  1.00  0.00    -0.165 C  
HETATM    4  N   UNL     1      -7.790  13.654  68.085  1.00  0.00    -0.131 N  
HETATM    5  O   UNL     1      -6.413  15.479  67.807  1.00  0.00    -0.137 OA 
HETATM    6  C   UNL     1      -9.013  14.431  68.118  1.00  0.00    -0.185 C  
BRANCH   4   7
HETATM    7  C   UNL     1      -7.901  12.260  68.341  1.00  0.00    -0.151 A  
HETATM    8  C   UNL     1      -8.572  11.403  67.473  1.00  0.00    -0.137 A  
HETATM    9  N   UNL     1      -9.309  11.878  66.386  1.00  0.00    -0.222 NA 
HETATM   10  N   UNL     1      -8.622  10.080  67.662  1.00  0.00    -0.118 NA 
HETATM   11  H1  UNL     1      -9.800  11.251  65.749  1.00  0.00     0.000 HD 
HETATM   12  C   UNL     1      -8.003   9.601  68.757  1.00  0.00    -0.089 A  
HETATM   13  H2  UNL     1      -8.692  12.468  65.827  1.00  0.00     0.000 HD 
HETATM   14  N   UNL     1      -7.354  10.349  69.677  1.00  0.00    -0.142 NA 
HETATM   15  H2  UNL     1      -7.382  13.118  70.782  1.00  0.00     0.000 HD 
HETATM   16  H1  UNL     1      -6.268  12.002  71.267  1.00  0.00     0.000 HD 
HETATM   17  C   UNL     1      -7.312  11.669  69.453  1.00  0.00     0.097 A  
HETATM   18  N   UNL     1      -6.701  12.435  70.450  1.00  0.00     0.386 NA 
BRANCH  12  19
HETATM   19  C   UNL     1      -8.025   8.139  68.961  1.00  0.00    -0.113 A  
HETATM   20  C   UNL     1      -8.665   5.994  69.031  1.00  0.00    -0.122 A  
HETATM   21  N   UNL     1      -7.025   7.473  69.586  1.00  0.00    -0.052 NA 
HETATM   22  N   UNL     1      -7.416   6.175  69.552  1.00  0.00    -0.090 NA 
HETATM   23  C   UNL     1     -11.010   6.125  67.722  1.00  0.00    -0.400 A  
HETATM   24  N   UNL     1      -9.349   4.834  68.953  1.00  0.00    -0.125 NA 
HETATM   25  C   UNL     1      -9.062   7.238  68.564  1.00  0.00    -0.136 A  
HETATM   26  C   UNL     1     -10.523   4.957  68.294  1.00  0.00     0.130 A  
HETATM   27  C   UNL     1     -10.278   7.305  67.862  1.00  0.00    -0.237 A  
BRANCH  22  28
HETATM   28  C   UNL     1      -6.561   5.131  70.099  1.00  0.00    -0.039 C  
BRANCH  28  29
HETATM   29  C   UNL     1      -6.312   5.262  71.582  1.00  0.00    -0.034 A  
HETATM   30  C   UNL     1      -6.955   4.661  73.856  1.00  0.00    -0.075 A  
HETATM   31  C   UNL     1      -6.174   5.696  74.364  1.00  0.00    -0.065 A  
HETATM   32  C   UNL     1      -7.011   4.448  72.479  1.00  0.00    -0.057 A  
HETATM   33  C   UNL     1      -5.427   6.488  73.493  1.00  0.00    -0.042 A  
HETATM   34  F   UNL     1      -7.791   3.460  72.019  1.00  0.00    -0.053 F  
HETATM   35  C   UNL     1      -5.494   6.275  72.111  1.00  0.00    -0.031 A  
ENDBRANCH  28  29
ENDBRANCH  22  28
ENDBRANCH  12  19
ENDBRANCH   4   7
ENDBRANCH   2   3
TORSDOF 5
ENDMDL
MODEL      213
REMARK 921   NORMALIZED FREE ENERGY PREDICTED BY IDOCK:    0.15 KCAL/MOL
REMARK 922        TOTAL FREE ENERGY PREDICTED BY IDOCK:   -0.61 KCAL/MOL
REMARK 923 INTER-LIGAND FREE ENERGY PREDICTED BY IDOCK:   -1.41 KCAL/MOL
REMARK 924 INTRA-LIGAND FREE ENERGY PREDICTED BY IDOCK:    0.80 KCAL/MOL
REMARK 927      BINDING AFFINITY PREDICTED BY RF-SCORE:    0.00 PKD
ROOT
HETATM    1  C   UNL     1      -5.126  12.882  66.712  1.00  0.00     0.881 C  
HETATM    2  O   UNL     1      -5.515  13.389  67.987  1.00  0.00    -0.095 OA 
ENDROOT
BRANCH   2   3
HETATM    3  C   UNL     1      -6.555  14.269  67.952  1.00  0.00    -0.165 C  
HETATM    4  N   UNL     1      -7.790  13.654  68.085  1.00  0.00    -0.131 N  
HETATM    5  O   UNL     1      -6.413  15.479  67.807  1.00  0.00    -0.137 OA 
HETATM    6  C   UNL     1      -9.013  14.431  68.118  1.00  0.00    -0.185 C  
BRANCH   4   7
HETATM    7  C   UNL     1      -7.901  12.260  68.341  1.00  0.00    -0.151 A  
HETATM    8  C   UNL     1      -8.572  11.403  67.473  1.00  0.00    -0.137 A  
HETATM    9  N   UNL     1      -9.309  11.878  66.386  1.00  0.00    -0.222 NA 
HETATM   10  N   UNL     1      -8.622  10.080  67.662  1.00  0.00    -0.118 NA 
HETATM   11  H1  UNL     1      -9.800  11.251  65.749  1.00  0.00     0.000 HD 
HETATM   12  C   UNL     1      -8.003   9.601  68.757  1.00  0.00    -0.089 A  
HETATM   13  H2  UNL     1      -8.692  12.468  65.827  1.00  0.00     0.000 HD 
HETATM   14  N   UNL     1      -7.354  10.349  69.677  1.00  0.00    -0.142 NA 
HETATM   15  H2  UNL     1      -7.382  13.118  70.782  1.00  0.00     0.000 HD 
HETATM   16  H1  UNL     1      -6.268  12.002  71.267  1.00  0.00     0.000 HD 
HETATM   17  C   UNL     1      -7.312  11.669  69.453  1.00  0.00     0.097 A  
HETATM   18  N   UNL     1      -6.701  12.435  70.450  1.00  0.00     0.386 NA 
BRANCH  12  19
HETATM   19  C   UNL     1      -8.025   8.139  68.961  1.00  0.00    -0.113 A  
HETATM   20  C   UNL     1      -7.562   6.066  69.674  1.00  0.00    -0.089 A  
HETATM   21  N   UNL     1      -8.812   7.312  68.233  1.00  0.00    -0.128 NA 
HETATM   22  N   UNL     1      -8.554   6.078  68.735  1.00  0.00    -0.112 NA 
HETATM   23  C   UNL     1      -5.775   6.587  71.613  1.00  0.00    -0.036 A  
HETATM   24  N   UNL     1      -7.032   4.983  70.277  1.00  0.00    -0.050 NA 
HETATM   25  C   UNL     1      -7.248   7.397  69.905  1.00  0.00    -0.081 A  
HETATM   26  C   UNL     1      -6.134   5.300  71.236  1.00  0.00    -0.029 A  
HETATM   27  C   UNL     1      -6.328   7.673  70.932  1.00  0.00    -0.038 A  
BRANCH  22  28
HETATM   28  C   UNL     1      -9.258   4.911  68.225  1.00  0.00    -0.123 C  
BRANCH  28  29
HETATM   29  C   UNL     1      -8.996   4.631  66.764  1.00  0.00    -0.112 A  
HETATM   30  C   UNL     1      -7.690   3.446  65.080  1.00  0.00    -0.081 A  
HETATM   31  C   UNL     1      -8.180   4.291  64.088  1.00  0.00    -0.099 A  
HETATM   32  C   UNL     1      -8.105   3.616  66.400  1.00  0.00    -0.099 A  
HETATM   33  C   UNL     1      -9.109   5.276  64.418  1.00  0.00     0.156 A  
HETATM   34  F   UNL     1      -7.597   2.802  67.337  1.00  0.00    -0.062 F  
HETATM   35  C   UNL     1      -9.516   5.448  65.747  1.00  0.00    -0.104 A  
ENDBRANCH  28  29
ENDBRANCH  22  28
ENDBRANCH  12  19
ENDBRANCH   4   7
ENDBRANCH   2   3
TORSDOF 5
ENDMDL
MODEL      214
REMARK 921   NORMALIZED FREE ENERGY PREDICTED BY IDOCK:    0.63 KCAL/MOL
REMARK 922        TOTAL FREE ENERGY PREDICTED BY IDOCK:    0.02 KCAL/MOL
REMARK 923 INTER-LIGAND FREE ENERGY PREDICTED BY IDOCK:   -3.11 KCAL/MOL
REMARK 924 INTRA-LIGAND FREE ENERGY PREDICTED BY IDOCK:    3.13 KCAL/MOL
REMARK 927      BINDING AFFINITY PREDICTED BY RF-SCORE:    0.00 PKD
ROOT
HETATM    1  C   UNL     1      -5.247  11.045  67.847  1.00  0.00    -0.039 C  
HETATM    2  O   UNL     1      -6.155  10.960  68.943  1.00  0.00    -0.040 OA 
ENDROOT
BRANCH   2   3
HETATM    3  C   UNL     1      -7.331  11.622  68.755  1.00  0.00    -0.118 C  
HETATM    4  N   UNL     1      -8.403  10.770  68.539  1.00  0.00    -0.131 N  
HETATM    5  O   UNL     1      -7.429  12.845  68.766  1.00  0.00    -0.110 OA 
HETATM    6  C   UNL     1      -9.746  11.287  68.365  1.00  0.00    -0.194 C  
BRANCH   4   7
HETATM    7  C   UNL     1      -8.258   9.358  68.626  1.00  0.00    -0.112 A  
HETATM    8  C   UNL     1      -9.043   8.589  69.481  1.00  0.00    -0.150 A  
HETATM    9  N   UNL     1      -9.905   9.167  70.416  1.00  0.00    -0.201 NA 
HETATM   10  N   UNL     1      -8.971   7.255  69.520  1.00  0.00    -0.144 NA 
HETATM   11  H1  UNL     1     -10.480   8.604  71.042  1.00  0.00     0.000 HD 
HETATM   12  C   UNL     1      -8.077   6.672  68.698  1.00  0.00    -0.119 A  
HETATM   13  H2  UNL     1     -10.523   9.805  69.916  1.00  0.00     0.000 HD 
HETATM   14  N   UNL     1      -7.247   7.328  67.857  1.00  0.00    -0.088 NA 
HETATM   15  H2  UNL     1      -5.911   9.980  67.594  1.00  0.00     0.000 HD 
HETATM   16  H1  UNL     1      -5.773   8.820  66.429  1.00  0.00     0.000 HD 
HETATM   17  C   UNL     1      -7.353   8.664  67.832  1.00  0.00    -0.092 A  
HETATM   18  N   UNL     1      -6.438   9.330  67.012  1.00  0.00    -0.066 NA 
BRANCH  12  19
HETATM   19  C   UNL     1      -8.008   5.198  68.710  1.00  0.00    -0.082 A  
HETATM   20  C   UNL     1      -8.107   3.042  68.111  1.00  0.00    -0.069 A  
HETATM   21  N   UNL     1      -7.756   4.487  69.836  1.00  0.00    -0.057 NA 
HETATM   22  N   UNL     1      -7.760   3.195  69.423  1.00  0.00    -0.047 NA 
HETATM   23  C   UNL     1      -8.582   3.273  65.475  1.00  0.00    -0.114 A  
HETATM   24  N   UNL     1      -8.282   1.879  67.451  1.00  0.00    -0.066 NA 
HETATM   25  C   UNL     1      -8.200   4.325  67.594  1.00  0.00    -0.098 A  
HETATM   26  C   UNL     1      -8.527   2.051  66.133  1.00  0.00    -0.102 A  
HETATM   27  C   UNL     1      -8.429   4.448  66.212  1.00  0.00    -0.112 A  
BRANCH  22  28
HETATM   28  C   UNL     1      -7.477   2.119  70.361  1.00  0.00    -0.036 C  
BRANCH  28  29
HETATM   29  C   UNL     1      -8.155   2.283  71.700  1.00  0.00    -0.052 A  
HETATM   30  C   UNL     1     -10.231   2.473  72.965  1.00  0.00    -0.219 A  
HETATM   31  C   UNL     1      -9.527   2.932  74.075  1.00  0.00    -0.112 A  
HETATM   32  C   UNL     1      -9.544   2.147  71.797  1.00  0.00    -0.135 A  
HETATM   33  C   UNL     1      -8.137   3.026  74.020  1.00  0.00    -0.069 A  
HETATM   34  F   UNL     1     -10.252   1.732  70.736  1.00  0.00    -0.094 F  
HETATM   35  C   UNL     1      -7.453   2.705  72.841  1.00  0.00    -0.045 A  
ENDBRANCH  28  29
ENDBRANCH  22  28
ENDBRANCH  12  19
ENDBRANCH   4   7
ENDBRANCH   2   3
TORSDOF 5
ENDMDL
MODEL      215
REMARK 921   NORMALIZED FREE ENERGY PREDICTED BY IDOCK:    0.93 KCAL/MOL
REMARK 922        TOTAL FREE ENERGY PREDICTED BY IDOCK:    0.39 KCAL/MOL
REMARK 923 INTER-LIGAND FREE ENERGY PREDICTED BY IDOCK:   -1.27 KCAL/MOL
REMARK 924 INTRA-LIGAND FREE ENERGY PREDICTED BY IDOCK:    1.66 KCAL/MOL
REMARK 927      BINDING AFFINITY PREDICTED BY RF-SCORE:    0.00 PKD
ROOT
HETATM    1  C   UNL     1     -11.251  17.373  69.536  1.00  0.00     0.981 C  
HETATM    2  O   UNL     1     -10.971  15.999  69.796  1.00  0.00    -0.282 OA 
ENDROOT
BRANCH   2   3
HETATM    3  C   UNL     1     -11.701  15.456  70.809  1.00  0.00    -0.348 C  
HETATM    4  N   UNL     1     -11.872  14.086  70.680  1.00  0.00    -0.278 N  
HETATM    5  O   UNL     1     -12.168  16.112  71.735  1.00  0.00    -0.469 OA 
HETATM    6  C   UNL     1     -12.582  13.322  71.687  1.00  0.00    -0.154 C  
BRANCH   4   7
HETATM    7  C   UNL     1     -11.237  13.354  69.640  1.00  0.00    -0.048 A  
HETATM    8  C   UNL     1      -9.896  13.546  69.318  1.00  0.00     0.491 A  
HETATM    9  N   UNL     1      -9.138  14.573  69.884  1.00  0.00     0.012 NA 
HETATM   10  N   UNL     1      -9.265  12.814  68.393  1.00  0.00    -0.176 NA 
HETATM   11  H1  UNL     1      -8.156  14.714  69.649  1.00  0.00     0.000 HD 
HETATM   12  C   UNL     1      -9.997  11.879  67.758  1.00  0.00    -0.186 A  
HETATM   13  H2  UNL     1      -9.205  14.486  70.898  1.00  0.00     0.000 HD 
HETATM   14  N   UNL     1     -11.309  11.637  67.972  1.00  0.00    -0.270 NA 
HETATM   15  H2  UNL     1     -13.756  13.055  68.916  1.00  0.00     0.000 HD 
HETATM   16  H1  UNL     1     -13.776  11.449  68.537  1.00  0.00     0.000 HD 
HETATM   17  C   UNL     1     -11.909  12.378  68.913  1.00  0.00    -0.301 A  
HETATM   18  N   UNL     1     -13.282  12.165  69.070  1.00  0.00     2.114 NA 
BRANCH  12  19
HETATM   19  C   UNL     1      -9.305  11.045  66.756  1.00  0.00    -0.181 A  
HETATM   20  C   UNL     1      -8.729  10.017  64.850  1.00  0.00    -0.182 A  
HETATM   21  N   UNL     1      -8.295  10.202  67.079  1.00  0.00    -0.125 NA 
HETATM   22  N   UNL     1      -7.931   9.649  65.895  1.00  0.00    -0.110 NA 
HETATM   23  C   UNL     1     -10.392  11.215  63.110  1.00  0.00    -0.309 A  
HETATM   24  N   UNL     1      -8.666   9.561  63.583  1.00  0.00    -0.219 NA 
HETATM   25  C   UNL     1      -9.586  10.984  65.355  1.00  0.00    -0.267 A  
HETATM   26  C   UNL     1      -9.528  10.189  62.752  1.00  0.00    -0.253 A  
HETATM   27  C   UNL     1     -10.443  11.626  64.443  1.00  0.00    -0.374 A  
BRANCH  22  28
HETATM   28  C   UNL     1      -6.823   8.706  65.830  1.00  0.00    -0.068 C  
BRANCH  28  29
HETATM   29  C   UNL     1      -6.217   8.383  67.174  1.00  0.00    -0.056 A  
HETATM   30  C   UNL     1      -5.922   6.778  68.986  1.00  0.00    -0.022 A  
HETATM   31  C   UNL     1      -5.441   7.786  69.818  1.00  0.00    -0.023 A  
HETATM   32  C   UNL     1      -6.297   7.081  67.678  1.00  0.00    -0.043 A  
HETATM   33  C   UNL     1      -5.304   9.082  69.322  1.00  0.00    -0.036 A  
HETATM   34  F   UNL     1      -6.780   6.094  66.910  1.00  0.00    -0.052 F  
HETATM   35  C   UNL     1      -5.689   9.381  68.010  1.00  0.00    -0.037 A  
ENDBRANCH  28  29
ENDBRANCH  22  28
ENDBRANCH  12  19
ENDBRANCH   4   7
ENDBRANCH   2   3
TORSDOF 5
ENDMDL
MODEL      216
REMARK 921   NORMALIZED FREE ENERGY PREDICTED BY IDOCK:    0.93 KCAL/MOL
REMARK 922        TOTAL FREE ENERGY PREDICTED BY IDOCK:    0.40 KCAL/MOL
REMARK 923 INTER-LIGAND FREE ENERGY PREDICTED BY IDOCK:   -1.44 KCAL/MOL
REMARK 924 INTRA-LIGAND FREE ENERGY PREDICTED BY IDOCK:    1.84 KCAL/MOL
REMARK 927      BINDING AFFINITY PREDICTED BY RF-SCORE:    0.00 PKD
ROOT
HETATM    1  C   UNL     1     -11.252  17.373  69.536  1.00  0.00     0.981 C  
HETATM    2  O   UNL     1     -10.961  16.003  69.808  1.00  0.00    -0.282 OA 
ENDROOT
BRANCH   2   3
HETATM    3  C   UNL     1     -11.682  15.465  70.831  1.00  0.00    -0.354 C  
HETATM    4  N   UNL     1     -11.846  14.094  70.715  1.00  0.00    -0.282 N  
HETATM    5  O   UNL     1     -12.146  16.127  71.754  1.00  0.00    -0.472 OA 
HETATM    6  C   UNL     1     -12.546  13.336  71.733  1.00  0.00    -0.092 C  
BRANCH   4   7
HETATM    7  C   UNL     1     -11.214  13.356  69.677  1.00  0.00    -0.048 A  
HETATM    8  C   UNL     1      -9.876  13.551  69.345  1.00  0.00     0.684 A  
HETATM    9  N   UNL     1      -9.120  14.587  69.897  1.00  0.00     0.012 NA 
HETATM   10  N   UNL     1      -9.248  12.815  68.423  1.00  0.00    -0.176 NA 
HETATM   11  H1  UNL     1      -8.140  14.731  69.655  1.00  0.00     0.000 HD 
HETATM   12  C   UNL     1      -9.979  11.870  67.801  1.00  0.00    -0.186 A  
HETATM   13  H2  UNL     1      -9.180  14.509  70.912  1.00  0.00     0.000 HD 
HETATM   14  N   UNL     1     -11.288  11.623  68.025  1.00  0.00    -0.270 NA 
HETATM   15  H2  UNL     1     -13.736  13.037  68.972  1.00  0.00     0.000 HD 
HETATM   16  H1  UNL     1     -13.750  11.429  68.607  1.00  0.00     0.000 HD 
HETATM   17  C   UNL     1     -11.886  12.370  68.964  1.00  0.00    -0.300 A  
HETATM   18  N   UNL     1     -13.256  12.152  69.131  1.00  0.00     1.946 NA 
BRANCH  12  19
HETATM   19  C   UNL     1      -9.289  11.031  66.802  1.00  0.00    -0.181 A  
HETATM   20  C   UNL     1      -8.720   9.989  64.902  1.00  0.00    -0.182 A  
HETATM   21  N   UNL     1      -8.272  10.196  67.125  1.00  0.00    -0.120 NA 
HETATM   22  N   UNL     1      -7.913   9.634  65.945  1.00  0.00    -0.110 NA 
HETATM   23  C   UNL     1     -10.400  11.162  63.162  1.00  0.00    -0.309 A  
HETATM   24  N   UNL     1      -8.663   9.522  63.638  1.00  0.00    -0.219 NA 
HETATM   25  C   UNL     1      -9.579  10.956  65.403  1.00  0.00    -0.271 A  
HETATM   26  C   UNL     1      -9.532  10.138  62.807  1.00  0.00    -0.253 A  
HETATM   27  C   UNL     1     -10.444  11.585  64.491  1.00  0.00    -0.369 A  
BRANCH  22  28
HETATM   28  C   UNL     1      -6.801   8.697  65.880  1.00  0.00    -0.068 C  
BRANCH  28  29
HETATM   29  C   UNL     1      -7.094   7.459  65.066  1.00  0.00    -0.064 A  
HETATM   30  C   UNL     1      -6.733   6.191  63.014  1.00  0.00    -0.040 A  
HETATM   31  C   UNL     1      -7.825   5.380  63.309  1.00  0.00    -0.092 A  
HETATM   32  C   UNL     1      -6.373   7.213  63.892  1.00  0.00    -0.044 A  
HETATM   33  C   UNL     1      -8.526   5.572  64.498  1.00  0.00    -0.094 A  
HETATM   34  F   UNL     1      -5.333   7.994  63.569  1.00  0.00    -0.045 F  
HETATM   35  C   UNL     1      -8.166   6.605  65.373  1.00  0.00    -0.138 A  
ENDBRANCH  28  29
ENDBRANCH  22  28
ENDBRANCH  12  19
ENDBRANCH   4   7
ENDBRANCH   2   3
TORSDOF 5
ENDMDL
MODEL      217
REMARK 921   NORMALIZED FREE ENERGY PREDICTED BY IDOCK:    1.28 KCAL/MOL
REMARK 922        TOTAL FREE ENERGY PREDICTED BY IDOCK:    0.85 KCAL/MOL
REMARK 923 INTER-LIGAND FREE ENERGY PREDICTED BY IDOCK:   -0.90 KCAL/MOL
REMARK 924 INTRA-LIGAND FREE ENERGY PREDICTED BY IDOCK:    1.75 KCAL/MOL
REMARK 927      BINDING AFFINITY PREDICTED BY RF-SCORE:    0.00 PKD
ROOT
HETATM    1  C   UNL     1     -14.348  10.126  71.666  1.00  0.00     0.821 C  
HETATM    2  O   UNL     1     -14.021   8.862  71.091  1.00  0.00    -0.248 OA 
ENDROOT
BRANCH   2   3
HETATM    3  C   UNL     1     -13.461   7.974  71.960  1.00  0.00    -0.235 C  
HETATM    4  N   UNL     1     -12.101   7.800  71.755  1.00  0.00    -0.287 N  
HETATM    5  O   UNL     1     -14.097   7.383  72.827  1.00  0.00     0.496 OA 
HETATM    6  C   UNL     1     -11.322   6.929  72.612  1.00  0.00    -0.235 C  
BRANCH   4   7
HETATM    7  C   UNL     1     -11.390   8.573  70.798  1.00  0.00    -0.266 A  
HETATM    8  C   UNL     1     -10.808   7.997  69.672  1.00  0.00    -0.169 A  
HETATM    9  N   UNL     1     -10.750   6.613  69.494  1.00  0.00    -0.238 NA 
HETATM   10  N   UNL     1     -10.200   8.720  68.726  1.00  0.00    -0.203 NA 
HETATM   11  H1  UNL     1     -10.324   6.191  68.669  1.00  0.00     0.000 HD 
HETATM   12  C   UNL     1     -10.153  10.053  68.918  1.00  0.00    -0.190 A  
HETATM   13  H2  UNL     1     -11.699   6.250  69.574  1.00  0.00     0.000 HD 
HETATM   14  N   UNL     1     -10.655  10.705  69.989  1.00  0.00    -0.180 NA 
HETATM   15  H2  UNL     1     -11.275  10.211  72.863  1.00  0.00     0.000 HD 
HETATM   16  H1  UNL     1     -11.631  11.647  72.134  1.00  0.00     0.000 HD 
HETATM   17  C   UNL     1     -11.270   9.953  70.914  1.00  0.00    -0.360 A  
HETATM   18  N   UNL     1     -11.719  10.634  72.048  1.00  0.00     1.054 NA 
BRANCH  12  19
HETATM   19  C   UNL     1      -9.510  10.865  67.867  1.00  0.00    -0.159 A  
HETATM   20  C   UNL     1      -8.841  12.581  66.591  1.00  0.00    -0.142 A  
HETATM   21  N   UNL     1      -8.839  10.316  66.826  1.00  0.00    -0.133 NA 
HETATM   22  N   UNL     1      -8.396  11.381  66.114  1.00  0.00    -0.121 NA 
HETATM   23  C   UNL     1      -9.745  14.662  68.033  1.00  0.00    -0.216 A  
HETATM   24  N   UNL     1      -8.640  13.796  66.042  1.00  0.00     0.755 NA 
HETATM   25  C   UNL     1      -9.504  12.292  67.775  1.00  0.00    -0.197 A  
HETATM   26  C   UNL     1      -9.120  14.805  66.801  1.00  0.00    -0.267 A  
HETATM   27  C   UNL     1      -9.960  13.380  68.540  1.00  0.00    -0.193 A  
BRANCH  22  28
HETATM   28  C   UNL     1      -7.581  11.188  64.924  1.00  0.00     0.682 C  
BRANCH  28  29
HETATM   29  C   UNL     1      -7.185   9.751  64.683  1.00  0.00    -0.131 A  
HETATM   30  C   UNL     1      -7.877   7.443  64.305  1.00  0.00    -0.127 A  
HETATM   31  C   UNL     1      -6.586   6.998  64.579  1.00  0.00    -0.042 A  
HETATM   32  C   UNL     1      -8.163   8.807  64.351  1.00  0.00    -0.168 A  
HETATM   33  C   UNL     1      -5.583   7.924  64.862  1.00  0.00    -0.037 A  
HETATM   34  F   UNL     1      -9.420   9.202  64.106  1.00  0.00    -0.104 F  
HETATM   35  C   UNL     1      -5.878   9.292  64.914  1.00  0.00    -0.064 A  
ENDBRANCH  28  29
ENDBRANCH  22  28
ENDBRANCH  12  19
ENDBRANCH   4   7
ENDBRANCH   2   3
TORSDOF 5
ENDMDL
MODEL      218
REMARK 921   NORMALIZED FREE ENERGY PREDICTED BY IDOCK:    1.55 KCAL/MOL
REMARK 922        TOTAL FREE ENERGY PREDICTED BY IDOCK:    1.20 KCAL/MOL
REMARK 923 INTER-LIGAND FREE ENERGY PREDICTED BY IDOCK:   -3.67 KCAL/MOL
REMARK 924 INTRA-LIGAND FREE ENERGY PREDICTED BY IDOCK:    4.86 KCAL/MOL
REMARK 927      BINDING AFFINITY PREDICTED BY RF-SCORE:    0.00 PKD
ROOT
HETATM    1  C   UNL     1     -14.387  10.154  71.876  1.00  0.00     0.690 C  
HETATM    2  O   UNL     1     -14.051   8.921  71.243  1.00  0.00    -0.314 OA 
ENDROOT
BRANCH   2   3
HETATM    3  C   UNL     1     -13.063   8.219  71.863  1.00  0.00    -0.344 C  
HETATM    4  N   UNL     1     -11.794   8.691  71.566  1.00  0.00    -0.289 N  
HETATM    5  O   UNL     1     -13.273   7.261  72.601  1.00  0.00     0.404 OA 
HETATM    6  C   UNL     1     -10.615   8.100  72.169  1.00  0.00    -0.290 C  
BRANCH   4   7
HETATM    7  C   UNL     1     -11.602   9.859  70.779  1.00  0.00    -0.349 A  
HETATM    8  C   UNL     1     -10.903   9.830  69.576  1.00  0.00    -0.240 A  
HETATM    9  N   UNL     1     -10.214   8.693  69.147  1.00  0.00    -0.204 NA 
HETATM   10  N   UNL     1     -10.778  10.904  68.789  1.00  0.00    -0.193 NA 
HETATM   11  H1  UNL     1      -9.702   8.671  68.265  1.00  0.00     0.000 HD 
HETATM   12  C   UNL     1     -11.349  12.043  69.223  1.00  0.00    -0.268 A  
HETATM   13  H2  UNL     1     -10.872   7.914  69.143  1.00  0.00     0.000 HD 
HETATM   14  N   UNL     1     -12.019  12.186  70.389  1.00  0.00    -0.326 NA 
HETATM   15  H2  UNL     1     -12.119  10.977  73.113  1.00  0.00     0.000 HD 
HETATM   16  H1  UNL     1     -13.161  12.171  72.654  1.00  0.00     0.000 HD 
HETATM   17  C   UNL     1     -12.137  11.088  71.149  1.00  0.00    -0.244 A  
HETATM   18  N   UNL     1     -12.769  11.269  72.382  1.00  0.00     0.368 NA 
BRANCH  12  19
HETATM   19  C   UNL     1     -11.243  13.228  68.350  1.00  0.00    -0.280 A  
HETATM   20  C   UNL     1     -11.120  15.336  67.602  1.00  0.00    -0.323 A  
HETATM   21  N   UNL     1     -11.274  13.145  66.999  1.00  0.00    -0.283 NA 
HETATM   22  N   UNL     1     -11.133  14.428  66.582  1.00  0.00    -0.318 NA 
HETATM   23  C   UNL     1     -10.896  16.681  69.919  1.00  0.00    -0.206 A  
HETATM   24  N   UNL     1     -11.083  16.679  67.489  1.00  0.00    -0.139 NA 
HETATM   25  C   UNL     1     -11.111  14.589  68.771  1.00  0.00    -0.267 A  
HETATM   26  C   UNL     1     -10.979  17.307  68.682  1.00  0.00    -0.097 A  
HETATM   27  C   UNL     1     -10.974  15.289  69.982  1.00  0.00    -0.306 A  
BRANCH  22  28
HETATM   28  C   UNL     1     -11.075  14.742  65.162  1.00  0.00    -0.384 C  
BRANCH  28  29
HETATM   29  C   UNL     1     -11.217  13.535  64.265  1.00  0.00    -0.383 A  
HETATM   30  C   UNL     1     -12.546  11.614  63.565  1.00  0.00    -0.327 A  
HETATM   31  C   UNL     1     -11.444  11.076  62.906  1.00  0.00     1.046 A  
HETATM   32  C   UNL     1     -12.427  12.835  64.229  1.00  0.00    -0.382 A  
HETATM   33  C   UNL     1     -10.242  11.781  62.884  1.00  0.00    -0.071 A  
HETATM   34  F   UNL     1     -13.499  13.315  64.875  1.00  0.00    -0.160 F  
HETATM   35  C   UNL     1     -10.126  13.003  63.559  1.00  0.00     0.811 A  
ENDBRANCH  28  29
ENDBRANCH  22  28
ENDBRANCH  12  19
ENDBRANCH   4   7
ENDBRANCH   2   3
TORSDOF 5
ENDMDL
MODEL      219
REMARK 921   NORMALIZED FREE ENERGY PREDICTED BY IDOCK:    2.58 KCAL/MOL
REMARK 922        TOTAL FREE ENERGY PREDICTED BY IDOCK:    2.53 KCAL/MOL
REMARK 923 INTER-LIGAND FREE ENERGY PREDICTED BY IDOCK:   -0.96 KCAL/MOL
REMARK 924 INTRA-LIGAND FREE ENERGY PREDICTED BY IDOCK:    3.49 KCAL/MOL
REMARK 927      BINDING AFFINITY PREDICTED BY RF-SCORE:    0.00 PKD
ROOT
HETATM    1  C   UNL     1     -10.054   4.246  73.393  1.00  0.00    -0.142 C  
HETATM    2  O   UNL     1     -10.652   5.522  73.173  1.00  0.00    -0.211 OA 
ENDROOT
BRANCH   2   3
HETATM    3  C   UNL     1     -11.947   5.475  72.756  1.00  0.00    -0.024 C  
HETATM    4  N   UNL     1     -12.189   6.273  71.648  1.00  0.00    -0.206 N  
HETATM    5  O   UNL     1     -12.813   4.804  73.309  1.00  0.00     0.381 OA 
HETATM    6  C   UNL     1     -13.500   6.317  71.030  1.00  0.00     1.550 C  
BRANCH   4   7
HETATM    7  C   UNL     1     -11.137   6.962  70.986  1.00  0.00    -0.266 A  
HETATM    8  C   UNL     1     -11.120   7.125  69.604  1.00  0.00    -0.179 A  
HETATM    9  N   UNL     1     -12.044   6.491  68.771  1.00  0.00     0.502 NA 
HETATM   10  N   UNL     1     -10.176   7.833  68.974  1.00  0.00    -0.204 NA 
HETATM   11  H1  UNL     1     -12.032   6.610  67.759  1.00  0.00     0.000 HD 
HETATM   12  C   UNL     1      -9.213   8.377  69.741  1.00  0.00    -0.157 A  
HETATM   13  H2  UNL     1     -12.978   6.734  69.102  1.00  0.00     0.000 HD 
HETATM   14  N   UNL     1      -9.120   8.251  71.084  1.00  0.00    -0.152 NA 
HETATM   15  H2  UNL     1      -9.917   6.361  73.247  1.00  0.00     0.000 HD 
HETATM   16  H1  UNL     1      -9.166   7.792  73.578  1.00  0.00     0.000 HD 
HETATM   17  C   UNL     1     -10.087   7.545  71.686  1.00  0.00    -0.180 A  
HETATM   18  N   UNL     1      -9.937   7.364  73.064  1.00  0.00    -0.222 NA 
BRANCH  12  19
HETATM   19  C   UNL     1      -8.183   9.186  69.061  1.00  0.00    -0.115 A  
HETATM   20  C   UNL     1      -6.467   9.829  67.771  1.00  0.00    -0.057 A  
HETATM   21  N   UNL     1      -7.966  10.490  69.354  1.00  0.00    -0.156 NA 
HETATM   22  N   UNL     1      -6.969  10.861  68.512  1.00  0.00    -0.069 NA 
HETATM   23  C   UNL     1      -6.003   7.572  66.388  1.00  0.00    -0.037 A  
HETATM   24  N   UNL     1      -5.421   9.876  66.923  1.00  0.00    -0.045 NA 
HETATM   25  C   UNL     1      -7.282   8.740  68.043  1.00  0.00    -0.083 A  
HETATM   26  C   UNL     1      -5.225   8.715  66.260  1.00  0.00    -0.031 A  
HETATM   27  C   UNL     1      -7.054   7.565  67.306  1.00  0.00    -0.085 A  
BRANCH  22  28
HETATM   28  C   UNL     1      -6.484  12.233  68.500  1.00  0.00    -0.064 C  
BRANCH  28  29
HETATM   29  C   UNL     1      -7.572  13.263  68.312  1.00  0.00    -0.139 A  
HETATM   30  C   UNL     1      -8.958  15.019  69.283  1.00  0.00    -0.158 A  
HETATM   31  C   UNL     1      -9.815  14.966  68.186  1.00  0.00    -0.218 A  
HETATM   32  C   UNL     1      -7.847  14.178  69.333  1.00  0.00     0.240 A  
HETATM   33  C   UNL     1      -9.532  14.099  67.131  1.00  0.00    -0.237 A  
HETATM   34  F   UNL     1      -7.055  14.234  70.414  1.00  0.00    -0.012 F  
HETATM   35  C   UNL     1      -8.419  13.252  67.191  1.00  0.00    -0.182 A  
ENDBRANCH  28  29
ENDBRANCH  22  28
ENDBRANCH  12  19
ENDBRANCH   4   7
ENDBRANCH   2   3
TORSDOF 5
ENDMDL
MODEL      220
REMARK 921   NORMALIZED FREE ENERGY PREDICTED BY IDOCK:    2.63 KCAL/MOL
REMARK 922        TOTAL FREE ENERGY PREDICTED BY IDOCK:    2.59 KCAL/MOL
REMARK 923 INTER-LIGAND FREE ENERGY PREDICTED BY IDOCK:   -1.77 KCAL/MOL
REMARK 924 INTRA-LIGAND FREE ENERGY PREDICTED BY IDOCK:    4.36 KCAL/MOL
REMARK 927      BINDING AFFINITY PREDICTED BY RF-SCORE:    0.00 PKD
ROOT
HETATM    1  C   UNL     1     -10.977  16.651  64.879  1.00  0.00    -0.150 C  
HETATM    2  O   UNL     1     -11.057  15.247  64.636  1.00  0.00    -0.385 OA 
ENDROOT
BRANCH   2   3
HETATM    3  C   UNL     1     -12.294  14.805  64.280  1.00  0.00    -0.320 C  
HETATM    4  N   UNL     1     -12.364  13.425  64.165  1.00  0.00    -0.364 N  
HETATM    5  O   UNL     1     -13.246  15.551  64.073  1.00  0.00    -0.098 OA 
HETATM    6  C   UNL     1     -13.613  12.764  63.841  1.00  0.00     1.768 C  
BRANCH   4   7
HETATM    7  C   UNL     1     -11.261  12.595  64.504  1.00  0.00    -0.333 A  
HETATM    8  C   UNL     1     -11.064  11.353  63.907  1.00  0.00    -0.329 A  
HETATM    9  N   UNL     1     -12.016  10.778  63.062  1.00  0.00     0.665 NA 
HETATM   10  N   UNL     1      -9.992  10.594  64.160  1.00  0.00    -0.331 NA 
HETATM   11  H1  UNL     1     -11.872   9.868  62.624  1.00  0.00     0.000 HD 
HETATM   12  C   UNL     1      -9.103  11.079  65.047  1.00  0.00    -0.164 A  
HETATM   13  H2  UNL     1     -12.220  11.450  62.322  1.00  0.00     0.000 HD 
HETATM   14  N   UNL     1      -9.217  12.254  65.705  1.00  0.00    -0.052 NA 
HETATM   15  H2  UNL     1     -11.331  14.133  66.647  1.00  0.00     0.000 HD 
HETATM   16  H1  UNL     1      -9.727  14.467  66.835  1.00  0.00     0.000 HD 
HETATM   17  C   UNL     1     -10.296  12.996  65.420  1.00  0.00    -0.300 A  
HETATM   18  N   UNL     1     -10.435  14.173  66.162  1.00  0.00    -0.289 NA 
BRANCH  12  19
HETATM   19  C   UNL     1      -7.901  10.264  65.313  1.00  0.00    -0.145 A  
HETATM   20  C   UNL     1      -6.120   8.927  65.070  1.00  0.00    -0.060 A  
HETATM   21  N   UNL     1      -7.445  10.020  66.565  1.00  0.00    -0.103 NA 
HETATM   22  N   UNL     1      -6.335   9.265  66.375  1.00  0.00    -0.065 NA 
HETATM   23  C   UNL     1      -5.989   8.745  62.391  1.00  0.00    -0.091 A  
HETATM   24  N   UNL     1      -5.155   8.116  64.592  1.00  0.00    -0.035 NA 
HETATM   25  C   UNL     1      -7.073   9.622  64.339  1.00  0.00    -0.118 A  
HETATM   26  C   UNL     1      -5.138   8.053  63.242  1.00  0.00    -0.049 A  
HETATM   27  C   UNL     1      -6.993   9.544  62.938  1.00  0.00    -0.099 A  
BRANCH  22  28
HETATM   28  C   UNL     1      -5.531   8.835  67.510  1.00  0.00    -0.035 C  
BRANCH  28  29
HETATM   29  C   UNL     1      -6.048   7.588  68.186  1.00  0.00    -0.036 A  
HETATM   30  C   UNL     1      -6.074   6.155  70.159  1.00  0.00    -0.030 A  
HETATM   31  C   UNL     1      -6.659   5.129  69.422  1.00  0.00    -0.046 A  
HETATM   32  C   UNL     1      -5.782   7.371  69.542  1.00  0.00    -0.023 A  
HETATM   33  C   UNL     1      -6.981   5.340  68.082  1.00  0.00    -0.061 A  
HETATM   34  F   UNL     1      -5.196   8.331  70.272  1.00  0.00    -0.023 F  
HETATM   35  C   UNL     1      -6.678   6.560  67.465  1.00  0.00    -0.067 A  
ENDBRANCH  28  29
ENDBRANCH  22  28
ENDBRANCH  12  19
ENDBRANCH   4   7
ENDBRANCH   2   3
TORSDOF 5
ENDMDL
MODEL      221
REMARK 921   NORMALIZED FREE ENERGY PREDICTED BY IDOCK:    3.30 KCAL/MOL
REMARK 922        TOTAL FREE ENERGY PREDICTED BY IDOCK:    3.45 KCAL/MOL
REMARK 923 INTER-LIGAND FREE ENERGY PREDICTED BY IDOCK:   -1.43 KCAL/MOL
REMARK 924 INTRA-LIGAND FREE ENERGY PREDICTED BY IDOCK:    4.88 KCAL/MOL
REMARK 927      BINDING AFFINITY PREDICTED BY RF-SCORE:    0.00 PKD
ROOT
HETATM    1  C   UNL     1     -10.978  16.651  64.879  1.00  0.00    -0.150 C  
HETATM    2  O   UNL     1     -11.052  15.246  64.642  1.00  0.00    -0.385 OA 
ENDROOT
BRANCH   2   3
HETATM    3  C   UNL     1     -12.290  14.796  64.297  1.00  0.00    -0.320 C  
HETATM    4  N   UNL     1     -12.355  13.415  64.190  1.00  0.00    -0.364 N  
HETATM    5  O   UNL     1     -13.247  15.537  64.092  1.00  0.00    -0.025 OA 
HETATM    6  C   UNL     1     -13.603  12.747  63.878  1.00  0.00     1.768 C  
BRANCH   4   7
HETATM    7  C   UNL     1     -11.245  12.593  64.525  1.00  0.00    -0.333 A  
HETATM    8  C   UNL     1     -11.048  11.347  63.934  1.00  0.00    -0.329 A  
HETATM    9  N   UNL     1     -12.003  10.763  63.101  1.00  0.00     0.722 NA 
HETATM   10  N   UNL     1      -9.971  10.595  64.184  1.00  0.00    -0.331 NA 
HETATM   11  H1  UNL     1     -11.859   9.851  62.668  1.00  0.00     0.000 HD 
HETATM   12  C   UNL     1      -9.077  11.088  65.061  1.00  0.00    -0.164 A  
HETATM   13  H2  UNL     1     -12.217  11.429  62.359  1.00  0.00     0.000 HD 
HETATM   14  N   UNL     1      -9.191  12.267  65.713  1.00  0.00    -0.052 NA 
HETATM   15  H2  UNL     1     -11.306  14.143  66.659  1.00  0.00     0.000 HD 
HETATM   16  H1  UNL     1      -9.702  14.485  66.833  1.00  0.00     0.000 HD 
HETATM   17  C   UNL     1     -10.275  13.003  65.432  1.00  0.00    -0.288 A  
HETATM   18  N   UNL     1     -10.414  14.184  66.167  1.00  0.00    -0.289 NA 
BRANCH  12  19
HETATM   19  C   UNL     1      -7.869  10.281  65.323  1.00  0.00    -0.145 A  
HETATM   20  C   UNL     1      -6.108   8.917  65.083  1.00  0.00    -0.060 A  
HETATM   21  N   UNL     1      -7.362  10.106  66.567  1.00  0.00    -0.104 NA 
HETATM   22  N   UNL     1      -6.265   9.331  66.374  1.00  0.00    -0.064 NA 
HETATM   23  C   UNL     1      -6.092   8.580  62.416  1.00  0.00    -0.088 A  
HETATM   24  N   UNL     1      -5.169   8.072  64.612  1.00  0.00    -0.035 NA 
HETATM   25  C   UNL     1      -7.087   9.577  64.354  1.00  0.00    -0.108 A  
HETATM   26  C   UNL     1      -5.210   7.931  63.269  1.00  0.00    -0.049 A  
HETATM   27  C   UNL     1      -7.068   9.417  62.957  1.00  0.00    -0.096 A  
BRANCH  22  28
HETATM   28  C   UNL     1      -5.416   8.961  67.497  1.00  0.00    -0.035 C  
BRANCH  28  29
HETATM   29  C   UNL     1      -5.492   9.920  68.661  1.00  0.00    -0.035 A  
HETATM   30  C   UNL     1      -5.781  10.253  71.060  1.00  0.00    -0.068 A  
HETATM   31  C   UNL     1      -6.001  11.613  70.857  1.00  0.00     0.201 A  
HETATM   32  C   UNL     1      -5.523   9.423  69.969  1.00  0.00    -0.031 A  
HETATM   33  C   UNL     1      -5.924  12.139  69.568  1.00  0.00    -0.105 A  
HETATM   34  F   UNL     1      -5.341   8.115  70.193  1.00  0.00    -0.023 F  
HETATM   35  C   UNL     1      -5.672  11.300  68.476  1.00  0.00    -0.042 A  
ENDBRANCH  28  29
ENDBRANCH  22  28
ENDBRANCH  12  19
ENDBRANCH   4   7
ENDBRANCH   2   3
TORSDOF 5
ENDMDL
MODEL      222
REMARK 921   NORMALIZED FREE ENERGY PREDICTED BY IDOCK:    5.66 KCAL/MOL
REMARK 922        TOTAL FREE ENERGY PREDICTED BY IDOCK:    6.51 KCAL/MOL
REMARK 923 INTER-LIGAND FREE ENERGY PREDICTED BY IDOCK:    1.18 KCAL/MOL
REMARK 924 INTRA-LIGAND FREE ENERGY PREDICTED BY IDOCK:    5.34 KCAL/MOL
REMARK 927      BINDING AFFINITY PREDICTED BY RF-SCORE:    0.00 PKD
ROOT
HETATM    1  C   UNL     1      -8.676  17.163  68.199  1.00  0.00    -0.232 C  
HETATM    2  O   UNL     1      -8.000  18.324  67.720  1.00  0.00    -0.238 OA 
ENDROOT
BRANCH   2   3
HETATM    3  C   UNL     1      -8.783  19.178  67.004  1.00  0.00    -0.294 C  
HETATM    4  N   UNL     1      -9.753  18.526  66.258  1.00  0.00    -0.328 N  
HETATM    5  O   UNL     1      -8.638  20.396  67.010  1.00  0.00    -0.328 OA 
HETATM    6  C   UNL     1     -10.713  19.271  65.466  1.00  0.00    -0.121 C  
BRANCH   4   7
HETATM    7  C   UNL     1      -9.942  17.121  66.352  1.00  0.00    -0.306 A  
HETATM    8  C   UNL     1      -9.267  16.230  65.522  1.00  0.00     0.276 A  
HETATM    9  N   UNL     1      -8.489  16.664  64.447  1.00  0.00     6.239 NA 
HETATM   10  N   UNL     1      -9.378  14.904  65.647  1.00  0.00    -0.129 NA 
HETATM   11  H1  UNL     1      -7.994  16.012  63.839  1.00  0.00     0.000 HD 
HETATM   12  C   UNL     1     -10.200  14.453  66.614  1.00  0.00    -0.277 A  
HETATM   13  H2  UNL     1      -7.807  17.332  64.807  1.00  0.00     0.000 HD 
HETATM   14  N   UNL     1     -10.924  15.231  67.448  1.00  0.00    -0.316 NA 
HETATM   15  H2  UNL     1     -12.158  17.944  67.525  1.00  0.00     0.000 HD 
HETATM   16  H1  UNL     1     -12.209  16.931  68.825  1.00  0.00     0.000 HD 
HETATM   17  C   UNL     1     -10.782  16.556  67.305  1.00  0.00    -0.243 A  
HETATM   18  N   UNL     1     -11.592  17.345  68.126  1.00  0.00     0.566 NA 
BRANCH  12  19
HETATM   19  C   UNL     1     -10.308  12.990  66.782  1.00  0.00    -0.254 A  
HETATM   20  C   UNL     1     -10.593  10.948  67.657  1.00  0.00    -0.224 A  
HETATM   21  N   UNL     1     -10.005  12.117  65.793  1.00  0.00    -0.246 NA 
HETATM   22  N   UNL     1     -10.250  10.898  66.336  1.00  0.00    -0.231 NA 
HETATM   23  C   UNL     1     -11.457  11.573  70.125  1.00  0.00    -0.258 A  
HETATM   24  N   UNL     1     -10.805   9.899  68.478  1.00  0.00    -0.231 NA 
HETATM   25  C   UNL     1     -10.718  12.295  67.963  1.00  0.00    -0.245 A  
HETATM   26  C   UNL     1     -11.229  10.268  69.707  1.00  0.00    -0.282 A  
HETATM   27  C   UNL     1     -11.189  12.623  69.246  1.00  0.00    -0.255 A  
BRANCH  22  28
HETATM   28  C   UNL     1     -10.078   9.688  65.545  1.00  0.00    -0.095 C  
BRANCH  28  29
HETATM   29  C   UNL     1      -8.637   9.367  65.228  1.00  0.00    -0.182 A  
HETATM   30  C   UNL     1      -6.279   9.643  65.782  1.00  0.00    -0.066 A  
HETATM   31  C   UNL     1      -5.914   9.132  64.539  1.00  0.00    -0.070 A  
HETATM   32  C   UNL     1      -7.628   9.748  66.118  1.00  0.00    -0.101 A  
HETATM   33  C   UNL     1      -6.901   8.697  63.656  1.00  0.00    -0.088 A  
HETATM   34  F   UNL     1      -7.948  10.267  67.311  1.00  0.00    -0.104 F  
HETATM   35  C   UNL     1      -8.255   8.813  63.995  1.00  0.00    -0.161 A  
ENDBRANCH  28  29
ENDBRANCH  22  28
ENDBRANCH  12  19
ENDBRANCH   4   7
ENDBRANCH   2   3
TORSDOF 5
ENDMDL
MODEL      223
REMARK 921   NORMALIZED FREE ENERGY PREDICTED BY IDOCK:    6.29 KCAL/MOL
REMARK 922        TOTAL FREE ENERGY PREDICTED BY IDOCK:    7.32 KCAL/MOL
REMARK 923 INTER-LIGAND FREE ENERGY PREDICTED BY IDOCK:    2.68 KCAL/MOL
REMARK 924 INTRA-LIGAND FREE ENERGY PREDICTED BY IDOCK:    4.64 KCAL/MOL
REMARK 927      BINDING AFFINITY PREDICTED BY RF-SCORE:    0.00 PKD
ROOT
HETATM    1  C   UNL     1      -6.106  14.535  71.584  1.00  0.00     0.220 C  
HETATM    2  O   UNL     1      -5.585  15.719  70.982  1.00  0.00    -0.046 OA 
ENDROOT
BRANCH   2   3
HETATM    3  C   UNL     1      -6.524  16.657  70.676  1.00  0.00     1.112 C  
HETATM    4  N   UNL     1      -7.514  16.178  69.833  1.00  0.00     0.227 N  
HETATM    5  O   UNL     1      -6.490  17.810  71.095  1.00  0.00     1.582 OA 
HETATM    6  C   UNL     1      -8.626  17.017  69.433  1.00  0.00     0.296 C  
BRANCH   4   7
HETATM    7  C   UNL     1      -7.561  14.811  69.446  1.00  0.00    -0.127 A  
HETATM    8  C   UNL     1      -6.422  14.120  69.041  1.00  0.00    -0.099 A  
HETATM    9  N   UNL     1      -5.200  14.764  68.838  1.00  0.00    -0.087 NA 
HETATM   10  N   UNL     1      -6.437  12.817  68.745  1.00  0.00    -0.079 NA 
HETATM   11  H1  UNL     1      -4.365  14.259  68.541  1.00  0.00     0.000 HD 
HETATM   12  C   UNL     1      -7.625  12.188  68.837  1.00  0.00     0.003 A  
HETATM   13  H2  UNL     1      -4.969  15.270  69.693  1.00  0.00     0.000 HD 
HETATM   14  N   UNL     1      -8.792  12.772  69.187  1.00  0.00     0.561 NA 
HETATM   15  H2  UNL     1     -10.101  15.451  69.122  1.00  0.00     0.000 HD 
HETATM   16  H1  UNL     1     -10.835  14.143  69.809  1.00  0.00     0.000 HD 
HETATM   17  C   UNL     1      -8.741  14.077  69.489  1.00  0.00     0.795 A  
HETATM   18  N   UNL     1      -9.968  14.681  69.778  1.00  0.00     0.122 NA 
BRANCH  12  19
HETATM   19  C   UNL     1      -7.649  10.742  68.542  1.00  0.00    -0.104 A  
HETATM   20  C   UNL     1      -8.247   8.715  67.798  1.00  0.00    -0.118 A  
HETATM   21  N   UNL     1      -6.748   9.875  69.062  1.00  0.00    -0.052 NA 
HETATM   22  N   UNL     1      -7.101   8.674  68.540  1.00  0.00    -0.072 NA 
HETATM   23  C   UNL     1     -10.354   9.347  66.253  1.00  0.00    -0.211 A  
HETATM   24  N   UNL     1      -8.885   7.669  67.235  1.00  0.00    -0.120 NA 
HETATM   25  C   UNL     1      -8.590  10.057  67.711  1.00  0.00    -0.118 A  
HETATM   26  C   UNL     1      -9.941   8.040  66.478  1.00  0.00    -0.213 A  
HETATM   27  C   UNL     1      -9.680  10.391  66.888  1.00  0.00    -0.223 A  
BRANCH  22  28
HETATM   28  C   UNL     1      -6.324   7.480  68.840  1.00  0.00    -0.039 C  
BRANCH  28  29
HETATM   29  C   UNL     1      -6.957   6.584  69.877  1.00  0.00    -0.066 A  
HETATM   30  C   UNL     1      -7.765   4.366  70.489  1.00  0.00    -0.053 A  
HETATM   31  C   UNL     1      -8.441   4.901  71.583  1.00  0.00    -0.124 A  
HETATM   32  C   UNL     1      -7.027   5.205  69.655  1.00  0.00    -0.054 A  
HETATM   33  C   UNL     1      -8.343   6.264  71.855  1.00  0.00    -0.117 A  
HETATM   34  F   UNL     1      -6.409   4.665  68.595  1.00  0.00    -0.031 F  
HETATM   35  C   UNL     1      -7.607   7.103  71.009  1.00  0.00    -0.085 A  
ENDBRANCH  28  29
ENDBRANCH  22  28
ENDBRANCH  12  19
ENDBRANCH   4   7
ENDBRANCH   2   3
TORSDOF 5
ENDMDL
MODEL      224
REMARK 921   NORMALIZED FREE ENERGY PREDICTED BY IDOCK:    6.64 KCAL/MOL
REMARK 922        TOTAL FREE ENERGY PREDICTED BY IDOCK:    7.78 KCAL/MOL
REMARK 923 INTER-LIGAND FREE ENERGY PREDICTED BY IDOCK:    7.66 KCAL/MOL
REMARK 924 INTRA-LIGAND FREE ENERGY PREDICTED BY IDOCK:    0.12 KCAL/MOL
REMARK 927      BINDING AFFINITY PREDICTED BY RF-SCORE:    0.00 PKD
ROOT
HETATM    1  C   UNL     1     -10.863   9.959  65.043  1.00  0.00     1.617 C  
HETATM    2  O   UNL     1     -10.861   8.969  66.070  1.00  0.00     0.613 OA 
ENDROOT
BRANCH   2   3
HETATM    3  C   UNL     1      -9.789   8.129  66.043  1.00  0.00     0.108 C  
HETATM    4  N   UNL     1      -8.641   8.699  66.571  1.00  0.00    -0.112 N  
HETATM    5  O   UNL     1      -9.834   6.990  65.590  1.00  0.00     0.512 OA 
HETATM    6  C   UNL     1      -7.409   7.941  66.671  1.00  0.00    -0.088 C  
BRANCH   4   7
HETATM    7  C   UNL     1      -8.659   9.989  67.167  1.00  0.00    -0.128 A  
HETATM    8  C   UNL     1      -9.454  10.277  68.273  1.00  0.00    -0.142 A  
HETATM    9  N   UNL     1     -10.396   9.371  68.764  1.00  0.00    -0.204 NA 
HETATM   10  N   UNL     1      -9.427  11.463  68.890  1.00  0.00    -0.111 NA 
HETATM   11  H1  UNL     1     -10.979   9.581  69.574  1.00  0.00     0.000 HD 
HETATM   12  C   UNL     1      -8.599  12.394  68.379  1.00  0.00    -0.129 A  
HETATM   13  H2  UNL     1      -9.914   8.491  68.949  1.00  0.00     0.000 HD 
HETATM   14  N   UNL     1      -7.813  12.226  67.292  1.00  0.00    -0.168 NA 
HETATM   15  H2  UNL     1      -7.718  10.617  64.784  1.00  0.00     0.000 HD 
HETATM   16  H1  UNL     1      -6.500  11.649  65.200  1.00  0.00     0.000 HD 
HETATM   17  C   UNL     1      -7.854  11.023  66.704  1.00  0.00    -0.153 A  
HETATM   18  N   UNL     1      -7.091  10.890  65.540  1.00  0.00     0.035 NA 
BRANCH  12  19
HETATM   19  C   UNL     1      -8.538  13.697  69.068  1.00  0.00     0.316 A  
HETATM   20  C   UNL     1      -7.827  15.483  70.219  1.00  0.00     0.767 A  
HETATM   21  N   UNL     1      -9.632  14.471  69.267  1.00  0.00    -0.028 NA 
HETATM   22  N   UNL     1      -9.154  15.567  69.907  1.00  0.00    -0.075 NA 
HETATM   23  C   UNL     1      -5.195  14.962  70.382  1.00  0.00    -0.116 A  
HETATM   24  N   UNL     1      -7.104  16.373  70.928  1.00  0.00     2.398 NA 
HETATM   25  C   UNL     1      -7.374  14.316  69.622  1.00  0.00     0.110 A  
HETATM   26  C   UNL     1      -5.791  16.061  70.987  1.00  0.00     0.381 A  
HETATM   27  C   UNL     1      -5.994  14.052  69.689  1.00  0.00    -0.115 A  
BRANCH  22  28
HETATM   28  C   UNL     1     -10.043  16.665  70.255  1.00  0.00     0.763 C  
BRANCH  28  29
HETATM   29  C   UNL     1     -11.307  16.228  70.955  1.00  0.00    -0.315 A  
HETATM   30  C   UNL     1     -12.349  14.944  72.748  1.00  0.00    -0.420 A  
HETATM   31  C   UNL     1     -13.590  15.063  72.129  1.00  0.00    -0.530 A  
HETATM   32  C   UNL     1     -11.226  15.530  72.165  1.00  0.00    -0.203 A  
HETATM   33  C   UNL     1     -13.705  15.799  70.950  1.00  0.00     0.323 A  
HETATM   34  F   UNL     1     -10.041  15.376  72.771  1.00  0.00     1.449 F  
HETATM   35  C   UNL     1     -12.573  16.378  70.365  1.00  0.00     1.305 A  
ENDBRANCH  28  29
ENDBRANCH  22  28
ENDBRANCH  12  19
ENDBRANCH   4   7
ENDBRANCH   2   3
TORSDOF 5
ENDMDL
MODEL      225
REMARK 921   NORMALIZED FREE ENERGY PREDICTED BY IDOCK:    7.35 KCAL/MOL
REMARK 922        TOTAL FREE ENERGY PREDICTED BY IDOCK:    8.69 KCAL/MOL
REMARK 923 INTER-LIGAND FREE ENERGY PREDICTED BY IDOCK:   -1.63 KCAL/MOL
REMARK 924 INTRA-LIGAND FREE ENERGY PREDICTED BY IDOCK:   10.32 KCAL/MOL
REMARK 927      BINDING AFFINITY PREDICTED BY RF-SCORE:    0.00 PKD
ROOT
HETATM    1  C   UNL     1      -7.335   9.173  71.420  1.00  0.00     0.019 C  
HETATM    2  O   UNL     1      -6.305   9.994  71.968  1.00  0.00    -0.106 OA 
ENDROOT
BRANCH   2   3
HETATM    3  C   UNL     1      -6.128  11.182  71.327  1.00  0.00     0.657 C  
HETATM    4  N   UNL     1      -6.471  11.130  69.985  1.00  0.00    -0.145 N  
HETATM    5  O   UNL     1      -5.699  12.191  71.878  1.00  0.00    -0.112 OA 
HETATM    6  C   UNL     1      -6.395  12.311  69.148  1.00  0.00    -0.095 C  
BRANCH   4   7
HETATM    7  C   UNL     1      -7.048   9.964  69.411  1.00  0.00    -0.067 A  
HETATM    8  C   UNL     1      -6.429   9.271  68.375  1.00  0.00    -0.054 A  
HETATM    9  N   UNL     1      -5.292   9.762  67.730  1.00  0.00    -0.036 NA 
HETATM   10  N   UNL     1      -6.922   8.133  67.875  1.00  0.00    -0.076 NA 
HETATM   11  H1  UNL     1      -4.839   9.254  66.971  1.00  0.00     0.000 HD 
HETATM   12  C   UNL     1      -8.074   7.685  68.410  1.00  0.00    -0.124 A  
HETATM   13  H2  UNL     1      -4.587   9.949  68.443  1.00  0.00     0.000 HD 
HETATM   14  N   UNL     1      -8.769   8.299  69.393  1.00  0.00    -0.140 NA 
HETATM   15  H2  UNL     1      -9.200  11.032  70.503  1.00  0.00     0.000 HD 
HETATM   16  H1  UNL     1      -9.886   9.698  71.190  1.00  0.00     0.000 HD 
HETATM   17  C   UNL     1      -8.242   9.431  69.881  1.00  0.00    -0.149 A  
HETATM   18  N   UNL     1      -9.009  10.090  70.845  1.00  0.00     0.366 NA 
BRANCH  12  19
HETATM   19  C   UNL     1      -8.613   6.414  67.887  1.00  0.00    -0.116 A  
HETATM   20  C   UNL     1      -9.364   4.310  67.722  1.00  0.00    -0.160 A  
HETATM   21  N   UNL     1      -8.808   6.192  66.565  1.00  0.00    -0.128 NA 
HETATM   22  N   UNL     1      -9.321   4.937  66.510  1.00  0.00    -0.133 NA 
HETATM   23  C   UNL     1      -9.477   3.611  70.315  1.00  0.00    -0.257 A  
HETATM   24  N   UNL     1      -9.737   3.037  67.961  1.00  0.00    -0.046 NA 
HETATM   25  C   UNL     1      -8.985   5.265  68.653  1.00  0.00    -0.120 A  
HETATM   26  C   UNL     1      -9.769   2.734  69.278  1.00  0.00     0.179 A  
HETATM   27  C   UNL     1      -9.062   4.908  70.011  1.00  0.00    -0.157 A  
BRANCH  22  28
HETATM   28  C   UNL     1      -9.708   4.353  65.234  1.00  0.00    -0.192 C  
BRANCH  28  29
HETATM   29  C   UNL     1      -8.700   3.373  64.682  1.00  0.00    -0.102 A  
HETATM   30  C   UNL     1      -6.367   2.833  64.221  1.00  0.00    -0.023 A  
HETATM   31  C   UNL     1      -6.761   1.798  63.377  1.00  0.00    -0.022 A  
HETATM   32  C   UNL     1      -7.333   3.602  64.869  1.00  0.00    -0.072 A  
HETATM   33  C   UNL     1      -8.117   1.517  63.216  1.00  0.00    -0.061 A  
HETATM   34  F   UNL     1      -6.924   4.608  65.655  1.00  0.00    -0.056 F  
HETATM   35  C   UNL     1      -9.082   2.298  63.863  1.00  0.00    -0.101 A  
ENDBRANCH  28  29
ENDBRANCH  22  28
ENDBRANCH  12  19
ENDBRANCH   4   7
ENDBRANCH   2   3
TORSDOF 5
ENDMDL
MODEL      226
REMARK 921   NORMALIZED FREE ENERGY PREDICTED BY IDOCK:    9.65 KCAL/MOL
REMARK 922        TOTAL FREE ENERGY PREDICTED BY IDOCK:   11.67 KCAL/MOL
REMARK 923 INTER-LIGAND FREE ENERGY PREDICTED BY IDOCK:    1.77 KCAL/MOL
REMARK 924 INTRA-LIGAND FREE ENERGY PREDICTED BY IDOCK:    9.90 KCAL/MOL
REMARK 927      BINDING AFFINITY PREDICTED BY RF-SCORE:    0.00 PKD
ROOT
HETATM    1  C   UNL     1     -11.442  17.058  68.287  1.00  0.00     0.291 C  
HETATM    2  O   UNL     1     -10.941  18.352  67.956  1.00  0.00    -0.236 OA 
ENDROOT
BRANCH   2   3
HETATM    3  C   UNL     1      -9.912  18.777  68.740  1.00  0.00    -0.391 C  
HETATM    4  N   UNL     1      -9.125  17.738  69.211  1.00  0.00     0.130 N  
HETATM    5  O   UNL     1      -9.709  19.957  69.009  1.00  0.00    -0.317 OA 
HETATM    6  C   UNL     1      -7.953  17.997  70.024  1.00  0.00     1.843 C  
BRANCH   4   7
HETATM    7  C   UNL     1      -9.345  16.395  68.800  1.00  0.00    -0.245 A  
HETATM    8  C   UNL     1     -10.533  15.725  69.080  1.00  0.00    -0.240 A  
HETATM    9  N   UNL     1     -11.512  16.269  69.914  1.00  0.00    -0.352 NA 
HETATM   10  N   UNL     1     -10.783  14.488  68.637  1.00  0.00    -0.245 NA 
HETATM   11  H1  UNL     1     -12.382  15.778  70.120  1.00  0.00     0.000 HD 
HETATM   12  C   UNL     1      -9.816  13.897  67.911  1.00  0.00    -0.228 A  
HETATM   13  H2  UNL     1     -11.753  17.190  69.549  1.00  0.00     0.000 HD 
HETATM   14  N   UNL     1      -8.618  14.447  67.612  1.00  0.00    -0.173 NA 
HETATM   15  H2  UNL     1      -6.709  16.463  68.700  1.00  0.00     0.000 HD 
HETATM   16  H1  UNL     1      -6.440  15.700  67.263  1.00  0.00     0.000 HD 
HETATM   17  C   UNL     1      -8.402  15.691  68.061  1.00  0.00    -0.145 A  
HETATM   18  N   UNL     1      -7.132  16.216  67.805  1.00  0.00    -0.128 NA 
BRANCH  12  19
HETATM   19  C   UNL     1     -10.092  12.544  67.391  1.00  0.00    -0.210 A  
HETATM   20  C   UNL     1     -10.855  10.834  66.161  1.00  0.00    -0.054 A  
HETATM   21  N   UNL     1      -9.709  11.419  68.041  1.00  0.00    -0.180 NA 
HETATM   22  N   UNL     1     -10.130  10.410  67.238  1.00  0.00    -0.191 NA 
HETATM   23  C   UNL     1     -11.979  12.153  64.106  1.00  0.00    -0.497 A  
HETATM   24  N   UNL     1     -11.473  10.060  65.247  1.00  0.00     2.429 NA 
HETATM   25  C   UNL     1     -10.786  12.219  66.183  1.00  0.00    -0.296 A  
HETATM   26  C   UNL     1     -12.029  10.772  64.241  1.00  0.00     2.266 A  
HETATM   27  C   UNL     1     -11.356  12.910  65.099  1.00  0.00    -0.331 A  
BRANCH  22  28
HETATM   28  C   UNL     1      -9.856   9.024  67.588  1.00  0.00    -0.173 C  
BRANCH  28  29
HETATM   29  C   UNL     1      -8.417   8.763  67.963  1.00  0.00    -0.126 A  
HETATM   30  C   UNL     1      -6.629   7.146  68.334  1.00  0.00    -0.048 A  
HETATM   31  C   UNL     1      -5.868   8.117  68.979  1.00  0.00    -0.035 A  
HETATM   32  C   UNL     1      -7.886   7.475  67.828  1.00  0.00    -0.117 A  
HETATM   33  C   UNL     1      -6.354   9.420  69.080  1.00  0.00    -0.042 A  
HETATM   34  F   UNL     1      -8.606   6.513  67.235  1.00  0.00    -0.112 F  
HETATM   35  C   UNL     1      -7.620   9.743  68.576  1.00  0.00    -0.080 A  
ENDBRANCH  28  29
ENDBRANCH  22  28
ENDBRANCH  12  19
ENDBRANCH   4   7
ENDBRANCH   2   3
TORSDOF 5
ENDMDL
MODEL      227
REMARK 921   NORMALIZED FREE ENERGY PREDICTED BY IDOCK:    9.97 KCAL/MOL
REMARK 922        TOTAL FREE ENERGY PREDICTED BY IDOCK:   12.08 KCAL/MOL
REMARK 923 INTER-LIGAND FREE ENERGY PREDICTED BY IDOCK:    5.31 KCAL/MOL
REMARK 924 INTRA-LIGAND FREE ENERGY PREDICTED BY IDOCK:    6.76 KCAL/MOL
REMARK 927      BINDING AFFINITY PREDICTED BY RF-SCORE:    0.00 PKD
ROOT
HETATM    1  C   UNL     1      -9.918   3.418  72.685  1.00  0.00    -0.154 C  
HETATM    2  O   UNL     1     -10.545   4.693  72.812  1.00  0.00    -0.197 OA 
ENDROOT
BRANCH   2   3
HETATM    3  C   UNL     1     -11.859   4.714  72.454  1.00  0.00     0.759 C  
HETATM    4  N   UNL     1     -12.149   5.690  71.514  1.00  0.00     0.542 N  
HETATM    5  O   UNL     1     -12.701   3.955  72.923  1.00  0.00     0.918 OA 
HETATM    6  C   UNL     1     -13.486   5.836  70.974  1.00  0.00     3.664 C  
BRANCH   4   7
HETATM    7  C   UNL     1     -11.125   6.487  70.932  1.00  0.00    -0.292 A  
HETATM    8  C   UNL     1     -11.329   7.202  69.755  1.00  0.00    -0.123 A  
HETATM    9  N   UNL     1     -12.490   7.057  68.992  1.00  0.00     1.690 NA 
HETATM   10  N   UNL     1     -10.402   8.013  69.235  1.00  0.00    -0.218 NA 
HETATM   11  H1  UNL     1     -12.639   7.581  68.130  1.00  0.00     0.000 HD 
HETATM   12  C   UNL     1      -9.231   8.098  69.896  1.00  0.00    -0.151 A  
HETATM   13  H2  UNL     1     -13.287   7.231  69.603  1.00  0.00     0.000 HD 
HETATM   14  N   UNL     1      -8.922   7.422  71.025  1.00  0.00    -0.151 NA 
HETATM   15  H2  UNL     1      -9.648   4.894  72.430  1.00  0.00     0.000 HD 
HETATM   16  H1  UNL     1      -8.599   5.983  73.089  1.00  0.00     0.000 HD 
HETATM   17  C   UNL     1      -9.877   6.627  71.527  1.00  0.00    -0.171 A  
HETATM   18  N   UNL     1      -9.515   5.881  72.652  1.00  0.00    -0.147 NA 
BRANCH  12  19
HETATM   19  C   UNL     1      -8.210   9.012  69.349  1.00  0.00    -0.117 A  
HETATM   20  C   UNL     1      -6.540  10.493  69.157  1.00  0.00    -0.057 A  
HETATM   21  N   UNL     1      -8.121   9.302  68.029  1.00  0.00    -0.103 NA 
HETATM   22  N   UNL     1      -7.063  10.147  67.943  1.00  0.00    -0.084 NA 
HETATM   23  C   UNL     1      -5.724  10.666  71.712  1.00  0.00     0.404 A  
HETATM   24  N   UNL     1      -5.550  11.379  69.388  1.00  0.00    -0.049 NA 
HETATM   25  C   UNL     1      -7.209   9.715  70.090  1.00  0.00    -0.128 A  
HETATM   26  C   UNL     1      -5.184  11.433  70.688  1.00  0.00    -0.117 A  
HETATM   27  C   UNL     1      -6.770   9.789  71.424  1.00  0.00     0.278 A  
BRANCH  22  28
HETATM   28  C   UNL     1      -6.623  10.651  66.651  1.00  0.00    -0.101 C  
BRANCH  28  29
HETATM   29  C   UNL     1      -6.487   9.581  65.594  1.00  0.00    -0.071 A  
HETATM   30  C   UNL     1      -7.403   8.493  63.613  1.00  0.00    -0.106 A  
HETATM   31  C   UNL     1      -6.532   7.420  63.785  1.00  0.00    -0.052 A  
HETATM   32  C   UNL     1      -7.368   9.562  64.507  1.00  0.00    -0.114 A  
HETATM   33  C   UNL     1      -5.609   7.441  64.829  1.00  0.00    -0.033 A  
HETATM   34  F   UNL     1      -8.236  10.569  64.330  1.00  0.00    -0.163 F  
HETATM   35  C   UNL     1      -5.585   8.514  65.730  1.00  0.00    -0.042 A  
ENDBRANCH  28  29
ENDBRANCH  22  28
ENDBRANCH  12  19
ENDBRANCH   4   7
ENDBRANCH   2   3
TORSDOF 5
ENDMDL
MODEL      228
REMARK 921   NORMALIZED FREE ENERGY PREDICTED BY IDOCK:   13.41 KCAL/MOL
REMARK 922        TOTAL FREE ENERGY PREDICTED BY IDOCK:   16.53 KCAL/MOL
REMARK 923 INTER-LIGAND FREE ENERGY PREDICTED BY IDOCK:    8.67 KCAL/MOL
REMARK 924 INTRA-LIGAND FREE ENERGY PREDICTED BY IDOCK:    7.86 KCAL/MOL
REMARK 927      BINDING AFFINITY PREDICTED BY RF-SCORE:    0.00 PKD
ROOT
HETATM    1  C   UNL     1     -10.271   2.837  74.444  1.00  0.00    -0.147 C  
HETATM    2  O   UNL     1     -10.823   4.152  74.387  1.00  0.00    -0.203 OA 
ENDROOT
BRANCH   2   3
HETATM    3  C   UNL     1     -12.112   4.205  73.951  1.00  0.00     1.284 C  
HETATM    4  N   UNL     1     -12.260   4.944  72.787  1.00  0.00     0.187 N  
HETATM    5  O   UNL     1     -13.046   3.664  74.533  1.00  0.00     4.782 OA 
HETATM    6  C   UNL     1     -13.553   5.075  72.145  1.00  0.00     2.974 C  
BRANCH   4   7
HETATM    7  C   UNL     1     -11.137   5.477  72.098  1.00  0.00    -0.210 A  
HETATM    8  C   UNL     1     -11.240   5.990  70.808  1.00  0.00    -0.269 A  
HETATM    9  N   UNL     1     -12.410   5.869  70.055  1.00  0.00     1.610 NA 
HETATM   10  N   UNL     1     -10.210   6.561  70.175  1.00  0.00    -0.188 NA 
HETATM   11  H1  UNL     1     -12.487   6.245  69.110  1.00  0.00     0.000 HD 
HETATM   12  C   UNL     1      -9.040   6.604  70.840  1.00  0.00    -0.154 A  
HETATM   13  H2  UNL     1     -13.176   6.257  70.606  1.00  0.00     0.000 HD 
HETATM   14  N   UNL     1      -8.826   6.106  72.078  1.00  0.00    -0.139 NA 
HETATM   15  H2  UNL     1      -9.893   3.993  73.891  1.00  0.00     0.000 HD 
HETATM   16  H1  UNL     1      -8.704   5.031  74.373  1.00  0.00     0.000 HD 
HETATM   17  C   UNL     1      -9.881   5.551  72.690  1.00  0.00    -0.162 A  
HETATM   18  N   UNL     1      -9.626   4.976  73.938  1.00  0.00    -0.129 NA 
BRANCH  12  19
HETATM   19  C   UNL     1      -7.902   7.258  70.164  1.00  0.00    -0.100 A  
HETATM   20  C   UNL     1      -6.194   8.623  69.678  1.00  0.00    -0.036 A  
HETATM   21  N   UNL     1      -7.523   6.945  68.902  1.00  0.00    -0.093 NA 
HETATM   22  N   UNL     1      -6.452   7.742  68.667  1.00  0.00    -0.047 NA 
HETATM   23  C   UNL     1      -5.943   9.962  71.996  1.00  0.00     0.336 A  
HETATM   24  N   UNL     1      -5.256   9.592  69.687  1.00  0.00    -0.034 NA 
HETATM   25  C   UNL     1      -7.067   8.287  70.702  1.00  0.00    -0.042 A  
HETATM   26  C   UNL     1      -5.177  10.239  70.871  1.00  0.00    -0.073 A  
HETATM   27  C   UNL     1      -6.924   8.972  71.921  1.00  0.00     0.065 A  
BRANCH  22  28
HETATM   28  C   UNL     1      -5.731   7.658  67.405  1.00  0.00    -0.036 C  
BRANCH  28  29
HETATM   29  C   UNL     1      -6.390   6.762  66.385  1.00  0.00    -0.046 A  
HETATM   30  C   UNL     1      -7.929   6.536  64.506  1.00  0.00    -0.110 A  
HETATM   31  C   UNL     1      -7.943   5.153  64.668  1.00  0.00    -0.102 A  
HETATM   32  C   UNL     1      -7.152   7.324  65.355  1.00  0.00    -0.061 A  
HETATM   33  C   UNL     1      -7.152   4.566  65.654  1.00  0.00    -0.067 A  
HETATM   34  F   UNL     1      -7.178   8.654  65.190  1.00  0.00    -0.081 F  
HETATM   35  C   UNL     1      -6.380   5.363  66.508  1.00  0.00    -0.039 A  
ENDBRANCH  28  29
ENDBRANCH  22  28
ENDBRANCH  12  19
ENDBRANCH   4   7
ENDBRANCH   2   3
TORSDOF 5
ENDMDL
MODEL      229
REMARK 921   NORMALIZED FREE ENERGY PREDICTED BY IDOCK:   24.49 KCAL/MOL
REMARK 922        TOTAL FREE ENERGY PREDICTED BY IDOCK:   30.84 KCAL/MOL
REMARK 923 INTER-LIGAND FREE ENERGY PREDICTED BY IDOCK:    9.19 KCAL/MOL
REMARK 924 INTRA-LIGAND FREE ENERGY PREDICTED BY IDOCK:   21.65 KCAL/MOL
REMARK 927      BINDING AFFINITY PREDICTED BY RF-SCORE:    0.00 PKD
ROOT
HETATM    1  C   UNL     1      -8.942   8.428  71.031  1.00  0.00    -0.165 C  
HETATM    2  O   UNL     1      -8.428   7.271  71.689  1.00  0.00    -0.112 OA 
ENDROOT
BRANCH   2   3
HETATM    3  C   UNL     1      -7.894   7.511  72.919  1.00  0.00    -0.100 C  
HETATM    4  N   UNL     1      -7.286   8.754  73.012  1.00  0.00     0.127 N  
HETATM    5  O   UNL     1      -7.937   6.707  73.844  1.00  0.00    -0.105 OA 
HETATM    6  C   UNL     1      -6.702   9.209  74.258  1.00  0.00     0.251 C  
BRANCH   4   7
HETATM    7  C   UNL     1      -7.340   9.689  71.942  1.00  0.00     1.138 A  
HETATM    8  C   UNL     1      -6.350  10.649  71.753  1.00  0.00     1.415 A  
HETATM    9  N   UNL     1      -5.332  10.856  72.686  1.00  0.00    -0.147 NA 
HETATM   10  N   UNL     1      -6.348  11.486  70.711  1.00  0.00    -0.140 NA 
HETATM   11  H1  UNL     1      -4.606  11.559  72.548  1.00  0.00     0.000 HD 
HETATM   12  C   UNL     1      -7.373  11.376  69.843  1.00  0.00     0.495 A  
HETATM   13  H2  UNL     1      -4.870   9.961  72.846  1.00  0.00     0.000 HD 
HETATM   14  N   UNL     1      -8.399  10.503  69.954  1.00  0.00     0.084 NA 
HETATM   15  H2  UNL     1      -9.885   9.000  72.056  1.00  0.00     0.000 HD 
HETATM   16  H1  UNL     1     -10.221   8.810  70.453  1.00  0.00     0.000 HD 
HETATM   17  C   UNL     1      -8.365   9.670  71.003  1.00  0.00     0.417 A  
HETATM   18  N   UNL     1      -9.469   8.824  71.142  1.00  0.00    -0.216 NA 
BRANCH  12  19
HETATM   19  C   UNL     1      -7.367  12.274  68.673  1.00  0.00    -0.106 A  
HETATM   20  C   UNL     1      -7.207  14.080  67.356  1.00  0.00    -0.095 A  
HETATM   21  N   UNL     1      -7.761  11.872  67.441  1.00  0.00    -0.149 NA 
HETATM   22  N   UNL     1      -7.590  12.969  66.661  1.00  0.00     0.500 NA 
HETATM   23  C   UNL     1      -6.231  15.885  69.093  1.00  0.00    -0.140 A  
HETATM   24  N   UNL     1      -7.049  15.326  66.866  1.00  0.00    -0.112 NA 
HETATM   25  C   UNL     1      -6.976  13.650  68.654  1.00  0.00    -0.103 A  
HETATM   26  C   UNL     1      -6.565  16.196  67.781  1.00  0.00    -0.151 A  
HETATM   27  C   UNL     1      -6.446  14.588  69.559  1.00  0.00    -0.134 A  
BRANCH  22  28
HETATM   28  C   UNL     1      -7.872  12.912  65.234  1.00  0.00     4.497 C  
BRANCH  28  29
HETATM   29  C   UNL     1      -9.099  12.103  64.886  1.00  0.00     0.536 A  
HETATM   30  C   UNL     1     -11.160  11.035  65.632  1.00  0.00    -0.008 A  
HETATM   31  C   UNL     1     -11.231  10.314  64.443  1.00  0.00     2.300 A  
HETATM   32  C   UNL     1     -10.106  11.923  65.840  1.00  0.00    -0.234 A  
HETATM   33  C   UNL     1     -10.268  10.515  63.456  1.00  0.00    -0.073 A  
HETATM   34  F   UNL     1     -10.050  12.584  67.006  1.00  0.00    -0.210 F  
HETATM   35  C   UNL     1      -9.207  11.403  63.674  1.00  0.00    -0.067 A  
ENDBRANCH  28  29
ENDBRANCH  22  28
ENDBRANCH  12  19
ENDBRANCH   4   7
ENDBRANCH   2   3
TORSDOF 5
ENDMDL
