MODEL        1
REMARK 921   NORMALIZED FREE ENERGY PREDICTED BY IDOCK:   -6.20 KCAL/MOL
REMARK 922        TOTAL FREE ENERGY PREDICTED BY IDOCK:   -7.16 KCAL/MOL
REMARK 923 INTER-LIGAND FREE ENERGY PREDICTED BY IDOCK:   -6.92 KCAL/MOL
REMARK 924 INTRA-LIGAND FREE ENERGY PREDICTED BY IDOCK:   -0.24 KCAL/MOL
REMARK 927      BINDING AFFINITY PREDICTED BY RF-SCORE:    0.00 PKD
ROOT
HETATM    1  O   UNL     1     -12.897  14.453  66.533  1.00  0.00    -0.420 OA 
HETATM    2  C   UNL     1     -11.567  14.279  65.934  1.00  0.00    -0.358 C  
HETATM    3  H   UNL     1     -13.437  14.919  65.906  1.00  0.00     0.000 HD 
HETATM    4  P   UNL     1     -10.942  15.955  65.551  1.00  0.00    -0.120 P  
HETATM    5  O   UNL     1     -12.967  12.489  65.033  1.00  0.00    -0.779 OA 
HETATM    6  P   UNL     1     -11.669  13.299  64.393  1.00  0.00    -0.434 P  
HETATM    7  O   UNL     1      -9.416  15.349  65.488  1.00  0.00    -0.282 OA 
HETATM    8  O   UNL     1     -10.981  16.262  67.177  1.00  0.00    -0.248 OA 
HETATM    9  O   UNL     1     -12.619  14.527  63.830  1.00  0.00    -0.825 OA 
HETATM   10  O   UNL     1     -11.756  12.470  63.088  1.00  0.00    -0.430 OA 
HETATM   11  O   UNL     1     -10.414  17.375  65.226  1.00  0.00    -0.654 OA 
ENDROOT
BRANCH   2  12
HETATM   12  C   UNL     1     -10.676  13.509  66.969  1.00  0.00    -0.278 C  
BRANCH  12  13
HETATM   13  C   UNL     1     -11.336  12.908  68.192  1.00  0.00    -0.327 A  
HETATM   14  C   UNL     1     -11.576  13.674  69.318  1.00  0.00    -0.311 A  
HETATM   15  N   UNL     1     -12.042  13.179  70.492  1.00  0.00    -0.346 NA 
HETATM   16  C   UNL     1     -12.273  11.849  70.537  1.00  0.00    -0.336 A  
HETATM   17  C   UNL     1     -12.085  10.999  69.472  1.00  0.00    -0.400 A  
HETATM   18  C   UNL     1     -11.609  11.529  68.272  1.00  0.00    -0.378 A  
ENDBRANCH  12  13
ENDBRANCH   2  12
TORSDOF 2
ENDMDL
MODEL        2
REMARK 921   NORMALIZED FREE ENERGY PREDICTED BY IDOCK:   -6.13 KCAL/MOL
REMARK 922        TOTAL FREE ENERGY PREDICTED BY IDOCK:   -7.08 KCAL/MOL
REMARK 923 INTER-LIGAND FREE ENERGY PREDICTED BY IDOCK:   -6.78 KCAL/MOL
REMARK 924 INTRA-LIGAND FREE ENERGY PREDICTED BY IDOCK:   -0.31 KCAL/MOL
REMARK 927      BINDING AFFINITY PREDICTED BY RF-SCORE:    0.00 PKD
ROOT
HETATM    1  O   UNL     1     -12.287  14.454  66.519  1.00  0.00    -0.458 OA 
HETATM    2  C   UNL     1     -11.328  13.629  65.772  1.00  0.00    -0.306 C  
HETATM    3  H   UNL     1     -12.965  13.879  66.852  1.00  0.00     0.000 HD 
HETATM    4  P   UNL     1     -12.276  12.791  64.451  1.00  0.00    -0.437 P  
HETATM    5  O   UNL     1     -10.718  13.430  68.131  1.00  0.00    -0.239 OA 
HETATM    6  P   UNL     1     -10.561  12.374  66.861  1.00  0.00    -0.239 P  
HETATM    7  O   UNL     1     -10.871  12.522  63.643  1.00  0.00    -0.423 OA 
HETATM    8  O   UNL     1     -12.594  14.292  63.829  1.00  0.00    -0.821 OA 
HETATM    9  O   UNL     1     -12.096  11.796  67.057  1.00  0.00    -0.575 OA 
HETATM   10  O   UNL     1      -9.913  11.312  67.783  1.00  0.00    -0.172 OA 
HETATM   11  O   UNL     1     -13.080  12.082  63.333  1.00  0.00    -0.747 OA 
ENDROOT
BRANCH   2  12
HETATM   12  C   UNL     1     -10.208  14.578  65.223  1.00  0.00    -0.431 C  
BRANCH  12  13
HETATM   13  C   UNL     1     -10.080  15.968  65.812  1.00  0.00    -0.393 A  
HETATM   14  C   UNL     1     -10.700  17.052  65.216  1.00  0.00    -0.096 A  
HETATM   15  N   UNL     1     -10.526  18.339  65.608  1.00  0.00    -0.623 NA 
HETATM   16  C   UNL     1      -9.685  18.546  66.644  1.00  0.00    -0.341 A  
HETATM   17  C   UNL     1      -9.032  17.541  67.318  1.00  0.00    -0.238 A  
HETATM   18  C   UNL     1      -9.227  16.223  66.902  1.00  0.00    -0.237 A  
ENDBRANCH  12  13
ENDBRANCH   2  12
TORSDOF 2
ENDMDL
MODEL        3
REMARK 921   NORMALIZED FREE ENERGY PREDICTED BY IDOCK:   -5.76 KCAL/MOL
REMARK 922        TOTAL FREE ENERGY PREDICTED BY IDOCK:   -6.68 KCAL/MOL
REMARK 923 INTER-LIGAND FREE ENERGY PREDICTED BY IDOCK:   -6.49 KCAL/MOL
REMARK 924 INTRA-LIGAND FREE ENERGY PREDICTED BY IDOCK:   -0.18 KCAL/MOL
REMARK 927      BINDING AFFINITY PREDICTED BY RF-SCORE:    0.00 PKD
ROOT
HETATM    1  O   UNL     1     -12.172  14.361  67.004  1.00  0.00    -0.533 OA 
HETATM    2  C   UNL     1     -11.257  13.551  66.188  1.00  0.00    -0.295 C  
HETATM    3  H   UNL     1     -12.873  13.794  67.302  1.00  0.00     0.000 HD 
HETATM    4  P   UNL     1     -12.252  12.858  64.819  1.00  0.00    -0.461 P  
HETATM    5  O   UNL     1     -10.638  13.150  68.519  1.00  0.00    -0.250 OA 
HETATM    6  P   UNL     1     -10.539  12.186  67.173  1.00  0.00    -0.240 P  
HETATM    7  O   UNL     1     -10.868  12.586  63.977  1.00  0.00    -0.344 OA 
HETATM    8  O   UNL     1     -12.506  14.413  64.313  1.00  0.00    -0.659 OA 
HETATM    9  O   UNL     1     -12.097  11.665  67.342  1.00  0.00    -0.605 OA 
HETATM   10  O   UNL     1      -9.933  11.030  68.006  1.00  0.00    -0.166 OA 
HETATM   11  O   UNL     1     -13.096  12.271  63.660  1.00  0.00    -0.780 OA 
ENDROOT
BRANCH   2  12
HETATM   12  C   UNL     1     -10.099  14.488  65.698  1.00  0.00    -0.384 C  
BRANCH  12  13
HETATM   13  C   UNL     1      -9.989  15.877  66.290  1.00  0.00    -0.318 A  
HETATM   14  C   UNL     1      -9.481  16.070  67.562  1.00  0.00    -0.223 A  
HETATM   15  N   UNL     1      -9.471  17.263  68.207  1.00  0.00    -0.273 NA 
HETATM   16  C   UNL     1     -10.003  18.312  67.544  1.00  0.00    -0.335 A  
HETATM   17  C   UNL     1     -10.520  18.236  66.272  1.00  0.00    -0.397 A  
HETATM   18  C   UNL     1     -10.516  16.999  65.623  1.00  0.00    -0.229 A  
ENDBRANCH  12  13
ENDBRANCH   2  12
TORSDOF 2
ENDMDL
MODEL        4
REMARK 921   NORMALIZED FREE ENERGY PREDICTED BY IDOCK:   -5.75 KCAL/MOL
REMARK 922        TOTAL FREE ENERGY PREDICTED BY IDOCK:   -6.66 KCAL/MOL
REMARK 923 INTER-LIGAND FREE ENERGY PREDICTED BY IDOCK:   -6.34 KCAL/MOL
REMARK 924 INTRA-LIGAND FREE ENERGY PREDICTED BY IDOCK:   -0.33 KCAL/MOL
REMARK 927      BINDING AFFINITY PREDICTED BY RF-SCORE:    0.00 PKD
ROOT
HETATM    1  O   UNL     1     -12.590  14.371  67.386  1.00  0.00    -0.532 OA 
HETATM    2  C   UNL     1     -11.132  14.236  67.523  1.00  0.00    -0.298 C  
HETATM    3  H   UNL     1     -12.803  14.276  66.465  1.00  0.00     0.000 HD 
HETATM    4  P   UNL     1     -10.387  15.536  66.473  1.00  0.00    -0.307 P  
HETATM    5  O   UNL     1     -12.028  11.963  67.434  1.00  0.00    -0.603 OA 
HETATM    6  P   UNL     1     -10.572  12.592  66.947  1.00  0.00    -0.244 P  
HETATM    7  O   UNL     1      -8.988  15.390  67.322  1.00  0.00    -0.184 OA 
HETATM    8  O   UNL     1     -11.118  16.647  67.458  1.00  0.00    -0.207 OA 
HETATM    9  O   UNL     1     -11.176  13.045  65.479  1.00  0.00    -0.284 OA 
HETATM   10  O   UNL     1     -10.099  11.201  66.460  1.00  0.00    -0.210 OA 
HETATM   11  O   UNL     1      -9.756  16.636  65.584  1.00  0.00    -0.530 OA 
ENDROOT
BRANCH   2  12
HETATM   12  C   UNL     1     -10.780  14.391  69.042  1.00  0.00    -0.261 C  
BRANCH  12  13
HETATM   13  C   UNL     1     -11.901  14.324  70.058  1.00  0.00    -0.378 A  
HETATM   14  C   UNL     1     -12.532  15.474  70.497  1.00  0.00    -0.427 A  
HETATM   15  N   UNL     1     -13.450  15.506  71.495  1.00  0.00    -0.500 NA 
HETATM   16  C   UNL     1     -13.742  14.327  72.085  1.00  0.00    -0.474 A  
HETATM   17  C   UNL     1     -13.187  13.124  71.717  1.00  0.00    -0.494 A  
HETATM   18  C   UNL     1     -12.247  13.111  70.684  1.00  0.00    -0.402 A  
ENDBRANCH  12  13
ENDBRANCH   2  12
TORSDOF 2
ENDMDL
MODEL        5
REMARK 921   NORMALIZED FREE ENERGY PREDICTED BY IDOCK:   -5.75 KCAL/MOL
REMARK 922        TOTAL FREE ENERGY PREDICTED BY IDOCK:   -6.66 KCAL/MOL
REMARK 923 INTER-LIGAND FREE ENERGY PREDICTED BY IDOCK:   -6.37 KCAL/MOL
REMARK 924 INTRA-LIGAND FREE ENERGY PREDICTED BY IDOCK:   -0.29 KCAL/MOL
REMARK 927      BINDING AFFINITY PREDICTED BY RF-SCORE:    0.00 PKD
ROOT
HETATM    1  O   UNL     1      -9.056  15.976  65.581  1.00  0.00    -0.357 OA 
HETATM    2  C   UNL     1     -10.208  15.373  66.265  1.00  0.00    -0.290 C  
HETATM    3  H   UNL     1      -8.726  15.340  64.957  1.00  0.00     0.000 HD 
HETATM    4  P   UNL     1      -9.603  13.837  67.054  1.00  0.00    -0.266 P  
HETATM    5  O   UNL     1     -11.049  16.251  64.145  1.00  0.00    -0.733 OA 
HETATM    6  P   UNL     1     -11.535  14.965  65.073  1.00  0.00    -0.330 P  
HETATM    7  O   UNL     1     -10.910  13.859  68.050  1.00  0.00    -0.239 OA 
HETATM    8  O   UNL     1      -8.615  14.788  67.979  1.00  0.00    -0.155 OA 
HETATM    9  O   UNL     1     -10.425  13.955  64.384  1.00  0.00    -0.397 OA 
HETATM   10  O   UNL     1     -12.657  14.619  64.064  1.00  0.00    -0.819 OA 
HETATM   11  O   UNL     1      -9.091  12.536  67.721  1.00  0.00    -0.175 OA 
ENDROOT
BRANCH   2  12
HETATM   12  C   UNL     1     -10.754  16.422  67.294  1.00  0.00    -0.257 C  
BRANCH  12  13
HETATM   13  C   UNL     1     -10.188  17.827  67.269  1.00  0.00    -0.350 A  
HETATM   14  C   UNL     1      -9.303  18.254  68.242  1.00  0.00    -0.308 A  
HETATM   15  N   UNL     1      -8.856  19.529  68.360  1.00  0.00    -0.344 NA 
HETATM   16  C   UNL     1      -9.327  20.419  67.460  1.00  0.00    -0.367 A  
HETATM   17  C   UNL     1     -10.195  20.099  66.443  1.00  0.00    -0.552 A  
HETATM   18  C   UNL     1     -10.640  18.780  66.336  1.00  0.00    -0.429 A  
ENDBRANCH  12  13
ENDBRANCH   2  12
TORSDOF 2
ENDMDL
MODEL        6
REMARK 921   NORMALIZED FREE ENERGY PREDICTED BY IDOCK:   -5.61 KCAL/MOL
REMARK 922        TOTAL FREE ENERGY PREDICTED BY IDOCK:   -6.50 KCAL/MOL
REMARK 923 INTER-LIGAND FREE ENERGY PREDICTED BY IDOCK:   -6.34 KCAL/MOL
REMARK 924 INTRA-LIGAND FREE ENERGY PREDICTED BY IDOCK:   -0.16 KCAL/MOL
REMARK 927      BINDING AFFINITY PREDICTED BY RF-SCORE:    0.00 PKD
ROOT
HETATM    1  O   UNL     1      -9.108  16.116  65.703  1.00  0.00    -0.394 OA 
HETATM    2  C   UNL     1     -10.284  15.476  66.311  1.00  0.00    -0.294 C  
HETATM    3  H   UNL     1      -8.759  15.519  65.053  1.00  0.00     0.000 HD 
HETATM    4  P   UNL     1      -9.707  13.892  67.021  1.00  0.00    -0.265 P  
HETATM    5  O   UNL     1     -11.053  16.487  64.223  1.00  0.00    -0.915 OA 
HETATM    6  P   UNL     1     -11.571  15.147  65.052  1.00  0.00    -0.179 P  
HETATM    7  O   UNL     1     -11.046  13.856  67.974  1.00  0.00    -0.246 OA 
HETATM    8  O   UNL     1      -8.748  14.780  68.036  1.00  0.00    -0.158 OA 
HETATM    9  O   UNL     1     -10.440  14.178  64.339  1.00  0.00    -0.329 OA 
HETATM   10  O   UNL     1     -12.660  14.869  63.987  1.00  0.00    -0.832 OA 
HETATM   11  O   UNL     1      -9.219  12.550  67.622  1.00  0.00    -0.177 OA 
ENDROOT
BRANCH   2  12
HETATM   12  C   UNL     1     -10.861  16.461  67.385  1.00  0.00    -0.219 C  
BRANCH  12  13
HETATM   13  C   UNL     1     -10.317  17.873  67.443  1.00  0.00    -0.383 A  
HETATM   14  C   UNL     1     -10.661  18.808  66.484  1.00  0.00    -0.374 A  
HETATM   15  N   UNL     1     -10.115  20.046  66.396  1.00  0.00    -0.472 NA 
HETATM   16  C   UNL     1      -9.174  20.358  67.313  1.00  0.00    -0.394 A  
HETATM   17  C   UNL     1      -8.769  19.511  68.319  1.00  0.00    -0.380 A  
HETATM   18  C   UNL     1      -9.346  18.242  68.394  1.00  0.00    -0.328 A  
ENDBRANCH  12  13
ENDBRANCH   2  12
TORSDOF 2
ENDMDL
MODEL        7
REMARK 921   NORMALIZED FREE ENERGY PREDICTED BY IDOCK:   -5.60 KCAL/MOL
REMARK 922        TOTAL FREE ENERGY PREDICTED BY IDOCK:   -6.49 KCAL/MOL
REMARK 923 INTER-LIGAND FREE ENERGY PREDICTED BY IDOCK:   -6.19 KCAL/MOL
REMARK 924 INTRA-LIGAND FREE ENERGY PREDICTED BY IDOCK:   -0.30 KCAL/MOL
REMARK 927      BINDING AFFINITY PREDICTED BY RF-SCORE:    0.00 PKD
ROOT
HETATM    1  O   UNL     1     -10.087  14.016  69.468  1.00  0.00    -0.407 OA 
HETATM    2  C   UNL     1     -10.949  14.626  68.445  1.00  0.00    -0.251 C  
HETATM    3  H   UNL     1      -9.283  13.744  69.042  1.00  0.00     0.000 HD 
HETATM    4  P   UNL     1     -11.211  13.354  67.156  1.00  0.00    -0.329 P  
HETATM    5  O   UNL     1      -9.382  16.364  69.149  1.00  0.00    -0.256 OA 
HETATM    6  P   UNL     1     -10.144  16.090  67.701  1.00  0.00    -0.254 P  
HETATM    7  O   UNL     1     -12.531  14.182  66.637  1.00  0.00    -0.426 OA 
HETATM    8  O   UNL     1     -11.971  12.445  68.312  1.00  0.00    -0.334 OA 
HETATM    9  O   UNL     1      -8.976  15.033  67.204  1.00  0.00    -0.194 OA 
HETATM   10  O   UNL     1      -9.461  17.330  67.072  1.00  0.00    -0.248 OA 
HETATM   11  O   UNL     1     -11.431  12.276  66.065  1.00  0.00    -0.346 OA 
ENDROOT
BRANCH   2  12
HETATM   12  C   UNL     1     -12.276  15.076  69.147  1.00  0.00    -0.186 C  
BRANCH  12  13
HETATM   13  C   UNL     1     -12.365  14.991  70.656  1.00  0.00    -0.404 A  
HETATM   14  C   UNL     1     -13.076  13.975  71.270  1.00  0.00    -0.329 A  
HETATM   15  N   UNL     1     -13.308  13.906  72.605  1.00  0.00    -0.545 NA 
HETATM   16  C   UNL     1     -12.807  14.909  73.358  1.00  0.00    -0.515 A  
HETATM   17  C   UNL     1     -12.073  15.956  72.853  1.00  0.00    -0.612 A  
HETATM   18  C   UNL     1     -11.841  16.007  71.478  1.00  0.00    -0.554 A  
ENDBRANCH  12  13
ENDBRANCH   2  12
TORSDOF 2
ENDMDL
MODEL        8
REMARK 921   NORMALIZED FREE ENERGY PREDICTED BY IDOCK:   -5.42 KCAL/MOL
REMARK 922        TOTAL FREE ENERGY PREDICTED BY IDOCK:   -6.29 KCAL/MOL
REMARK 923 INTER-LIGAND FREE ENERGY PREDICTED BY IDOCK:   -5.95 KCAL/MOL
REMARK 924 INTRA-LIGAND FREE ENERGY PREDICTED BY IDOCK:   -0.34 KCAL/MOL
REMARK 927      BINDING AFFINITY PREDICTED BY RF-SCORE:    0.00 PKD
ROOT
HETATM    1  O   UNL     1     -12.254  12.257  67.070  1.00  0.00    -0.522 OA 
HETATM    2  C   UNL     1     -11.418  13.270  66.410  1.00  0.00    -0.329 C  
HETATM    3  H   UNL     1     -13.124  12.623  67.173  1.00  0.00     0.000 HD 
HETATM    4  P   UNL     1     -11.454  14.753  67.480  1.00  0.00    -0.328 P  
HETATM    5  O   UNL     1     -12.663  12.142  64.634  1.00  0.00    -0.479 OA 
HETATM    6  P   UNL     1     -12.086  13.692  64.760  1.00  0.00    -0.422 P  
HETATM    7  O   UNL     1     -10.089  15.293  66.741  1.00  0.00    -0.249 OA 
HETATM    8  O   UNL     1     -10.717  13.840  68.646  1.00  0.00    -0.246 OA 
HETATM    9  O   UNL     1     -13.427  14.203  65.577  1.00  0.00    -0.643 OA 
HETATM   10  O   UNL     1     -12.652  14.049  63.363  1.00  0.00    -0.845 OA 
HETATM   11  O   UNL     1     -11.484  16.010  68.386  1.00  0.00    -0.369 OA 
ENDROOT
BRANCH   2  12
HETATM   12  C   UNL     1      -9.982  12.665  66.238  1.00  0.00    -0.266 C  
BRANCH  12  13
HETATM   13  C   UNL     1      -9.777  11.191  66.514  1.00  0.00    -0.228 A  
HETATM   14  C   UNL     1      -9.317  10.754  67.744  1.00  0.00    -0.152 A  
HETATM   15  N   UNL     1      -8.987   9.469  68.022  1.00  0.00    -0.124 NA 
HETATM   16  C   UNL     1      -9.120   8.580  67.014  1.00  0.00    -0.143 A  
HETATM   17  C   UNL     1      -9.583   8.902  65.760  1.00  0.00    -0.245 A  
HETATM   18  C   UNL     1      -9.921  10.230  65.495  1.00  0.00    -0.364 A  
ENDBRANCH  12  13
ENDBRANCH   2  12
TORSDOF 2
ENDMDL
MODEL        9
REMARK 921   NORMALIZED FREE ENERGY PREDICTED BY IDOCK:   -5.41 KCAL/MOL
REMARK 922        TOTAL FREE ENERGY PREDICTED BY IDOCK:   -6.28 KCAL/MOL
REMARK 923 INTER-LIGAND FREE ENERGY PREDICTED BY IDOCK:   -5.95 KCAL/MOL
REMARK 924 INTRA-LIGAND FREE ENERGY PREDICTED BY IDOCK:   -0.33 KCAL/MOL
REMARK 927      BINDING AFFINITY PREDICTED BY RF-SCORE:    0.00 PKD
ROOT
HETATM    1  O   UNL     1      -9.637  13.413  65.931  1.00  0.00    -0.444 OA 
HETATM    2  C   UNL     1     -11.085  13.250  66.126  1.00  0.00    -0.285 C  
HETATM    3  H   UNL     1      -9.442  14.341  65.984  1.00  0.00     0.000 HD 
HETATM    4  P   UNL     1     -11.903  14.235  64.819  1.00  0.00    -0.463 P  
HETATM    5  O   UNL     1     -10.107  13.441  68.358  1.00  0.00    -0.241 OA 
HETATM    6  P   UNL     1     -11.596  13.872  67.769  1.00  0.00    -0.386 P  
HETATM    7  O   UNL     1     -13.275  13.361  65.048  1.00  0.00    -0.715 OA 
HETATM    8  O   UNL     1     -11.191  13.226  63.716  1.00  0.00    -0.341 OA 
HETATM    9  O   UNL     1     -11.044  15.336  67.241  1.00  0.00    -0.327 OA 
HETATM   10  O   UNL     1     -12.029  14.400  69.159  1.00  0.00    -0.316 OA 
HETATM   11  O   UNL     1     -12.594  15.069  63.712  1.00  0.00    -0.776 OA 
ENDROOT
BRANCH   2  12
HETATM   12  C   UNL     1     -11.408  11.718  66.039  1.00  0.00    -0.335 C  
BRANCH  12  13
HETATM   13  C   UNL     1     -10.257  10.736  65.967  1.00  0.00    -0.310 A  
HETATM   14  C   UNL     1      -9.820  10.241  64.752  1.00  0.00    -0.334 A  
HETATM   15  N   UNL     1      -8.888   9.266  64.616  1.00  0.00    -0.198 NA 
HETATM   16  C   UNL     1      -8.373   8.760  65.758  1.00  0.00    -0.134 A  
HETATM   17  C   UNL     1      -8.724   9.190  67.017  1.00  0.00    -0.131 A  
HETATM   18  C   UNL     1      -9.682  10.198  67.134  1.00  0.00    -0.214 A  
ENDBRANCH  12  13
ENDBRANCH   2  12
TORSDOF 2
ENDMDL
MODEL       10
REMARK 921   NORMALIZED FREE ENERGY PREDICTED BY IDOCK:   -5.37 KCAL/MOL
REMARK 922        TOTAL FREE ENERGY PREDICTED BY IDOCK:   -6.23 KCAL/MOL
REMARK 923 INTER-LIGAND FREE ENERGY PREDICTED BY IDOCK:   -6.06 KCAL/MOL
REMARK 924 INTRA-LIGAND FREE ENERGY PREDICTED BY IDOCK:   -0.17 KCAL/MOL
REMARK 927      BINDING AFFINITY PREDICTED BY RF-SCORE:    0.00 PKD
ROOT
HETATM    1  O   UNL     1      -9.867  13.021  66.175  1.00  0.00    -0.273 OA 
HETATM    2  C   UNL     1     -11.184  13.637  66.393  1.00  0.00    -0.308 C  
HETATM    3  H   UNL     1      -9.357  13.612  65.635  1.00  0.00     0.000 HD 
HETATM    4  P   UNL     1     -11.912  13.912  64.737  1.00  0.00    -0.447 P  
HETATM    5  O   UNL     1      -9.672  14.647  68.027  1.00  0.00    -0.208 OA 
HETATM    6  P   UNL     1     -11.018  15.240  67.260  1.00  0.00    -0.291 P  
HETATM    7  O   UNL     1     -13.397  14.023  65.433  1.00  0.00    -0.721 OA 
HETATM    8  O   UNL     1     -11.895  12.269  64.538  1.00  0.00    -0.356 OA 
HETATM    9  O   UNL     1     -10.146  15.715  65.940  1.00  0.00    -0.302 OA 
HETATM   10  O   UNL     1     -10.877  16.596  67.993  1.00  0.00    -0.343 OA 
HETATM   11  O   UNL     1     -12.529  14.145  63.335  1.00  0.00    -0.797 OA 
ENDROOT
BRANCH   2  12
HETATM   12  C   UNL     1     -12.026  12.661  67.284  1.00  0.00    -0.321 C  
BRANCH  12  13
HETATM   13  C   UNL     1     -11.325  11.490  67.942  1.00  0.00    -0.372 A  
HETATM   14  C   UNL     1     -11.025  10.347  67.224  1.00  0.00    -0.240 A  
HETATM   15  N   UNL     1     -10.519   9.213  67.771  1.00  0.00    -0.246 NA 
HETATM   16  C   UNL     1     -10.309   9.229  69.105  1.00  0.00    -0.211 A  
HETATM   17  C   UNL     1     -10.556  10.316  69.910  1.00  0.00    -0.324 A  
HETATM   18  C   UNL     1     -11.073  11.474  69.327  1.00  0.00    -0.305 A  
ENDBRANCH  12  13
ENDBRANCH   2  12
TORSDOF 2
ENDMDL
MODEL       11
REMARK 921   NORMALIZED FREE ENERGY PREDICTED BY IDOCK:   -5.34 KCAL/MOL
REMARK 922        TOTAL FREE ENERGY PREDICTED BY IDOCK:   -6.20 KCAL/MOL
REMARK 923 INTER-LIGAND FREE ENERGY PREDICTED BY IDOCK:   -5.93 KCAL/MOL
REMARK 924 INTRA-LIGAND FREE ENERGY PREDICTED BY IDOCK:   -0.27 KCAL/MOL
REMARK 927      BINDING AFFINITY PREDICTED BY RF-SCORE:    0.00 PKD
ROOT
HETATM    1  O   UNL     1      -8.930  15.608  65.627  1.00  0.00    -0.305 OA 
HETATM    2  C   UNL     1      -9.701  16.040  66.801  1.00  0.00    -0.239 C  
HETATM    3  H   UNL     1      -8.082  16.033  65.667  1.00  0.00     0.000 HD 
HETATM    4  P   UNL     1      -9.806  17.864  66.716  1.00  0.00    -0.367 P  
HETATM    5  O   UNL     1      -8.251  14.224  67.560  1.00  0.00    -0.163 OA 
HETATM    6  P   UNL     1      -8.861  15.548  68.351  1.00  0.00    -0.201 P  
HETATM    7  O   UNL     1     -11.088  17.818  67.742  1.00  0.00    -0.207 OA 
HETATM    8  O   UNL     1     -10.655  17.676  65.308  1.00  0.00    -0.663 OA 
HETATM    9  O   UNL     1      -7.626  16.516  67.833  1.00  0.00    -0.146 OA 
HETATM   10  O   UNL     1      -8.149  15.133  69.662  1.00  0.00    -0.214 OA 
HETATM   11  O   UNL     1      -9.894  19.409  66.643  1.00  0.00    -0.324 OA 
ENDROOT
BRANCH   2  12
HETATM   12  C   UNL     1     -11.101  15.337  66.737  1.00  0.00    -0.278 C  
BRANCH  12  13
HETATM   13  C   UNL     1     -11.369  14.353  65.617  1.00  0.00    -0.330 A  
HETATM   14  C   UNL     1     -12.113  14.721  64.511  1.00  0.00    -0.446 A  
HETATM   15  N   UNL     1     -12.504  13.864  63.535  1.00  0.00    -0.812 NA 
HETATM   16  C   UNL     1     -12.132  12.573  63.680  1.00  0.00    -0.554 A  
HETATM   17  C   UNL     1     -11.378  12.104  64.731  1.00  0.00    -0.378 A  
HETATM   18  C   UNL     1     -10.984  13.003  65.723  1.00  0.00    -0.299 A  
ENDBRANCH  12  13
ENDBRANCH   2  12
TORSDOF 2
ENDMDL
MODEL       12
REMARK 921   NORMALIZED FREE ENERGY PREDICTED BY IDOCK:   -5.33 KCAL/MOL
REMARK 922        TOTAL FREE ENERGY PREDICTED BY IDOCK:   -6.20 KCAL/MOL
REMARK 923 INTER-LIGAND FREE ENERGY PREDICTED BY IDOCK:   -5.97 KCAL/MOL
REMARK 924 INTRA-LIGAND FREE ENERGY PREDICTED BY IDOCK:   -0.22 KCAL/MOL
REMARK 927      BINDING AFFINITY PREDICTED BY RF-SCORE:    0.00 PKD
ROOT
HETATM    1  O   UNL     1      -9.569  13.576  65.856  1.00  0.00    -0.449 OA 
HETATM    2  C   UNL     1     -10.997  13.585  66.204  1.00  0.00    -0.284 C  
HETATM    3  H   UNL     1      -9.291  14.479  65.760  1.00  0.00     0.000 HD 
HETATM    4  P   UNL     1     -11.860  14.466  64.853  1.00  0.00    -0.442 P  
HETATM    5  O   UNL     1      -9.778  13.969  68.288  1.00  0.00    -0.214 OA 
HETATM    6  P   UNL     1     -11.278  14.465  67.783  1.00  0.00    -0.331 P  
HETATM    7  O   UNL     1     -13.271  13.771  65.328  1.00  0.00    -0.755 OA 
HETATM    8  O   UNL     1     -11.358  13.255  63.842  1.00  0.00    -0.381 OA 
HETATM    9  O   UNL     1     -10.660  15.785  67.006  1.00  0.00    -0.309 OA 
HETATM   10  O   UNL     1     -11.516  15.211  69.119  1.00  0.00    -0.270 OA 
HETATM   11  O   UNL     1     -12.590  15.212  63.708  1.00  0.00    -0.752 OA 
ENDROOT
BRANCH   2  12
HETATM   12  C   UNL     1     -11.458  12.095  66.363  1.00  0.00    -0.430 C  
BRANCH  12  13
HETATM   13  C   UNL     1     -10.407  11.004  66.354  1.00  0.00    -0.302 A  
HETATM   14  C   UNL     1      -9.708  10.680  67.502  1.00  0.00    -0.166 A  
HETATM   15  N   UNL     1      -8.668   9.811  67.542  1.00  0.00    -0.125 NA 
HETATM   16  C   UNL     1      -8.309   9.245  66.370  1.00  0.00    -0.118 A  
HETATM   17  C   UNL     1      -8.944   9.483  65.174  1.00  0.00    -0.253 A  
HETATM   18  C   UNL     1     -10.016  10.378  65.155  1.00  0.00    -0.390 A  
ENDBRANCH  12  13
ENDBRANCH   2  12
TORSDOF 2
ENDMDL
MODEL       13
REMARK 921   NORMALIZED FREE ENERGY PREDICTED BY IDOCK:   -5.31 KCAL/MOL
REMARK 922        TOTAL FREE ENERGY PREDICTED BY IDOCK:   -6.17 KCAL/MOL
REMARK 923 INTER-LIGAND FREE ENERGY PREDICTED BY IDOCK:   -6.05 KCAL/MOL
REMARK 924 INTRA-LIGAND FREE ENERGY PREDICTED BY IDOCK:   -0.12 KCAL/MOL
REMARK 927      BINDING AFFINITY PREDICTED BY RF-SCORE:    0.00 PKD
ROOT
HETATM    1  O   UNL     1      -9.667  13.112  65.466  1.00  0.00    -0.455 OA 
HETATM    2  C   UNL     1     -10.985  12.726  65.989  1.00  0.00    -0.278 C  
HETATM    3  H   UNL     1      -9.339  12.388  64.947  1.00  0.00     0.000 HD 
HETATM    4  P   UNL     1     -10.734  11.197  66.962  1.00  0.00    -0.274 P  
HETATM    5  O   UNL     1     -11.355  13.521  63.707  1.00  0.00    -0.272 OA 
HETATM    6  P   UNL     1     -12.156  12.394  64.623  1.00  0.00    -0.370 P  
HETATM    7  O   UNL     1     -12.161  11.475  67.727  1.00  0.00    -0.626 OA 
HETATM    8  O   UNL     1      -9.774  12.088  67.975  1.00  0.00    -0.185 OA 
HETATM    9  O   UNL     1     -11.109  11.192  64.192  1.00  0.00    -0.317 OA 
HETATM   10  O   UNL     1     -13.147  12.112  63.467  1.00  0.00    -0.785 OA 
HETATM   11  O   UNL     1     -10.520   9.903  67.786  1.00  0.00    -0.208 OA 
ENDROOT
BRANCH   2  12
HETATM   12  C   UNL     1     -11.527  13.922  66.845  1.00  0.00    -0.370 C  
BRANCH  12  13
HETATM   13  C   UNL     1     -10.773  15.234  66.821  1.00  0.00    -0.313 A  
HETATM   14  C   UNL     1     -10.780  16.037  65.695  1.00  0.00    -0.329 A  
HETATM   15  N   UNL     1     -10.027  17.157  65.551  1.00  0.00    -0.565 NA 
HETATM   16  C   UNL     1      -9.224  17.481  66.588  1.00  0.00    -0.262 A  
HETATM   17  C   UNL     1      -9.152  16.763  67.759  1.00  0.00    -0.221 A  
HETATM   18  C   UNL     1      -9.938  15.617  67.888  1.00  0.00    -0.223 A  
ENDBRANCH  12  13
ENDBRANCH   2  12
TORSDOF 2
ENDMDL
MODEL       14
REMARK 921   NORMALIZED FREE ENERGY PREDICTED BY IDOCK:   -5.26 KCAL/MOL
REMARK 922        TOTAL FREE ENERGY PREDICTED BY IDOCK:   -6.12 KCAL/MOL
REMARK 923 INTER-LIGAND FREE ENERGY PREDICTED BY IDOCK:   -5.93 KCAL/MOL
REMARK 924 INTRA-LIGAND FREE ENERGY PREDICTED BY IDOCK:   -0.19 KCAL/MOL
REMARK 927      BINDING AFFINITY PREDICTED BY RF-SCORE:    0.00 PKD
ROOT
HETATM    1  O   UNL     1      -9.772  13.939  67.608  1.00  0.00    -0.217 OA 
HETATM    2  C   UNL     1     -10.315  15.303  67.675  1.00  0.00    -0.250 C  
HETATM    3  H   UNL     1      -9.313  13.771  68.423  1.00  0.00     0.000 HD 
HETATM    4  P   UNL     1      -8.891  16.420  67.944  1.00  0.00    -0.187 P  
HETATM    5  O   UNL     1     -11.898  13.873  68.868  1.00  0.00    -0.318 OA 
HETATM    6  P   UNL     1     -11.492  15.469  69.065  1.00  0.00    -0.389 P  
HETATM    7  O   UNL     1      -9.803  17.677  67.408  1.00  0.00    -0.288 OA 
HETATM    8  O   UNL     1      -8.320  15.928  66.471  1.00  0.00    -0.265 OA 
HETATM    9  O   UNL     1     -10.204  15.098  70.029  1.00  0.00    -0.225 OA 
HETATM   10  O   UNL     1     -12.488  15.609  70.243  1.00  0.00    -0.410 OA 
HETATM   11  O   UNL     1      -7.685  17.365  68.173  1.00  0.00    -0.205 OA 
ENDROOT
BRANCH   2  12
HETATM   12  C   UNL     1     -11.072  15.581  66.331  1.00  0.00    -0.174 C  
BRANCH  12  13
HETATM   13  C   UNL     1     -11.424  14.408  65.439  1.00  0.00    -0.344 A  
HETATM   14  C   UNL     1     -12.654  13.784  65.539  1.00  0.00    -0.512 A  
HETATM   15  N   UNL     1     -12.992  12.653  64.871  1.00  0.00    -0.850 NA 
HETATM   16  C   UNL     1     -12.046  12.121  64.067  1.00  0.00    -0.443 A  
HETATM   17  C   UNL     1     -10.798  12.668  63.882  1.00  0.00    -0.468 A  
HETATM   18  C   UNL     1     -10.471  13.835  64.576  1.00  0.00    -0.378 A  
ENDBRANCH  12  13
ENDBRANCH   2  12
TORSDOF 2
ENDMDL
MODEL       15
REMARK 921   NORMALIZED FREE ENERGY PREDICTED BY IDOCK:   -5.23 KCAL/MOL
REMARK 922        TOTAL FREE ENERGY PREDICTED BY IDOCK:   -6.08 KCAL/MOL
REMARK 923 INTER-LIGAND FREE ENERGY PREDICTED BY IDOCK:   -5.75 KCAL/MOL
REMARK 924 INTRA-LIGAND FREE ENERGY PREDICTED BY IDOCK:   -0.33 KCAL/MOL
REMARK 927      BINDING AFFINITY PREDICTED BY RF-SCORE:    0.00 PKD
ROOT
HETATM    1  O   UNL     1     -12.110  13.693  66.642  1.00  0.00    -0.404 OA 
HETATM    2  C   UNL     1     -10.839  13.003  66.906  1.00  0.00    -0.264 C  
HETATM    3  H   UNL     1     -12.796  13.038  66.625  1.00  0.00     0.000 HD 
HETATM    4  P   UNL     1     -10.626  11.772  65.570  1.00  0.00    -0.292 P  
HETATM    5  O   UNL     1     -11.912  13.326  69.079  1.00  0.00    -0.310 OA 
HETATM    6  P   UNL     1     -10.886  12.148  68.523  1.00  0.00    -0.254 P  
HETATM    7  O   UNL     1      -9.021  11.708  65.914  1.00  0.00    -0.192 OA 
HETATM    8  O   UNL     1     -10.566  13.041  64.510  1.00  0.00    -0.348 OA 
HETATM    9  O   UNL     1     -12.127  11.271  67.875  1.00  0.00    -0.634 OA 
HETATM   10  O   UNL     1     -10.925  11.423  69.891  1.00  0.00    -0.140 OA 
HETATM   11  O   UNL     1     -10.447  10.729  64.439  1.00  0.00    -0.365 OA 
ENDROOT
BRANCH   2  12
HETATM   12  C   UNL     1      -9.706  14.086  66.935  1.00  0.00    -0.272 C  
BRANCH  12  13
HETATM   13  C   UNL     1     -10.098  15.548  66.919  1.00  0.00    -0.263 A  
HETATM   14  C   UNL     1     -10.171  16.251  65.729  1.00  0.00    -0.367 A  
HETATM   15  N   UNL     1     -10.386  17.588  65.645  1.00  0.00    -0.633 NA 
HETATM   16  C   UNL     1     -10.530  18.251  66.813  1.00  0.00    -0.365 A  
HETATM   17  C   UNL     1     -10.492  17.649  68.049  1.00  0.00    -0.395 A  
HETATM   18  C   UNL     1     -10.274  16.271  68.114  1.00  0.00    -0.258 A  
ENDBRANCH  12  13
ENDBRANCH   2  12
TORSDOF 2
ENDMDL
MODEL       16
REMARK 921   NORMALIZED FREE ENERGY PREDICTED BY IDOCK:   -5.20 KCAL/MOL
REMARK 922        TOTAL FREE ENERGY PREDICTED BY IDOCK:   -6.05 KCAL/MOL
REMARK 923 INTER-LIGAND FREE ENERGY PREDICTED BY IDOCK:   -5.77 KCAL/MOL
REMARK 924 INTRA-LIGAND FREE ENERGY PREDICTED BY IDOCK:   -0.28 KCAL/MOL
REMARK 927      BINDING AFFINITY PREDICTED BY RF-SCORE:    0.00 PKD
ROOT
HETATM    1  O   UNL     1      -9.488  13.236  65.921  1.00  0.00    -0.468 OA 
HETATM    2  C   UNL     1     -10.829  12.858  66.390  1.00  0.00    -0.274 C  
HETATM    3  H   UNL     1      -9.167  12.532  65.369  1.00  0.00     0.000 HD 
HETATM    4  P   UNL     1     -10.644  11.271  67.281  1.00  0.00    -0.262 P  
HETATM    5  O   UNL     1     -11.122  13.790  64.150  1.00  0.00    -0.329 OA 
HETATM    6  P   UNL     1     -11.975  12.637  64.982  1.00  0.00    -0.441 P  
HETATM    7  O   UNL     1     -12.081  11.546  68.027  1.00  0.00    -0.617 OA 
HETATM    8  O   UNL     1      -9.685  12.075  68.364  1.00  0.00    -0.208 OA 
HETATM    9  O   UNL     1     -10.951  11.432  64.507  1.00  0.00    -0.326 OA 
HETATM   10  O   UNL     1     -12.945  12.449  63.789  1.00  0.00    -0.751 OA 
HETATM   11  O   UNL     1     -10.486   9.927  68.034  1.00  0.00    -0.194 OA 
ENDROOT
BRANCH   2  12
HETATM   12  C   UNL     1     -11.360  14.019  67.300  1.00  0.00    -0.350 C  
BRANCH  12  13
HETATM   13  C   UNL     1     -10.509  15.261  67.463  1.00  0.00    -0.265 A  
HETATM   14  C   UNL     1      -9.722  15.442  68.586  1.00  0.00    -0.210 A  
HETATM   15  N   UNL     1      -9.037  16.579  68.863  1.00  0.00    -0.248 NA 
HETATM   16  C   UNL     1      -9.154  17.586  67.971  1.00  0.00    -0.269 A  
HETATM   17  C   UNL     1      -9.895  17.508  66.815  1.00  0.00    -0.306 A  
HETATM   18  C   UNL     1     -10.589  16.327  66.546  1.00  0.00    -0.256 A  
ENDBRANCH  12  13
ENDBRANCH   2  12
TORSDOF 2
ENDMDL
MODEL       17
REMARK 921   NORMALIZED FREE ENERGY PREDICTED BY IDOCK:   -5.19 KCAL/MOL
REMARK 922        TOTAL FREE ENERGY PREDICTED BY IDOCK:   -6.03 KCAL/MOL
REMARK 923 INTER-LIGAND FREE ENERGY PREDICTED BY IDOCK:   -6.30 KCAL/MOL
REMARK 924 INTRA-LIGAND FREE ENERGY PREDICTED BY IDOCK:    0.27 KCAL/MOL
REMARK 927      BINDING AFFINITY PREDICTED BY RF-SCORE:    0.00 PKD
ROOT
HETATM    1  O   UNL     1     -11.837  11.618  67.006  1.00  0.00    -0.591 OA 
HETATM    2  C   UNL     1     -11.321  12.872  66.439  1.00  0.00    -0.319 C  
HETATM    3  H   UNL     1     -11.353  10.902  66.612  1.00  0.00     0.000 HD 
HETATM    4  P   UNL     1     -11.548  12.758  64.627  1.00  0.00    -0.389 P  
HETATM    5  O   UNL     1      -9.785  12.244  68.234  1.00  0.00    -0.214 OA 
HETATM    6  P   UNL     1      -9.543  13.076  66.819  1.00  0.00    -0.251 P  
HETATM    7  O   UNL     1     -11.413  14.393  64.529  1.00  0.00    -0.374 OA 
HETATM    8  O   UNL     1     -13.177  12.696  64.909  1.00  0.00    -0.819 OA 
HETATM    9  O   UNL     1      -9.332  11.686  65.952  1.00  0.00    -0.225 OA 
HETATM   10  O   UNL     1      -8.038  13.248  67.141  1.00  0.00    -0.164 OA 
HETATM   11  O   UNL     1     -11.740  12.661  63.093  1.00  0.00    -0.452 OA 
ENDROOT
BRANCH   2  12
HETATM   12  C   UNL     1     -12.120  14.053  67.089  1.00  0.00    -0.436 C  
BRANCH  12  13
HETATM   13  C   UNL     1     -11.784  14.463  68.507  1.00  0.00    -0.370 A  
HETATM   14  C   UNL     1     -12.249  13.734  69.587  1.00  0.00    -0.305 A  
HETATM   15  N   UNL     1     -12.101  14.110  70.882  1.00  0.00    -0.345 NA 
HETATM   16  C   UNL     1     -11.459  15.277  71.102  1.00  0.00    -0.369 A  
HETATM   17  C   UNL     1     -10.942  16.071  70.105  1.00  0.00    -0.369 A  
HETATM   18  C   UNL     1     -11.102  15.665  68.779  1.00  0.00    -0.307 A  
ENDBRANCH  12  13
ENDBRANCH   2  12
TORSDOF 2
ENDMDL
MODEL       18
REMARK 921   NORMALIZED FREE ENERGY PREDICTED BY IDOCK:   -5.18 KCAL/MOL
REMARK 922        TOTAL FREE ENERGY PREDICTED BY IDOCK:   -6.02 KCAL/MOL
REMARK 923 INTER-LIGAND FREE ENERGY PREDICTED BY IDOCK:   -6.27 KCAL/MOL
REMARK 924 INTRA-LIGAND FREE ENERGY PREDICTED BY IDOCK:    0.25 KCAL/MOL
REMARK 927      BINDING AFFINITY PREDICTED BY RF-SCORE:    0.00 PKD
ROOT
HETATM    1  O   UNL     1     -12.200  11.875  66.783  1.00  0.00    -0.489 OA 
HETATM    2  C   UNL     1     -11.180  12.687  66.104  1.00  0.00    -0.309 C  
HETATM    3  H   UNL     1     -12.452  11.175  66.193  1.00  0.00     0.000 HD 
HETATM    4  P   UNL     1     -11.940  13.291  64.553  1.00  0.00    -0.441 P  
HETATM    5  O   UNL     1     -10.008  10.765  67.057  1.00  0.00    -0.186 OA 
HETATM    6  P   UNL     1      -9.703  11.681  65.708  1.00  0.00    -0.231 P  
HETATM    7  O   UNL     1     -10.797  14.468  64.476  1.00  0.00    -0.351 OA 
HETATM    8  O   UNL     1     -13.027  14.112  65.493  1.00  0.00    -0.657 OA 
HETATM    9  O   UNL     1     -10.728  10.781  64.776  1.00  0.00    -0.270 OA 
HETATM   10  O   UNL     1      -8.454  10.830  65.373  1.00  0.00    -0.171 OA 
HETATM   11  O   UNL     1     -12.584  13.801  63.240  1.00  0.00    -0.830 OA 
ENDROOT
BRANCH   2  12
HETATM   12  C   UNL     1     -10.763  13.841  67.079  1.00  0.00    -0.283 C  
BRANCH  12  13
HETATM   13  C   UNL     1     -11.473  13.959  68.411  1.00  0.00    -0.346 A  
HETATM   14  C   UNL     1     -11.955  15.177  68.855  1.00  0.00    -0.253 A  
HETATM   15  N   UNL     1     -12.483  15.386  70.087  1.00  0.00    -0.364 NA 
HETATM   16  C   UNL     1     -12.522  14.320  70.915  1.00  0.00    -0.354 A  
HETATM   17  C   UNL     1     -12.086  13.062  70.571  1.00  0.00    -0.373 A  
HETATM   18  C   UNL     1     -11.550  12.867  69.296  1.00  0.00    -0.368 A  
ENDBRANCH  12  13
ENDBRANCH   2  12
TORSDOF 2
ENDMDL
MODEL       19
REMARK 921   NORMALIZED FREE ENERGY PREDICTED BY IDOCK:   -5.11 KCAL/MOL
REMARK 922        TOTAL FREE ENERGY PREDICTED BY IDOCK:   -5.94 KCAL/MOL
REMARK 923 INTER-LIGAND FREE ENERGY PREDICTED BY IDOCK:   -5.70 KCAL/MOL
REMARK 924 INTRA-LIGAND FREE ENERGY PREDICTED BY IDOCK:   -0.24 KCAL/MOL
REMARK 927      BINDING AFFINITY PREDICTED BY RF-SCORE:    0.00 PKD
ROOT
HETATM    1  O   UNL     1     -12.652  12.400  65.521  1.00  0.00    -0.616 OA 
HETATM    2  C   UNL     1     -11.371  13.060  65.230  1.00  0.00    -0.295 C  
HETATM    3  H   UNL     1     -13.155  12.379  64.716  1.00  0.00     0.000 HD 
HETATM    4  P   UNL     1     -11.774  14.724  64.588  1.00  0.00    -0.326 P  
HETATM    5  O   UNL     1     -11.120  10.731  64.531  1.00  0.00    -0.010 OA 
HETATM    6  P   UNL     1     -10.430  12.129  63.966  1.00  0.00    -0.456 P  
HETATM    7  O   UNL     1     -10.246  15.210  64.944  1.00  0.00    -0.341 OA 
HETATM    8  O   UNL     1     -12.450  15.050  66.063  1.00  0.00     0.158 OA 
HETATM    9  O   UNL     1     -11.710  12.444  62.971  1.00  0.00    -0.295 OA 
HETATM   10  O   UNL     1      -9.635  11.342  62.896  1.00  0.00    -0.367 OA 
HETATM   11  O   UNL     1     -12.116  16.134  64.043  1.00  0.00    -0.889 OA 
ENDROOT
BRANCH   2  12
HETATM   12  C   UNL     1     -10.541  13.095  66.559  1.00  0.00    -0.290 C  
BRANCH  12  13
HETATM   13  C   UNL     1     -11.115  12.430  67.793  1.00  0.00    -0.292 A  
HETATM   14  C   UNL     1     -11.617  13.185  68.838  1.00  0.00    -0.311 A  
HETATM   15  N   UNL     1     -12.026  12.668  70.023  1.00  0.00    -0.341 NA 
HETATM   16  C   UNL     1     -11.921  11.329  70.167  1.00  0.00    -0.369 A  
HETATM   17  C   UNL     1     -11.453  10.485  69.188  1.00  0.00    -0.314 A  
HETATM   18  C   UNL     1     -11.041  11.036  67.973  1.00  0.00    -0.343 A  
ENDBRANCH  12  13
ENDBRANCH   2  12
TORSDOF 2
ENDMDL
MODEL       20
REMARK 921   NORMALIZED FREE ENERGY PREDICTED BY IDOCK:   -5.09 KCAL/MOL
REMARK 922        TOTAL FREE ENERGY PREDICTED BY IDOCK:   -5.93 KCAL/MOL
REMARK 923 INTER-LIGAND FREE ENERGY PREDICTED BY IDOCK:   -5.59 KCAL/MOL
REMARK 924 INTRA-LIGAND FREE ENERGY PREDICTED BY IDOCK:   -0.33 KCAL/MOL
REMARK 927      BINDING AFFINITY PREDICTED BY RF-SCORE:    0.00 PKD
ROOT
HETATM    1  O   UNL     1     -12.656  15.844  68.618  1.00  0.00    -0.182 OA 
HETATM    2  C   UNL     1     -11.514  15.042  69.078  1.00  0.00    -0.304 C  
HETATM    3  H   UNL     1     -13.448  15.425  68.931  1.00  0.00     0.000 HD 
HETATM    4  P   UNL     1     -11.753  13.358  68.405  1.00  0.00    -0.357 P  
HETATM    5  O   UNL     1     -12.146  16.478  70.952  1.00  0.00     0.088 OA 
HETATM    6  P   UNL     1     -11.463  14.967  70.905  1.00  0.00    -0.233 P  
HETATM    7  O   UNL     1     -10.155  13.059  68.641  1.00  0.00    -0.218 OA 
HETATM    8  O   UNL     1     -11.623  14.022  66.895  1.00  0.00    -0.346 OA 
HETATM    9  O   UNL     1     -12.934  14.227  70.785  1.00  0.00    -0.344 OA 
HETATM   10  O   UNL     1     -11.421  14.904  72.452  1.00  0.00    -0.286 OA 
HETATM   11  O   UNL     1     -11.956  11.932  67.835  1.00  0.00    -0.556 OA 
ENDROOT
BRANCH   2  12
HETATM   12  C   UNL     1     -10.206  15.734  68.560  1.00  0.00    -0.216 C  
BRANCH  12  13
HETATM   13  C   UNL     1     -10.312  17.106  67.926  1.00  0.00    -0.350 A  
HETATM   14  C   UNL     1     -10.387  17.250  66.553  1.00  0.00    -0.308 A  
HETATM   15  N   UNL     1     -10.353  18.442  65.908  1.00  0.00    -0.601 NA 
HETATM   16  C   UNL     1     -10.232  19.543  66.681  1.00  0.00    -0.449 A  
HETATM   17  C   UNL     1     -10.166  19.515  68.055  1.00  0.00    -0.552 A  
HETATM   18  C   UNL     1     -10.207  18.278  68.699  1.00  0.00    -0.377 A  
ENDBRANCH  12  13
ENDBRANCH   2  12
TORSDOF 2
ENDMDL
MODEL       21
REMARK 921   NORMALIZED FREE ENERGY PREDICTED BY IDOCK:   -5.06 KCAL/MOL
REMARK 922        TOTAL FREE ENERGY PREDICTED BY IDOCK:   -5.89 KCAL/MOL
REMARK 923 INTER-LIGAND FREE ENERGY PREDICTED BY IDOCK:   -6.08 KCAL/MOL
REMARK 924 INTRA-LIGAND FREE ENERGY PREDICTED BY IDOCK:    0.19 KCAL/MOL
REMARK 927      BINDING AFFINITY PREDICTED BY RF-SCORE:    0.00 PKD
ROOT
HETATM    1  O   UNL     1     -12.138  15.329  66.707  1.00  0.00     0.029 OA 
HETATM    2  C   UNL     1     -10.767  15.024  67.140  1.00  0.00    -0.303 C  
HETATM    3  H   UNL     1     -12.331  16.222  66.966  1.00  0.00     0.000 HD 
HETATM    4  P   UNL     1     -10.723  15.274  68.952  1.00  0.00    -0.274 P  
HETATM    5  O   UNL     1     -10.568  16.228  65.022  1.00  0.00    -0.620 OA 
HETATM    6  P   UNL     1      -9.565  16.149  66.341  1.00  0.00    -0.338 P  
HETATM    7  O   UNL     1      -9.366  14.352  69.025  1.00  0.00    -0.145 OA 
HETATM    8  O   UNL     1     -11.823  14.043  69.074  1.00  0.00    -0.312 OA 
HETATM    9  O   UNL     1     -10.376  17.358  67.121  1.00  0.00    -0.317 OA 
HETATM   10  O   UNL     1      -8.549  17.102  65.664  1.00  0.00    -0.470 OA 
HETATM   11  O   UNL     1     -10.687  15.485  70.486  1.00  0.00    -0.320 OA 
ENDROOT
BRANCH   2  12
HETATM   12  C   UNL     1     -10.447  13.551  66.711  1.00  0.00    -0.273 C  
BRANCH  12  13
HETATM   13  C   UNL     1     -11.117  12.994  65.472  1.00  0.00    -0.300 A  
HETATM   14  C   UNL     1     -12.491  12.847  65.412  1.00  0.00    -0.454 A  
HETATM   15  N   UNL     1     -13.149  12.239  64.394  1.00  0.00    -0.777 NA 
HETATM   16  C   UNL     1     -12.389  11.748  63.391  1.00  0.00    -0.361 A  
HETATM   17  C   UNL     1     -11.018  11.854  63.343  1.00  0.00    -0.470 A  
HETATM   18  C   UNL     1     -10.360  12.487  64.398  1.00  0.00    -0.378 A  
ENDBRANCH  12  13
ENDBRANCH   2  12
TORSDOF 2
ENDMDL
MODEL       22
REMARK 921   NORMALIZED FREE ENERGY PREDICTED BY IDOCK:   -5.03 KCAL/MOL
REMARK 922        TOTAL FREE ENERGY PREDICTED BY IDOCK:   -5.85 KCAL/MOL
REMARK 923 INTER-LIGAND FREE ENERGY PREDICTED BY IDOCK:   -6.12 KCAL/MOL
REMARK 924 INTRA-LIGAND FREE ENERGY PREDICTED BY IDOCK:    0.26 KCAL/MOL
REMARK 927      BINDING AFFINITY PREDICTED BY RF-SCORE:    0.00 PKD
ROOT
HETATM    1  O   UNL     1      -8.160  16.868  67.979  1.00  0.00    -0.185 OA 
HETATM    2  C   UNL     1      -9.399  16.840  67.189  1.00  0.00    -0.229 C  
HETATM    3  H   UNL     1      -8.283  17.489  68.687  1.00  0.00     0.000 HD 
HETATM    4  P   UNL     1      -9.687  18.550  66.607  1.00  0.00    -0.368 P  
HETATM    5  O   UNL     1      -9.769  15.366  69.105  1.00  0.00    -0.220 OA 
HETATM    6  P   UNL     1     -10.814  16.299  68.216  1.00  0.00    -0.342 P  
HETATM    7  O   UNL     1     -10.686  17.962  65.442  1.00  0.00    -0.634 OA 
HETATM    8  O   UNL     1      -8.273  18.420  65.758  1.00  0.00    -0.494 OA 
HETATM    9  O   UNL     1     -10.501  17.643  69.123  1.00  0.00    -0.331 OA 
HETATM   10  O   UNL     1     -12.011  15.842  69.086  1.00  0.00    -0.387 OA 
HETATM   11  O   UNL     1      -9.931  19.998  66.114  1.00  0.00    -0.445 OA 
ENDROOT
BRANCH   2  12
HETATM   12  C   UNL     1      -9.197  15.814  66.021  1.00  0.00    -0.379 C  
BRANCH  12  13
HETATM   13  C   UNL     1     -10.162  14.654  65.897  1.00  0.00    -0.344 A  
HETATM   14  C   UNL     1      -9.818  13.392  66.346  1.00  0.00    -0.296 A  
HETATM   15  N   UNL     1     -10.573  12.282  66.153  1.00  0.00    -0.243 NA 
HETATM   16  C   UNL     1     -11.727  12.447  65.471  1.00  0.00    -0.407 A  
HETATM   17  C   UNL     1     -12.172  13.658  64.996  1.00  0.00    -0.450 A  
HETATM   18  C   UNL     1     -11.383  14.790  65.208  1.00  0.00    -0.363 A  
ENDBRANCH  12  13
ENDBRANCH   2  12
TORSDOF 2
ENDMDL
MODEL       23
REMARK 921   NORMALIZED FREE ENERGY PREDICTED BY IDOCK:   -5.03 KCAL/MOL
REMARK 922        TOTAL FREE ENERGY PREDICTED BY IDOCK:   -5.85 KCAL/MOL
REMARK 923 INTER-LIGAND FREE ENERGY PREDICTED BY IDOCK:   -5.65 KCAL/MOL
REMARK 924 INTRA-LIGAND FREE ENERGY PREDICTED BY IDOCK:   -0.20 KCAL/MOL
REMARK 927      BINDING AFFINITY PREDICTED BY RF-SCORE:    0.00 PKD
ROOT
HETATM    1  O   UNL     1      -9.461  13.342  65.518  1.00  0.00    -0.494 OA 
HETATM    2  C   UNL     1     -10.842  12.913  65.782  1.00  0.00    -0.269 C  
HETATM    3  H   UNL     1      -9.469  14.285  65.405  1.00  0.00     0.000 HD 
HETATM    4  P   UNL     1     -11.841  13.459  64.349  1.00  0.00    -0.446 P  
HETATM    5  O   UNL     1      -9.945  13.694  67.917  1.00  0.00    -0.231 OA 
HETATM    6  P   UNL     1     -11.487  13.691  67.307  1.00  0.00    -0.386 P  
HETATM    7  O   UNL     1     -12.997  12.369  64.767  1.00  0.00    -0.786 OA 
HETATM    8  O   UNL     1     -10.922  12.446  63.416  1.00  0.00    -0.456 OA 
HETATM    9  O   UNL     1     -11.256  15.123  66.518  1.00  0.00    -0.341 OA 
HETATM   10  O   UNL     1     -12.033  14.350  68.597  1.00  0.00    -0.326 OA 
HETATM   11  O   UNL     1     -12.686  13.921  63.136  1.00  0.00    -0.718 OA 
ENDROOT
BRANCH   2  12
HETATM   12  C   UNL     1     -10.830  11.357  65.970  1.00  0.00    -0.306 C  
BRANCH  12  13
HETATM   13  C   UNL     1      -9.497  10.639  65.997  1.00  0.00    -0.233 A  
HETATM   14  C   UNL     1      -8.738  10.593  67.152  1.00  0.00    -0.130 A  
HETATM   15  N   UNL     1      -7.482  10.085  67.220  1.00  0.00    -0.091 NA 
HETATM   16  C   UNL     1      -6.963   9.603  66.070  1.00  0.00    -0.093 A  
HETATM   17  C   UNL     1      -7.636   9.584  64.871  1.00  0.00    -0.111 A  
HETATM   18  C   UNL     1      -8.929  10.109  64.823  1.00  0.00    -0.236 A  
ENDBRANCH  12  13
ENDBRANCH   2  12
TORSDOF 2
ENDMDL
MODEL       24
REMARK 921   NORMALIZED FREE ENERGY PREDICTED BY IDOCK:   -5.00 KCAL/MOL
REMARK 922        TOTAL FREE ENERGY PREDICTED BY IDOCK:   -5.82 KCAL/MOL
REMARK 923 INTER-LIGAND FREE ENERGY PREDICTED BY IDOCK:   -5.52 KCAL/MOL
REMARK 924 INTRA-LIGAND FREE ENERGY PREDICTED BY IDOCK:   -0.30 KCAL/MOL
REMARK 927      BINDING AFFINITY PREDICTED BY RF-SCORE:    0.00 PKD
ROOT
HETATM    1  O   UNL     1      -9.669  13.620  65.254  1.00  0.00    -0.542 OA 
HETATM    2  C   UNL     1     -10.418  12.397  65.575  1.00  0.00    -0.275 C  
HETATM    3  H   UNL     1      -9.415  13.572  64.340  1.00  0.00     0.000 HD 
HETATM    4  P   UNL     1      -9.305  10.992  65.210  1.00  0.00    -0.199 P  
HETATM    5  O   UNL     1     -12.010  13.922  64.520  1.00  0.00    -0.397 OA 
HETATM    6  P   UNL     1     -11.925  12.266  64.546  1.00  0.00    -0.342 P  
HETATM    7  O   UNL     1     -10.233  10.034  66.170  1.00  0.00    -0.247 OA 
HETATM    8  O   UNL     1      -8.304  11.572  66.393  1.00  0.00    -0.172 OA 
HETATM    9  O   UNL     1     -10.886  12.226  63.263  1.00  0.00    -0.435 OA 
HETATM   10  O   UNL     1     -13.200  12.155  63.674  1.00  0.00    -0.770 OA 
HETATM   11  O   UNL     1      -8.363   9.802  64.900  1.00  0.00    -0.131 OA 
ENDROOT
BRANCH   2  12
HETATM   12  C   UNL     1     -10.837  12.477  67.084  1.00  0.00    -0.282 C  
BRANCH  12  13
HETATM   13  C   UNL     1     -10.734  13.809  67.797  1.00  0.00    -0.254 A  
HETATM   14  C   UNL     1      -9.568  14.181  68.442  1.00  0.00    -0.225 A  
HETATM   15  N   UNL     1      -9.443  15.294  69.208  1.00  0.00    -0.238 NA 
HETATM   16  C   UNL     1     -10.543  16.066  69.336  1.00  0.00    -0.275 A  
HETATM   17  C   UNL     1     -11.746  15.799  68.725  1.00  0.00    -0.387 A  
HETATM   18  C   UNL     1     -11.853  14.651  67.938  1.00  0.00    -0.352 A  
ENDBRANCH  12  13
ENDBRANCH   2  12
TORSDOF 2
ENDMDL
MODEL       25
REMARK 921   NORMALIZED FREE ENERGY PREDICTED BY IDOCK:   -4.93 KCAL/MOL
REMARK 922        TOTAL FREE ENERGY PREDICTED BY IDOCK:   -5.74 KCAL/MOL
REMARK 923 INTER-LIGAND FREE ENERGY PREDICTED BY IDOCK:   -5.69 KCAL/MOL
REMARK 924 INTRA-LIGAND FREE ENERGY PREDICTED BY IDOCK:   -0.05 KCAL/MOL
REMARK 927      BINDING AFFINITY PREDICTED BY RF-SCORE:    0.00 PKD
ROOT
HETATM    1  O   UNL     1      -9.951  13.715  69.196  1.00  0.00    -0.422 OA 
HETATM    2  C   UNL     1     -11.288  13.827  68.597  1.00  0.00    -0.287 C  
HETATM    3  H   UNL     1      -9.597  14.592  69.278  1.00  0.00     0.000 HD 
HETATM    4  P   UNL     1     -11.071  14.669  66.988  1.00  0.00    -0.349 P  
HETATM    5  O   UNL     1     -11.564  14.270  70.985  1.00  0.00    -0.223 OA 
HETATM    6  P   UNL     1     -12.398  14.819  69.660  1.00  0.00    -0.089 P  
HETATM    7  O   UNL     1     -12.531  14.087  66.510  1.00  0.00    -0.442 OA 
HETATM    8  O   UNL     1     -10.160  13.371  66.514  1.00  0.00    -0.267 OA 
HETATM    9  O   UNL     1     -11.327  16.050  69.405  1.00  0.00    -0.326 OA 
HETATM   10  O   UNL     1     -13.337  15.660  70.560  1.00  0.00    -0.426 OA 
HETATM   11  O   UNL     1     -10.887  15.383  65.626  1.00  0.00    -0.331 OA 
ENDROOT
BRANCH   2  12
HETATM   12  C   UNL     1     -11.873  12.379  68.463  1.00  0.00    -0.352 C  
BRANCH  12  13
HETATM   13  C   UNL     1     -11.516  11.350  69.516  1.00  0.00    -0.381 A  
HETATM   14  C   UNL     1     -10.377  10.575  69.394  1.00  0.00    -0.234 A  
HETATM   15  N   UNL     1     -10.061   9.549  70.224  1.00  0.00    -0.245 NA 
HETATM   16  C   UNL     1     -10.935   9.287  71.220  1.00  0.00    -0.351 A  
HETATM   17  C   UNL     1     -12.086  10.005  71.442  1.00  0.00    -0.498 A  
HETATM   18  C   UNL     1     -12.392  11.060  70.579  1.00  0.00    -0.462 A  
ENDBRANCH  12  13
ENDBRANCH   2  12
TORSDOF 2
ENDMDL
MODEL       26
REMARK 921   NORMALIZED FREE ENERGY PREDICTED BY IDOCK:   -4.91 KCAL/MOL
REMARK 922        TOTAL FREE ENERGY PREDICTED BY IDOCK:   -5.72 KCAL/MOL
REMARK 923 INTER-LIGAND FREE ENERGY PREDICTED BY IDOCK:   -5.43 KCAL/MOL
REMARK 924 INTRA-LIGAND FREE ENERGY PREDICTED BY IDOCK:   -0.29 KCAL/MOL
REMARK 927      BINDING AFFINITY PREDICTED BY RF-SCORE:    0.00 PKD
ROOT
HETATM    1  O   UNL     1     -12.200  12.114  66.243  1.00  0.00    -0.604 OA 
HETATM    2  C   UNL     1     -10.832  12.648  66.180  1.00  0.00    -0.273 C  
HETATM    3  H   UNL     1     -12.529  12.059  65.355  1.00  0.00     0.000 HD 
HETATM    4  P   UNL     1     -10.944  14.275  65.350  1.00  0.00    -0.380 P  
HETATM    5  O   UNL     1     -10.658  10.254  65.716  1.00  0.00    -0.135 OA 
HETATM    6  P   UNL     1      -9.744  11.543  65.209  1.00  0.00    -0.197 P  
HETATM    7  O   UNL     1      -9.481  14.675  65.983  1.00  0.00    -0.288 OA 
HETATM    8  O   UNL     1     -11.871  14.779  66.625  1.00  0.00    -0.342 OA 
HETATM    9  O   UNL     1     -10.763  11.863  63.949  1.00  0.00    -0.318 OA 
HETATM   10  O   UNL     1      -8.824  10.607  64.387  1.00  0.00    -0.190 OA 
HETATM   11  O   UNL     1     -11.040  15.652  64.648  1.00  0.00    -0.434 OA 
ENDROOT
BRANCH   2  12
HETATM   12  C   UNL     1     -10.287  12.739  67.647  1.00  0.00    -0.221 C  
BRANCH  12  13
HETATM   13  C   UNL     1     -11.131  12.177  68.771  1.00  0.00    -0.297 A  
HETATM   14  C   UNL     1     -11.848  13.013  69.608  1.00  0.00    -0.319 A  
HETATM   15  N   UNL     1     -12.519  12.595  70.711  1.00  0.00    -0.324 NA 
HETATM   16  C   UNL     1     -12.461  11.275  70.989  1.00  0.00    -0.400 A  
HETATM   17  C   UNL     1     -11.793  10.355  70.216  1.00  0.00    -0.399 A  
HETATM   18  C   UNL     1     -11.112  10.804  69.083  1.00  0.00    -0.304 A  
ENDBRANCH  12  13
ENDBRANCH   2  12
TORSDOF 2
ENDMDL
MODEL       27
REMARK 921   NORMALIZED FREE ENERGY PREDICTED BY IDOCK:   -4.89 KCAL/MOL
REMARK 922        TOTAL FREE ENERGY PREDICTED BY IDOCK:   -5.70 KCAL/MOL
REMARK 923 INTER-LIGAND FREE ENERGY PREDICTED BY IDOCK:   -6.00 KCAL/MOL
REMARK 924 INTRA-LIGAND FREE ENERGY PREDICTED BY IDOCK:    0.29 KCAL/MOL
REMARK 927      BINDING AFFINITY PREDICTED BY RF-SCORE:    0.00 PKD
ROOT
HETATM    1  O   UNL     1     -12.404  12.351  65.297  1.00  0.00    -0.563 OA 
HETATM    2  C   UNL     1     -11.084  12.415  65.940  1.00  0.00    -0.313 C  
HETATM    3  H   UNL     1     -12.939  11.747  65.797  1.00  0.00     0.000 HD 
HETATM    4  P   UNL     1     -10.425  10.708  65.953  1.00  0.00    -0.063 P  
HETATM    5  O   UNL     1     -12.534  13.933  67.193  1.00  0.00    -0.289 OA 
HETATM    6  P   UNL     1     -11.224  13.027  67.658  1.00  0.00    -0.316 P  
HETATM    7  O   UNL     1      -8.914  11.315  66.171  1.00  0.00    -0.194 OA 
HETATM    8  O   UNL     1     -10.441  10.768  64.299  1.00  0.00    -0.367 OA 
HETATM    9  O   UNL     1     -12.152  11.687  67.921  1.00  0.00    -0.613 OA 
HETATM   10  O   UNL     1     -11.344  13.545  69.113  1.00  0.00    -0.260 OA 
HETATM   11  O   UNL     1      -9.869   9.263  65.963  1.00  0.00    -0.277 OA 
ENDROOT
BRANCH   2  12
HETATM   12  C   UNL     1     -10.199  13.412  65.115  1.00  0.00    -0.316 C  
BRANCH  12  13
HETATM   13  C   UNL     1     -10.329  14.896  65.389  1.00  0.00    -0.413 A  
HETATM   14  C   UNL     1     -11.197  15.682  64.652  1.00  0.00    -0.369 A  
HETATM   15  N   UNL     1     -11.273  17.032  64.750  1.00  0.00    -0.840 NA 
HETATM   16  C   UNL     1     -10.433  17.622  65.627  1.00  0.00    -0.144 A  
HETATM   17  C   UNL     1      -9.543  16.936  66.420  1.00  0.00    -0.305 A  
HETATM   18  C   UNL     1      -9.483  15.546  66.307  1.00  0.00    -0.356 A  
ENDBRANCH  12  13
ENDBRANCH   2  12
TORSDOF 2
ENDMDL
MODEL       28
REMARK 921   NORMALIZED FREE ENERGY PREDICTED BY IDOCK:   -4.87 KCAL/MOL
REMARK 922        TOTAL FREE ENERGY PREDICTED BY IDOCK:   -5.68 KCAL/MOL
REMARK 923 INTER-LIGAND FREE ENERGY PREDICTED BY IDOCK:   -6.05 KCAL/MOL
REMARK 924 INTRA-LIGAND FREE ENERGY PREDICTED BY IDOCK:    0.38 KCAL/MOL
REMARK 927      BINDING AFFINITY PREDICTED BY RF-SCORE:    0.00 PKD
ROOT
HETATM    1  O   UNL     1     -12.564  14.523  66.647  1.00  0.00    -0.480 OA 
HETATM    2  C   UNL     1     -11.286  14.497  65.921  1.00  0.00    -0.341 C  
HETATM    3  H   UNL     1     -13.211  14.924  66.078  1.00  0.00     0.000 HD 
HETATM    4  P   UNL     1     -10.893  16.232  65.494  1.00  0.00    -0.075 P  
HETATM    5  O   UNL     1     -12.557  12.559  65.144  1.00  0.00    -0.631 OA 
HETATM    6  P   UNL     1     -11.426  13.508  64.388  1.00  0.00    -0.379 P  
HETATM    7  O   UNL     1      -9.322  15.802  65.279  1.00  0.00    -0.233 OA 
HETATM    8  O   UNL     1     -10.810  16.537  67.118  1.00  0.00    -0.262 OA 
HETATM    9  O   UNL     1     -12.558  14.620  63.930  1.00  0.00    -0.834 OA 
HETATM   10  O   UNL     1     -11.545  12.671  63.091  1.00  0.00    -0.442 OA 
HETATM   11  O   UNL     1     -10.562  17.701  65.132  1.00  0.00    -0.636 OA 
ENDROOT
BRANCH   2  12
HETATM   12  C   UNL     1     -10.219  13.835  66.859  1.00  0.00    -0.261 C  
BRANCH  12  13
HETATM   13  C   UNL     1     -10.278  12.339  67.083  1.00  0.00    -0.224 A  
HETATM   14  C   UNL     1      -9.497  11.476  66.335  1.00  0.00    -0.213 A  
HETATM   15  N   UNL     1      -9.589  10.124  66.388  1.00  0.00    -0.182 NA 
HETATM   16  C   UNL     1     -10.514   9.614  67.229  1.00  0.00    -0.258 A  
HETATM   17  C   UNL     1     -11.330  10.378  68.030  1.00  0.00    -0.277 A  
HETATM   18  C   UNL     1     -11.217  11.768  67.964  1.00  0.00    -0.324 A  
ENDBRANCH  12  13
ENDBRANCH   2  12
TORSDOF 2
ENDMDL
MODEL       29
REMARK 921   NORMALIZED FREE ENERGY PREDICTED BY IDOCK:   -4.84 KCAL/MOL
REMARK 922        TOTAL FREE ENERGY PREDICTED BY IDOCK:   -5.65 KCAL/MOL
REMARK 923 INTER-LIGAND FREE ENERGY PREDICTED BY IDOCK:   -5.50 KCAL/MOL
REMARK 924 INTRA-LIGAND FREE ENERGY PREDICTED BY IDOCK:   -0.15 KCAL/MOL
REMARK 927      BINDING AFFINITY PREDICTED BY RF-SCORE:    0.00 PKD
ROOT
HETATM    1  O   UNL     1     -10.553  16.400  67.714  1.00  0.00    -0.305 OA 
HETATM    2  C   UNL     1      -9.181  16.428  67.187  1.00  0.00    -0.213 C  
HETATM    3  H   UNL     1     -10.610  17.050  68.404  1.00  0.00     0.000 HD 
HETATM    4  P   UNL     1      -8.072  16.080  68.599  1.00  0.00    -0.214 P  
HETATM    5  O   UNL     1     -10.382  18.247  66.079  1.00  0.00    -0.474 OA 
HETATM    6  P   UNL     1      -8.784  18.072  66.490  1.00  0.00    -0.197 P  
HETATM    7  O   UNL     1      -6.886  15.669  67.539  1.00  0.00    -0.160 OA 
HETATM    8  O   UNL     1      -8.789  14.592  68.702  1.00  0.00    -0.177 OA 
HETATM    9  O   UNL     1      -9.040  18.638  68.020  1.00  0.00    -0.291 OA 
HETATM   10  O   UNL     1      -8.447  19.464  65.900  1.00  0.00    -0.433 OA 
HETATM   11  O   UNL     1      -7.133  15.786  69.796  1.00  0.00    -0.176 OA 
ENDROOT
BRANCH   2  12
HETATM   12  C   UNL     1      -9.087  15.355  66.048  1.00  0.00    -0.284 C  
BRANCH  12  13
HETATM   13  C   UNL     1     -10.334  14.582  65.673  1.00  0.00    -0.367 A  
HETATM   14  C   UNL     1     -11.235  15.089  64.754  1.00  0.00    -0.386 A  
HETATM   15  N   UNL     1     -12.431  14.520  64.465  1.00  0.00    -0.647 NA 
HETATM   16  C   UNL     1     -12.740  13.389  65.136  1.00  0.00    -0.399 A  
HETATM   17  C   UNL     1     -11.911  12.791  66.057  1.00  0.00    -0.491 A  
HETATM   18  C   UNL     1     -10.682  13.391  66.337  1.00  0.00    -0.289 A  
ENDBRANCH  12  13
ENDBRANCH   2  12
TORSDOF 2
ENDMDL
MODEL       30
REMARK 921   NORMALIZED FREE ENERGY PREDICTED BY IDOCK:   -4.84 KCAL/MOL
REMARK 922        TOTAL FREE ENERGY PREDICTED BY IDOCK:   -5.65 KCAL/MOL
REMARK 923 INTER-LIGAND FREE ENERGY PREDICTED BY IDOCK:   -5.42 KCAL/MOL
REMARK 924 INTRA-LIGAND FREE ENERGY PREDICTED BY IDOCK:   -0.23 KCAL/MOL
REMARK 927      BINDING AFFINITY PREDICTED BY RF-SCORE:    0.00 PKD
ROOT
HETATM    1  O   UNL     1      -8.696  16.587  65.611  1.00  0.00    -0.401 OA 
HETATM    2  C   UNL     1      -9.371  17.090  66.815  1.00  0.00    -0.252 C  
HETATM    3  H   UNL     1      -7.959  17.159  65.433  1.00  0.00     0.000 HD 
HETATM    4  P   UNL     1      -9.867  18.814  66.456  1.00  0.00    -0.391 P  
HETATM    5  O   UNL     1      -7.482  15.748  67.595  1.00  0.00    -0.132 OA 
HETATM    6  P   UNL     1      -8.241  17.068  68.254  1.00  0.00    -0.242 P  
HETATM    7  O   UNL     1     -10.956  18.735  67.682  1.00  0.00    -0.384 OA 
HETATM    8  O   UNL     1     -10.843  18.207  65.265  1.00  0.00    -0.628 OA 
HETATM    9  O   UNL     1      -7.320  18.125  67.381  1.00  0.00    -0.206 OA 
HETATM   10  O   UNL     1      -7.284  17.050  69.471  1.00  0.00    -0.147 OA 
HETATM   11  O   UNL     1     -10.285  20.274  66.150  1.00  0.00    -0.418 OA 
ENDROOT
BRANCH   2  12
HETATM   12  C   UNL     1     -10.588  16.146  67.109  1.00  0.00    -0.294 C  
BRANCH  12  13
HETATM   13  C   UNL     1     -10.689  14.836  66.356  1.00  0.00    -0.313 A  
HETATM   14  C   UNL     1     -10.094  13.687  66.844  1.00  0.00    -0.260 A  
HETATM   15  N   UNL     1     -10.030  12.514  66.167  1.00  0.00    -0.251 NA 
HETATM   16  C   UNL     1     -10.588  12.496  64.937  1.00  0.00    -0.301 A  
HETATM   17  C   UNL     1     -11.219  13.575  64.363  1.00  0.00    -0.399 A  
HETATM   18  C   UNL     1     -11.277  14.772  65.078  1.00  0.00    -0.399 A  
ENDBRANCH  12  13
ENDBRANCH   2  12
TORSDOF 2
ENDMDL
MODEL       31
REMARK 921   NORMALIZED FREE ENERGY PREDICTED BY IDOCK:   -4.80 KCAL/MOL
REMARK 922        TOTAL FREE ENERGY PREDICTED BY IDOCK:   -5.59 KCAL/MOL
REMARK 923 INTER-LIGAND FREE ENERGY PREDICTED BY IDOCK:   -5.42 KCAL/MOL
REMARK 924 INTRA-LIGAND FREE ENERGY PREDICTED BY IDOCK:   -0.17 KCAL/MOL
REMARK 927      BINDING AFFINITY PREDICTED BY RF-SCORE:    0.00 PKD
ROOT
HETATM    1  O   UNL     1     -10.008  14.105  69.475  1.00  0.00    -0.401 OA 
HETATM    2  C   UNL     1     -10.896  15.141  68.929  1.00  0.00    -0.241 C  
HETATM    3  H   UNL     1      -9.688  14.412  70.315  1.00  0.00     0.000 HD 
HETATM    4  P   UNL     1      -9.901  16.671  68.806  1.00  0.00    -0.268 P  
HETATM    5  O   UNL     1     -12.242  13.835  70.498  1.00  0.00    -0.332 OA 
HETATM    6  P   UNL     1     -12.322  15.427  70.039  1.00  0.00    -0.198 P  
HETATM    7  O   UNL     1     -10.992  17.269  67.733  1.00  0.00    -0.318 OA 
HETATM    8  O   UNL     1      -8.945  15.874  67.716  1.00  0.00    -0.176 OA 
HETATM    9  O   UNL     1     -11.194  15.881  71.156  1.00  0.00    -0.362 OA 
HETATM   10  O   UNL     1     -13.528  15.671  70.979  1.00  0.00    -0.575 OA 
HETATM   11  O   UNL     1      -9.059  17.966  68.703  1.00  0.00    -0.288 OA 
ENDROOT
BRANCH   2  12
HETATM   12  C   UNL     1     -11.424  14.634  67.543  1.00  0.00    -0.378 C  
BRANCH  12  13
HETATM   13  C   UNL     1     -11.100  13.217  67.116  1.00  0.00    -0.308 A  
HETATM   14  C   UNL     1     -11.771  12.139  67.662  1.00  0.00    -0.316 A  
HETATM   15  N   UNL     1     -11.450  10.842  67.428  1.00  0.00    -0.489 NA 
HETATM   16  C   UNL     1     -10.399  10.619  66.609  1.00  0.00    -0.241 A  
HETATM   17  C   UNL     1      -9.674  11.616  66.000  1.00  0.00    -0.257 A  
HETATM   18  C   UNL     1     -10.023  12.944  66.251  1.00  0.00    -0.271 A  
ENDBRANCH  12  13
ENDBRANCH   2  12
TORSDOF 2
ENDMDL
MODEL       32
REMARK 921   NORMALIZED FREE ENERGY PREDICTED BY IDOCK:   -4.79 KCAL/MOL
REMARK 922        TOTAL FREE ENERGY PREDICTED BY IDOCK:   -5.59 KCAL/MOL
REMARK 923 INTER-LIGAND FREE ENERGY PREDICTED BY IDOCK:   -5.37 KCAL/MOL
REMARK 924 INTRA-LIGAND FREE ENERGY PREDICTED BY IDOCK:   -0.22 KCAL/MOL
REMARK 927      BINDING AFFINITY PREDICTED BY RF-SCORE:    0.00 PKD
ROOT
HETATM    1  O   UNL     1     -10.149  12.879  69.322  1.00  0.00    -0.352 OA 
HETATM    2  C   UNL     1     -10.725  13.366  68.060  1.00  0.00    -0.248 C  
HETATM    3  H   UNL     1      -9.348  12.414  69.112  1.00  0.00     0.000 HD 
HETATM    4  P   UNL     1     -11.000  11.895  67.008  1.00  0.00    -0.310 P  
HETATM    5  O   UNL     1      -9.009  14.984  68.705  1.00  0.00    -0.172 OA 
HETATM    6  P   UNL     1      -9.574  14.512  67.218  1.00  0.00    -0.239 P  
HETATM    7  O   UNL     1     -12.062  12.765  66.106  1.00  0.00    -0.455 OA 
HETATM    8  O   UNL     1     -12.074  11.369  68.152  1.00  0.00    -0.623 OA 
HETATM    9  O   UNL     1      -8.544  13.223  67.154  1.00  0.00    -0.201 OA 
HETATM   10  O   UNL     1      -8.599  15.482  66.505  1.00  0.00    -0.269 OA 
HETATM   11  O   UNL     1     -11.232  10.649  66.118  1.00  0.00     0.089 OA 
ENDROOT
BRANCH   2  12
HETATM   12  C   UNL     1     -12.046  14.135  68.406  1.00  0.00    -0.308 C  
BRANCH  12  13
HETATM   13  C   UNL     1     -12.304  14.526  69.846  1.00  0.00    -0.347 A  
HETATM   14  C   UNL     1     -11.862  15.739  70.343  1.00  0.00    -0.368 A  
HETATM   15  N   UNL     1     -11.940  16.102  71.648  1.00  0.00    -0.481 NA 
HETATM   16  C   UNL     1     -12.484  15.201  72.494  1.00  0.00    -0.357 A  
HETATM   17  C   UNL     1     -12.970  13.975  72.104  1.00  0.00    -0.458 A  
HETATM   18  C   UNL     1     -12.884  13.622  70.756  1.00  0.00    -0.273 A  
ENDBRANCH  12  13
ENDBRANCH   2  12
TORSDOF 2
ENDMDL
MODEL       33
REMARK 921   NORMALIZED FREE ENERGY PREDICTED BY IDOCK:   -4.78 KCAL/MOL
REMARK 922        TOTAL FREE ENERGY PREDICTED BY IDOCK:   -5.58 KCAL/MOL
REMARK 923 INTER-LIGAND FREE ENERGY PREDICTED BY IDOCK:   -5.37 KCAL/MOL
REMARK 924 INTRA-LIGAND FREE ENERGY PREDICTED BY IDOCK:   -0.21 KCAL/MOL
REMARK 927      BINDING AFFINITY PREDICTED BY RF-SCORE:    0.00 PKD
ROOT
HETATM    1  O   UNL     1      -9.787  14.644  69.340  1.00  0.00    -0.397 OA 
HETATM    2  C   UNL     1     -11.249  14.609  69.197  1.00  0.00    -0.270 C  
HETATM    3  H   UNL     1      -9.514  13.819  69.724  1.00  0.00     0.000 HD 
HETATM    4  P   UNL     1     -11.932  14.332  70.871  1.00  0.00    -0.216 P  
HETATM    5  O   UNL     1     -10.338  13.421  67.264  1.00  0.00    -0.242 OA 
HETATM    6  P   UNL     1     -11.763  13.242  68.095  1.00  0.00    -0.347 P  
HETATM    7  O   UNL     1     -13.381  14.904  70.352  1.00  0.00    -0.195 OA 
HETATM    8  O   UNL     1     -11.271  15.787  71.302  1.00  0.00    -0.366 OA 
HETATM    9  O   UNL     1     -11.068  12.250  69.217  1.00  0.00    -0.225 OA 
HETATM   10  O   UNL     1     -12.198  12.084  67.162  1.00  0.00    -0.505 OA 
HETATM   11  O   UNL     1     -12.509  14.096  72.289  1.00  0.00    -0.254 OA 
ENDROOT
BRANCH   2  12
HETATM   12  C   UNL     1     -11.699  15.970  68.563  1.00  0.00    -0.244 C  
BRANCH  12  13
HETATM   13  C   UNL     1     -10.650  16.856  67.924  1.00  0.00    -0.361 A  
HETATM   14  C   UNL     1     -10.353  16.748  66.578  1.00  0.00    -0.301 A  
HETATM   15  N   UNL     1      -9.342  17.411  65.964  1.00  0.00    -0.508 NA 
HETATM   16  C   UNL     1      -8.589  18.218  66.743  1.00  0.00    -0.261 A  
HETATM   17  C   UNL     1      -8.807  18.412  68.087  1.00  0.00    -0.319 A  
HETATM   18  C   UNL     1      -9.856  17.723  68.699  1.00  0.00    -0.359 A  
ENDBRANCH  12  13
ENDBRANCH   2  12
TORSDOF 2
ENDMDL
MODEL       34
REMARK 921   NORMALIZED FREE ENERGY PREDICTED BY IDOCK:   -4.76 KCAL/MOL
REMARK 922        TOTAL FREE ENERGY PREDICTED BY IDOCK:   -5.56 KCAL/MOL
REMARK 923 INTER-LIGAND FREE ENERGY PREDICTED BY IDOCK:   -5.74 KCAL/MOL
REMARK 924 INTRA-LIGAND FREE ENERGY PREDICTED BY IDOCK:    0.18 KCAL/MOL
REMARK 927      BINDING AFFINITY PREDICTED BY RF-SCORE:    0.00 PKD
ROOT
HETATM    1  O   UNL     1     -10.911  16.070  67.499  1.00  0.00    -0.317 OA 
HETATM    2  C   UNL     1     -10.932  14.773  68.191  1.00  0.00    -0.268 C  
HETATM    3  H   UNL     1     -10.206  16.585  67.873  1.00  0.00     0.000 HD 
HETATM    4  P   UNL     1     -11.167  15.134  69.969  1.00  0.00    -0.300 P  
HETATM    5  O   UNL     1      -9.205  14.606  66.469  1.00  0.00    -0.262 OA 
HETATM    6  P   UNL     1      -9.352  13.882  67.954  1.00  0.00    -0.224 P  
HETATM    7  O   UNL     1     -11.668  13.586  70.196  1.00  0.00    -0.278 OA 
HETATM    8  O   UNL     1     -12.639  15.777  69.569  1.00  0.00    -0.104 OA 
HETATM    9  O   UNL     1      -8.661  15.166  68.730  1.00  0.00    -0.173 OA 
HETATM   10  O   UNL     1      -8.014  13.128  67.754  1.00  0.00    -0.134 OA 
HETATM   11  O   UNL     1     -11.366  15.440  71.475  1.00  0.00    -0.377 OA 
ENDROOT
BRANCH   2  12
HETATM   12  C   UNL     1     -12.094  13.922  67.574  1.00  0.00    -0.366 C  
BRANCH  12  13
HETATM   13  C   UNL     1     -12.038  13.575  66.101  1.00  0.00    -0.482 A  
HETATM   14  C   UNL     1     -12.551  14.436  65.148  1.00  0.00    -0.315 A  
HETATM   15  N   UNL     1     -12.654  14.139  63.829  1.00  0.00    -0.788 NA 
HETATM   16  C   UNL     1     -12.225  12.915  63.450  1.00  0.00    -0.490 A  
HETATM   17  C   UNL     1     -11.683  11.990  64.311  1.00  0.00    -0.425 A  
HETATM   18  C   UNL     1     -11.582  12.317  65.664  1.00  0.00    -0.433 A  
ENDBRANCH  12  13
ENDBRANCH   2  12
TORSDOF 2
ENDMDL
MODEL       35
REMARK 921   NORMALIZED FREE ENERGY PREDICTED BY IDOCK:   -4.71 KCAL/MOL
REMARK 922        TOTAL FREE ENERGY PREDICTED BY IDOCK:   -5.49 KCAL/MOL
REMARK 923 INTER-LIGAND FREE ENERGY PREDICTED BY IDOCK:   -5.19 KCAL/MOL
REMARK 924 INTRA-LIGAND FREE ENERGY PREDICTED BY IDOCK:   -0.30 KCAL/MOL
REMARK 927      BINDING AFFINITY PREDICTED BY RF-SCORE:    0.00 PKD
ROOT
HETATM    1  O   UNL     1      -8.831  15.952  68.452  1.00  0.00    -0.175 OA 
HETATM    2  C   UNL     1      -8.798  16.806  67.256  1.00  0.00    -0.204 C  
HETATM    3  H   UNL     1      -8.532  16.473  69.187  1.00  0.00     0.000 HD 
HETATM    4  P   UNL     1      -7.073  17.386  67.075  1.00  0.00    -0.223 P  
HETATM    5  O   UNL     1     -10.893  17.314  68.409  1.00  0.00    -0.354 OA 
HETATM    6  P   UNL     1      -9.909  18.247  67.454  1.00  0.00    -0.348 P  
HETATM    7  O   UNL     1      -7.379  17.738  65.499  1.00  0.00    -0.489 OA 
HETATM    8  O   UNL     1      -6.641  15.804  66.859  1.00  0.00    -0.276 OA 
HETATM    9  O   UNL     1      -8.939  18.654  68.726  1.00  0.00    -0.320 OA 
HETATM   10  O   UNL     1     -10.848  19.466  67.622  1.00  0.00    -0.455 OA 
HETATM   11  O   UNL     1      -5.612  17.878  66.922  1.00  0.00    -0.130 OA 
ENDROOT
BRANCH   2  12
HETATM   12  C   UNL     1      -9.292  15.946  66.042  1.00  0.00    -0.385 C  
BRANCH  12  13
HETATM   13  C   UNL     1     -10.029  14.652  66.320  1.00  0.00    -0.306 A  
HETATM   14  C   UNL     1      -9.351  13.448  66.385  1.00  0.00    -0.172 A  
HETATM   15  N   UNL     1      -9.954  12.239  66.499  1.00  0.00    -0.215 NA 
HETATM   16  C   UNL     1     -11.304  12.240  66.546  1.00  0.00    -0.351 A  
HETATM   17  C   UNL     1     -12.075  13.378  66.507  1.00  0.00    -0.444 A  
HETATM   18  C   UNL     1     -11.434  14.613  66.393  1.00  0.00    -0.348 A  
ENDBRANCH  12  13
ENDBRANCH   2  12
TORSDOF 2
ENDMDL
MODEL       36
REMARK 921   NORMALIZED FREE ENERGY PREDICTED BY IDOCK:   -4.70 KCAL/MOL
REMARK 922        TOTAL FREE ENERGY PREDICTED BY IDOCK:   -5.48 KCAL/MOL
REMARK 923 INTER-LIGAND FREE ENERGY PREDICTED BY IDOCK:   -5.18 KCAL/MOL
REMARK 924 INTRA-LIGAND FREE ENERGY PREDICTED BY IDOCK:   -0.31 KCAL/MOL
REMARK 927      BINDING AFFINITY PREDICTED BY RF-SCORE:    0.00 PKD
ROOT
HETATM    1  O   UNL     1     -12.127  11.347  67.244  1.00  0.00    -0.464 OA 
HETATM    2  C   UNL     1     -10.865  12.078  67.424  1.00  0.00    -0.242 C  
HETATM    3  H   UNL     1     -12.347  11.372  66.321  1.00  0.00     0.000 HD 
HETATM    4  P   UNL     1     -11.150  13.773  66.797  1.00  0.00    -0.324 P  
HETATM    5  O   UNL     1     -10.258   9.826  66.691  1.00  0.00    -0.226 OA 
HETATM    6  P   UNL     1      -9.515  11.293  66.470  1.00  0.00    -0.206 P  
HETATM    7  O   UNL     1      -9.847  14.287  67.656  1.00  0.00    -0.220 OA 
HETATM    8  O   UNL     1     -12.277  13.948  67.995  1.00  0.00    -0.326 OA 
HETATM    9  O   UNL     1     -10.431  11.639  65.140  1.00  0.00    -0.258 OA 
HETATM   10  O   UNL     1      -8.373  10.629  65.662  1.00  0.00    -0.161 OA 
HETATM   11  O   UNL     1     -11.391  15.208  66.265  1.00  0.00    -0.317 OA 
ENDROOT
BRANCH   2  12
HETATM   12  C   UNL     1     -10.503  12.036  68.948  1.00  0.00    -0.154 C  
BRANCH  12  13
HETATM   13  C   UNL     1     -11.366  11.208  69.878  1.00  0.00    -0.348 A  
HETATM   14  C   UNL     1     -12.362  11.797  70.635  1.00  0.00    -0.328 A  
HETATM   15  N   UNL     1     -13.085  11.148  71.581  1.00  0.00    -0.457 NA 
HETATM   16  C   UNL     1     -12.789   9.845  71.779  1.00  0.00    -0.442 A  
HETATM   17  C   UNL     1     -11.831   9.158  71.071  1.00  0.00    -0.354 A  
HETATM   18  C   UNL     1     -11.100   9.843  70.099  1.00  0.00    -0.353 A  
ENDBRANCH  12  13
ENDBRANCH   2  12
TORSDOF 2
ENDMDL
MODEL       37
REMARK 921   NORMALIZED FREE ENERGY PREDICTED BY IDOCK:   -4.68 KCAL/MOL
REMARK 922        TOTAL FREE ENERGY PREDICTED BY IDOCK:   -5.46 KCAL/MOL
REMARK 923 INTER-LIGAND FREE ENERGY PREDICTED BY IDOCK:   -5.29 KCAL/MOL
REMARK 924 INTRA-LIGAND FREE ENERGY PREDICTED BY IDOCK:   -0.17 KCAL/MOL
REMARK 927      BINDING AFFINITY PREDICTED BY RF-SCORE:    0.00 PKD
ROOT
HETATM    1  O   UNL     1     -11.140   9.661  67.241  1.00  0.00    -0.329 OA 
HETATM    2  C   UNL     1     -10.305  10.585  68.022  1.00  0.00    -0.181 C  
HETATM    3  H   UNL     1     -11.346   8.919  67.796  1.00  0.00     0.000 HD 
HETATM    4  P   UNL     1      -8.826   9.641  68.541  1.00  0.00    -0.127 P  
HETATM    5  O   UNL     1     -12.620  11.045  68.657  1.00  0.00    -0.304 OA 
HETATM    6  P   UNL     1     -11.200  11.179  69.503  1.00  0.00    -0.261 P  
HETATM    7  O   UNL     1      -8.041  11.059  68.808  1.00  0.00    -0.134 OA 
HETATM    8  O   UNL     1      -8.450   9.489  66.936  1.00  0.00    -0.126 OA 
HETATM    9  O   UNL     1     -11.236   9.591  69.957  1.00  0.00    -0.239 OA 
HETATM   10  O   UNL     1     -11.957  11.681  70.757  1.00  0.00    -0.334 OA 
HETATM   11  O   UNL     1      -7.575   8.841  68.980  1.00  0.00    -0.086 OA 
ENDROOT
BRANCH   2  12
HETATM   12  C   UNL     1      -9.965  11.811  67.107  1.00  0.00    -0.221 C  
BRANCH  12  13
HETATM   13  C   UNL     1     -10.768  12.015  65.839  1.00  0.00    -0.314 A  
HETATM   14  C   UNL     1     -12.035  12.568  65.880  1.00  0.00    -0.409 A  
HETATM   15  N   UNL     1     -12.862  12.663  64.809  1.00  0.00    -0.830 NA 
HETATM   16  C   UNL     1     -12.394  12.172  63.641  1.00  0.00    -0.568 A  
HETATM   17  C   UNL     1     -11.146  11.617  63.484  1.00  0.00    -0.476 A  
HETATM   18  C   UNL     1     -10.308  11.533  64.598  1.00  0.00    -0.349 A  
ENDBRANCH  12  13
ENDBRANCH   2  12
TORSDOF 2
ENDMDL
MODEL       38
REMARK 921   NORMALIZED FREE ENERGY PREDICTED BY IDOCK:   -4.68 KCAL/MOL
REMARK 922        TOTAL FREE ENERGY PREDICTED BY IDOCK:   -5.46 KCAL/MOL
REMARK 923 INTER-LIGAND FREE ENERGY PREDICTED BY IDOCK:   -5.13 KCAL/MOL
REMARK 924 INTRA-LIGAND FREE ENERGY PREDICTED BY IDOCK:   -0.33 KCAL/MOL
REMARK 927      BINDING AFFINITY PREDICTED BY RF-SCORE:    0.00 PKD
ROOT
HETATM    1  O   UNL     1      -9.385  13.659  68.855  1.00  0.00    -0.395 OA 
HETATM    2  C   UNL     1     -10.029  12.989  67.717  1.00  0.00    -0.227 C  
HETATM    3  H   UNL     1      -9.083  12.986  69.453  1.00  0.00     0.000 HD 
HETATM    4  P   UNL     1     -11.386  11.975  68.406  1.00  0.00    -0.333 P  
HETATM    5  O   UNL     1      -7.626  12.950  67.269  1.00  0.00    -0.153 OA 
HETATM    6  P   UNL     1      -8.843  11.907  66.841  1.00  0.00    -0.197 P  
HETATM    7  O   UNL     1     -12.079  11.926  66.917  1.00  0.00    -0.599 OA 
HETATM    8  O   UNL     1     -12.083  13.386  68.918  1.00  0.00    -0.331 OA 
HETATM    9  O   UNL     1      -8.740  11.084  68.269  1.00  0.00    -0.131 OA 
HETATM   10  O   UNL     1      -7.838  10.990  66.100  1.00  0.00    -0.161 OA 
HETATM   11  O   UNL     1     -12.535  11.116  68.991  1.00  0.00    -0.439 OA 
ENDROOT
BRANCH   2  12
HETATM   12  C   UNL     1     -10.528  14.101  66.730  1.00  0.00    -0.277 C  
BRANCH  12  13
HETATM   13  C   UNL     1     -10.045  15.521  66.931  1.00  0.00    -0.263 A  
HETATM   14  C   UNL     1     -10.782  16.425  67.675  1.00  0.00    -0.312 A  
HETATM   15  N   UNL     1     -10.481  17.742  67.791  1.00  0.00    -0.384 NA 
HETATM   16  C   UNL     1      -9.390  18.174  67.122  1.00  0.00    -0.263 A  
HETATM   17  C   UNL     1      -8.578  17.359  66.368  1.00  0.00    -0.282 A  
HETATM   18  C   UNL     1      -8.903  16.005  66.265  1.00  0.00    -0.379 A  
ENDBRANCH  12  13
ENDBRANCH   2  12
TORSDOF 2
ENDMDL
MODEL       39
REMARK 921   NORMALIZED FREE ENERGY PREDICTED BY IDOCK:   -4.68 KCAL/MOL
REMARK 922        TOTAL FREE ENERGY PREDICTED BY IDOCK:   -5.46 KCAL/MOL
REMARK 923 INTER-LIGAND FREE ENERGY PREDICTED BY IDOCK:   -5.93 KCAL/MOL
REMARK 924 INTRA-LIGAND FREE ENERGY PREDICTED BY IDOCK:    0.47 KCAL/MOL
REMARK 927      BINDING AFFINITY PREDICTED BY RF-SCORE:    0.00 PKD
ROOT
HETATM    1  O   UNL     1      -8.730  13.545  67.883  1.00  0.00    -0.162 OA 
HETATM    2  C   UNL     1     -10.155  13.873  67.738  1.00  0.00    -0.241 C  
HETATM    3  H   UNL     1      -8.604  13.183  68.751  1.00  0.00     0.000 HD 
HETATM    4  P   UNL     1     -10.559  15.052  69.078  1.00  0.00    -0.260 P  
HETATM    5  O   UNL     1      -9.947  11.483  67.270  1.00  0.00    -0.189 OA 
HETATM    6  P   UNL     1     -11.190  12.374  67.912  1.00  0.00    -0.311 P  
HETATM    7  O   UNL     1     -11.892  15.517  68.237  1.00  0.00    -0.330 OA 
HETATM    8  O   UNL     1      -9.490  16.102  68.376  1.00  0.00    -0.201 OA 
HETATM    9  O   UNL     1     -10.565  12.279  69.438  1.00  0.00     0.021 OA 
HETATM   10  O   UNL     1     -12.065  11.105  68.060  1.00  0.00    -0.635 OA 
HETATM   11  O   UNL     1     -10.901  16.049  70.212  1.00  0.00    -0.324 OA 
ENDROOT
BRANCH   2  12
HETATM   12  C   UNL     1     -10.363  14.471  66.304  1.00  0.00    -0.300 C  
BRANCH  12  13
HETATM   13  C   UNL     1     -11.070  13.631  65.262  1.00  0.00    -0.307 A  
HETATM   14  C   UNL     1     -12.442  13.458  65.298  1.00  0.00    -0.483 A  
HETATM   15  N   UNL     1     -13.127  12.620  64.481  1.00  0.00    -0.820 NA 
HETATM   16  C   UNL     1     -12.397  11.916  63.589  1.00  0.00    -0.481 A  
HETATM   17  C   UNL     1     -11.033  12.023  63.456  1.00  0.00    -0.514 A  
HETATM   18  C   UNL     1     -10.347  12.895  64.304  1.00  0.00    -0.396 A  
ENDBRANCH  12  13
ENDBRANCH   2  12
TORSDOF 2
ENDMDL
MODEL       40
REMARK 921   NORMALIZED FREE ENERGY PREDICTED BY IDOCK:   -4.64 KCAL/MOL
REMARK 922        TOTAL FREE ENERGY PREDICTED BY IDOCK:   -5.42 KCAL/MOL
REMARK 923 INTER-LIGAND FREE ENERGY PREDICTED BY IDOCK:   -5.75 KCAL/MOL
REMARK 924 INTRA-LIGAND FREE ENERGY PREDICTED BY IDOCK:    0.34 KCAL/MOL
REMARK 927      BINDING AFFINITY PREDICTED BY RF-SCORE:    0.00 PKD
ROOT
HETATM    1  O   UNL     1     -12.897  14.394  67.045  1.00  0.00    -0.315 OA 
HETATM    2  C   UNL     1     -11.539  13.973  67.416  1.00  0.00    -0.368 C  
HETATM    3  H   UNL     1     -13.475  14.168  67.764  1.00  0.00     0.000 HD 
HETATM    4  P   UNL     1     -11.619  12.174  67.739  1.00  0.00    -0.284 P  
HETATM    5  O   UNL     1     -11.902  16.142  68.483  1.00  0.00    -0.300 OA 
HETATM    6  P   UNL     1     -10.977  14.839  68.927  1.00  0.00    -0.279 P  
HETATM    7  O   UNL     1      -9.990  12.087  67.538  1.00  0.00    -0.189 OA 
HETATM    8  O   UNL     1     -12.039  11.982  66.150  1.00  0.00    -0.582 OA 
HETATM    9  O   UNL     1     -12.251  14.095  69.669  1.00  0.00    -0.326 OA 
HETATM   10  O   UNL     1     -10.502  15.572  70.206  1.00  0.00    -0.310 OA 
HETATM   11  O   UNL     1     -11.687  10.651  68.012  1.00  0.00    -0.495 OA 
ENDROOT
BRANCH   2  12
HETATM   12  C   UNL     1     -10.584  14.347  66.231  1.00  0.00    -0.292 C  
BRANCH  12  13
HETATM   13  C   UNL     1      -9.659  15.535  66.389  1.00  0.00    -0.317 A  
HETATM   14  C   UNL     1     -10.074  16.810  66.048  1.00  0.00    -0.332 A  
HETATM   15  N   UNL     1      -9.266  17.899  66.039  1.00  0.00    -0.525 NA 
HETATM   16  C   UNL     1      -7.976  17.696  66.385  1.00  0.00    -0.274 A  
HETATM   17  C   UNL     1      -7.462  16.475  66.757  1.00  0.00    -0.281 A  
HETATM   18  C   UNL     1      -8.312  15.368  66.764  1.00  0.00    -0.285 A  
ENDBRANCH  12  13
ENDBRANCH   2  12
TORSDOF 2
ENDMDL
MODEL       41
REMARK 921   NORMALIZED FREE ENERGY PREDICTED BY IDOCK:   -4.62 KCAL/MOL
REMARK 922        TOTAL FREE ENERGY PREDICTED BY IDOCK:   -5.39 KCAL/MOL
REMARK 923 INTER-LIGAND FREE ENERGY PREDICTED BY IDOCK:   -5.22 KCAL/MOL
REMARK 924 INTRA-LIGAND FREE ENERGY PREDICTED BY IDOCK:   -0.18 KCAL/MOL
REMARK 927      BINDING AFFINITY PREDICTED BY RF-SCORE:    0.00 PKD
ROOT
HETATM    1  O   UNL     1     -10.852  13.149  67.476  1.00  0.00    -0.248 OA 
HETATM    2  C   UNL     1      -9.904  14.252  67.267  1.00  0.00    -0.244 C  
HETATM    3  H   UNL     1     -10.941  13.018  68.412  1.00  0.00     0.000 HD 
HETATM    4  P   UNL     1      -8.340  13.757  68.078  1.00  0.00    -0.197 P  
HETATM    5  O   UNL     1     -12.071  15.285  67.725  1.00  0.00    -0.103 OA 
HETATM    6  P   UNL     1     -10.523  15.797  68.027  1.00  0.00    -0.286 P  
HETATM    7  O   UNL     1      -7.542  14.870  67.170  1.00  0.00    -0.200 OA 
HETATM    8  O   UNL     1      -8.261  12.506  66.997  1.00  0.00    -0.176 OA 
HETATM    9  O   UNL     1     -10.450  14.969  69.454  1.00  0.00    -0.238 OA 
HETATM   10  O   UNL     1     -11.046  17.104  68.671  1.00  0.00    -0.241 OA 
HETATM   11  O   UNL     1      -7.017  13.338  68.765  1.00  0.00    -0.097 OA 
ENDROOT
BRANCH   2  12
HETATM   12  C   UNL     1      -9.757  14.468  65.721  1.00  0.00    -0.306 C  
BRANCH  12  13
HETATM   13  C   UNL     1     -10.631  13.657  64.788  1.00  0.00    -0.436 A  
HETATM   14  C   UNL     1     -11.887  14.107  64.420  1.00  0.00    -0.428 A  
HETATM   15  N   UNL     1     -12.775  13.381  63.697  1.00  0.00    -0.629 NA 
HETATM   16  C   UNL     1     -12.385  12.141  63.330  1.00  0.00    -0.538 A  
HETATM   17  C   UNL     1     -11.155  11.602  63.628  1.00  0.00    -0.506 A  
HETATM   18  C   UNL     1     -10.254  12.367  64.370  1.00  0.00    -0.342 A  
ENDBRANCH  12  13
ENDBRANCH   2  12
TORSDOF 2
ENDMDL
MODEL       42
REMARK 921   NORMALIZED FREE ENERGY PREDICTED BY IDOCK:   -4.61 KCAL/MOL
REMARK 922        TOTAL FREE ENERGY PREDICTED BY IDOCK:   -5.39 KCAL/MOL
REMARK 923 INTER-LIGAND FREE ENERGY PREDICTED BY IDOCK:   -5.20 KCAL/MOL
REMARK 924 INTRA-LIGAND FREE ENERGY PREDICTED BY IDOCK:   -0.19 KCAL/MOL
REMARK 927      BINDING AFFINITY PREDICTED BY RF-SCORE:    0.00 PKD
ROOT
HETATM    1  O   UNL     1     -11.266   9.115  67.975  1.00  0.00    -0.492 OA 
HETATM    2  C   UNL     1     -10.206  10.131  67.917  1.00  0.00    -0.180 C  
HETATM    3  H   UNL     1     -11.295   8.680  67.132  1.00  0.00     0.000 HD 
HETATM    4  P   UNL     1     -10.633  11.256  66.539  1.00  0.00    -0.254 P  
HETATM    5  O   UNL     1      -9.098   8.006  68.400  1.00  0.00    -0.137 OA 
HETATM    6  P   UNL     1      -8.580   9.358  67.592  1.00  0.00    -0.114 P  
HETATM    7  O   UNL     1      -9.635  12.391  67.184  1.00  0.00    -0.198 OA 
HETATM    8  O   UNL     1     -11.994  11.662  67.390  1.00  0.00    -0.621 OA 
HETATM    9  O   UNL     1      -9.251   8.854  66.169  1.00  0.00    -0.184 OA 
HETATM   10  O   UNL     1      -7.204   8.704  67.315  1.00  0.00    -0.078 OA 
HETATM   11  O   UNL     1     -10.995  12.208  65.372  1.00  0.00    -0.285 OA 
ENDROOT
BRANCH   2  12
HETATM   12  C   UNL     1     -10.158  10.850  69.310  1.00  0.00    -0.164 C  
BRANCH  12  13
HETATM   13  C   UNL     1     -11.038  10.329  70.427  1.00  0.00    -0.391 A  
HETATM   14  C   UNL     1     -10.663   9.225  71.171  1.00  0.00    -0.333 A  
HETATM   15  N   UNL     1     -11.453   8.625  72.095  1.00  0.00    -0.367 NA 
HETATM   16  C   UNL     1     -12.682   9.156  72.276  1.00  0.00    -0.377 A  
HETATM   17  C   UNL     1     -13.149  10.261  71.603  1.00  0.00    -0.553 A  
HETATM   18  C   UNL     1     -12.318  10.867  70.659  1.00  0.00    -0.470 A  
ENDBRANCH  12  13
ENDBRANCH   2  12
TORSDOF 2
ENDMDL
MODEL       43
REMARK 921   NORMALIZED FREE ENERGY PREDICTED BY IDOCK:   -4.59 KCAL/MOL
REMARK 922        TOTAL FREE ENERGY PREDICTED BY IDOCK:   -5.37 KCAL/MOL
REMARK 923 INTER-LIGAND FREE ENERGY PREDICTED BY IDOCK:   -5.04 KCAL/MOL
REMARK 924 INTRA-LIGAND FREE ENERGY PREDICTED BY IDOCK:   -0.32 KCAL/MOL
REMARK 927      BINDING AFFINITY PREDICTED BY RF-SCORE:    0.00 PKD
ROOT
HETATM    1  O   UNL     1     -11.201   9.456  67.831  1.00  0.00    -0.509 OA 
HETATM    2  C   UNL     1     -10.307  10.594  68.092  1.00  0.00    -0.176 C  
HETATM    3  H   UNL     1     -11.042   9.162  66.942  1.00  0.00     0.000 HD 
HETATM    4  P   UNL     1     -10.697  11.863  66.834  1.00  0.00    -0.272 P  
HETATM    5  O   UNL     1      -8.974   8.576  68.448  1.00  0.00    -0.139 OA 
HETATM    6  P   UNL     1      -8.554  10.096  67.934  1.00  0.00    -0.118 P  
HETATM    7  O   UNL     1      -9.985  12.996  67.787  1.00  0.00    -0.216 OA 
HETATM    8  O   UNL     1     -12.211  11.950  67.497  1.00  0.00    -0.510 OA 
HETATM    9  O   UNL     1      -8.931   9.748  66.364  1.00  0.00    -0.146 OA 
HETATM   10  O   UNL     1      -7.070   9.675  67.799  1.00  0.00    -0.079 OA 
HETATM   11  O   UNL     1     -11.028  12.937  65.768  1.00  0.00    -0.274 OA 
ENDROOT
BRANCH   2  12
HETATM   12  C   UNL     1     -10.569  11.078  69.560  1.00  0.00    -0.182 C  
BRANCH  12  13
HETATM   13  C   UNL     1     -11.396  10.202  70.478  1.00  0.00    -0.416 A  
HETATM   14  C   UNL     1     -12.728  10.484  70.720  1.00  0.00    -0.381 A  
HETATM   15  N   UNL     1     -13.494   9.826  71.625  1.00  0.00    -0.372 NA 
HETATM   16  C   UNL     1     -12.891   8.841  72.325  1.00  0.00    -0.405 A  
HETATM   17  C   UNL     1     -11.579   8.468  72.152  1.00  0.00    -0.447 A  
HETATM   18  C   UNL     1     -10.808   9.154  71.213  1.00  0.00    -0.402 A  
ENDBRANCH  12  13
ENDBRANCH   2  12
TORSDOF 2
ENDMDL
MODEL       44
REMARK 921   NORMALIZED FREE ENERGY PREDICTED BY IDOCK:   -4.54 KCAL/MOL
REMARK 922        TOTAL FREE ENERGY PREDICTED BY IDOCK:   -5.31 KCAL/MOL
REMARK 923 INTER-LIGAND FREE ENERGY PREDICTED BY IDOCK:   -5.57 KCAL/MOL
REMARK 924 INTRA-LIGAND FREE ENERGY PREDICTED BY IDOCK:    0.27 KCAL/MOL
REMARK 927      BINDING AFFINITY PREDICTED BY RF-SCORE:    0.00 PKD
ROOT
HETATM    1  O   UNL     1      -9.406  14.726  65.928  1.00  0.00    -0.464 OA 
HETATM    2  C   UNL     1      -9.854  15.627  66.999  1.00  0.00    -0.233 C  
HETATM    3  H   UNL     1      -8.503  14.940  65.730  1.00  0.00     0.000 HD 
HETATM    4  P   UNL     1      -9.640  17.332  66.371  1.00  0.00    -0.233 P  
HETATM    5  O   UNL     1      -8.643  13.808  68.093  1.00  0.00    -0.160 OA 
HETATM    6  P   UNL     1      -8.844  15.401  68.507  1.00  0.00    -0.206 P  
HETATM    7  O   UNL     1     -10.695  17.863  67.512  1.00  0.00    -0.389 OA 
HETATM    8  O   UNL     1     -10.755  16.965  65.205  1.00  0.00    -0.663 OA 
HETATM    9  O   UNL     1      -7.572  15.881  67.569  1.00  0.00    -0.135 OA 
HETATM   10  O   UNL     1      -7.988  15.210  69.784  1.00  0.00    -0.192 OA 
HETATM   11  O   UNL     1      -9.457  18.775  65.839  1.00  0.00    -0.470 OA 
ENDROOT
BRANCH   2  12
HETATM   12  C   UNL     1     -11.346  15.273  67.327  1.00  0.00    -0.269 C  
BRANCH  12  13
HETATM   13  C   UNL     1     -11.701  14.864  68.741  1.00  0.00    -0.353 A  
HETATM   14  C   UNL     1     -11.773  13.529  69.098  1.00  0.00    -0.327 A  
HETATM   15  N   UNL     1     -12.210  13.085  70.303  1.00  0.00    -0.329 NA 
HETATM   16  C   UNL     1     -12.597  14.027  71.190  1.00  0.00    -0.371 A  
HETATM   17  C   UNL     1     -12.550  15.379  70.945  1.00  0.00    -0.496 A  
HETATM   18  C   UNL     1     -12.094  15.817  69.700  1.00  0.00    -0.282 A  
ENDBRANCH  12  13
ENDBRANCH   2  12
TORSDOF 2
ENDMDL
MODEL       45
REMARK 921   NORMALIZED FREE ENERGY PREDICTED BY IDOCK:   -4.52 KCAL/MOL
REMARK 922        TOTAL FREE ENERGY PREDICTED BY IDOCK:   -5.29 KCAL/MOL
REMARK 923 INTER-LIGAND FREE ENERGY PREDICTED BY IDOCK:   -4.97 KCAL/MOL
REMARK 924 INTRA-LIGAND FREE ENERGY PREDICTED BY IDOCK:   -0.32 KCAL/MOL
REMARK 927      BINDING AFFINITY PREDICTED BY RF-SCORE:    0.00 PKD
ROOT
HETATM    1  O   UNL     1     -10.762  16.820  67.619  1.00  0.00    -0.339 OA 
HETATM    2  C   UNL     1     -10.259  15.802  66.686  1.00  0.00    -0.285 C  
HETATM    3  H   UNL     1     -11.682  16.641  67.773  1.00  0.00     0.000 HD 
HETATM    4  P   UNL     1     -11.281  15.929  65.174  1.00  0.00    -0.081 P  
HETATM    5  O   UNL     1     -10.217  14.781  68.906  1.00  0.00    -0.227 OA 
HETATM    6  P   UNL     1     -10.427  14.125  67.397  1.00  0.00    -0.274 P  
HETATM    7  O   UNL     1     -10.107  15.138  64.340  1.00  0.00     0.125 OA 
HETATM    8  O   UNL     1     -10.681  17.459  64.985  1.00  0.00    -0.688 OA 
HETATM    9  O   UNL     1     -12.049  14.435  67.408  1.00  0.00    -0.397 OA 
HETATM   10  O   UNL     1     -10.571  12.706  68.000  1.00  0.00    -0.210 OA 
HETATM   11  O   UNL     1     -12.147  16.036  63.894  1.00  0.00    -0.880 OA 
ENDROOT
BRANCH   2  12
HETATM   12  C   UNL     1      -8.740  16.097  66.432  1.00  0.00    -0.360 C  
BRANCH  12  13
HETATM   13  C   UNL     1      -8.024  17.062  67.353  1.00  0.00    -0.197 A  
HETATM   14  C   UNL     1      -7.944  18.409  67.049  1.00  0.00    -0.229 A  
HETATM   15  N   UNL     1      -7.212  19.308  67.754  1.00  0.00    -0.241 NA 
HETATM   16  C   UNL     1      -6.524  18.829  68.812  1.00  0.00    -0.252 A  
HETATM   17  C   UNL     1      -6.546  17.513  69.213  1.00  0.00    -0.235 A  
HETATM   18  C   UNL     1      -7.308  16.605  68.476  1.00  0.00    -0.201 A  
ENDBRANCH  12  13
ENDBRANCH   2  12
TORSDOF 2
ENDMDL
MODEL       46
REMARK 921   NORMALIZED FREE ENERGY PREDICTED BY IDOCK:   -4.52 KCAL/MOL
REMARK 922        TOTAL FREE ENERGY PREDICTED BY IDOCK:   -5.28 KCAL/MOL
REMARK 923 INTER-LIGAND FREE ENERGY PREDICTED BY IDOCK:   -5.19 KCAL/MOL
REMARK 924 INTRA-LIGAND FREE ENERGY PREDICTED BY IDOCK:   -0.10 KCAL/MOL
REMARK 927      BINDING AFFINITY PREDICTED BY RF-SCORE:    0.00 PKD
ROOT
HETATM    1  O   UNL     1     -12.283   7.390  70.333  1.00  0.00    -0.533 OA 
HETATM    2  C   UNL     1     -10.871   7.182  70.685  1.00  0.00    -0.245 C  
HETATM    3  H   UNL     1     -12.778   6.659  70.682  1.00  0.00     0.000 HD 
HETATM    4  P   UNL     1     -10.384   5.573  69.964  1.00  0.00    -0.297 P  
HETATM    5  O   UNL     1     -11.932   8.174  72.651  1.00  0.00    -0.381 OA 
HETATM    6  P   UNL     1     -10.653   7.129  72.501  1.00  0.00    -0.284 P  
HETATM    7  O   UNL     1      -8.807   6.021  70.083  1.00  0.00    -0.140 OA 
HETATM    8  O   UNL     1     -10.680   6.233  68.476  1.00  0.00    -0.231 OA 
HETATM    9  O   UNL     1     -11.643   5.808  72.449  1.00  0.00    -0.301 OA 
HETATM   10  O   UNL     1     -10.469   7.083  74.037  1.00  0.00    -0.366 OA 
HETATM   11  O   UNL     1      -9.972   4.210  69.354  1.00  0.00    -0.158 OA 
ENDROOT
BRANCH   2  12
HETATM   12  C   UNL     1     -10.054   8.390  70.109  1.00  0.00    -0.193 C  
BRANCH  12  13
HETATM   13  C   UNL     1     -10.805   9.618  69.639  1.00  0.00    -0.266 A  
HETATM   14  C   UNL     1     -10.780  10.001  68.310  1.00  0.00    -0.240 A  
HETATM   15  N   UNL     1     -11.317  11.154  67.839  1.00  0.00    -0.364 NA 
HETATM   16  C   UNL     1     -11.903  11.963  68.747  1.00  0.00    -0.313 A  
HETATM   17  C   UNL     1     -11.999  11.671  70.088  1.00  0.00    -0.441 A  
HETATM   18  C   UNL     1     -11.443  10.478  70.553  1.00  0.00    -0.433 A  
ENDBRANCH  12  13
ENDBRANCH   2  12
TORSDOF 2
ENDMDL
MODEL       47
REMARK 921   NORMALIZED FREE ENERGY PREDICTED BY IDOCK:   -4.46 KCAL/MOL
REMARK 922        TOTAL FREE ENERGY PREDICTED BY IDOCK:   -5.22 KCAL/MOL
REMARK 923 INTER-LIGAND FREE ENERGY PREDICTED BY IDOCK:   -5.23 KCAL/MOL
REMARK 924 INTRA-LIGAND FREE ENERGY PREDICTED BY IDOCK:    0.01 KCAL/MOL
REMARK 927      BINDING AFFINITY PREDICTED BY RF-SCORE:    0.00 PKD
ROOT
HETATM    1  O   UNL     1      -9.228  14.197  65.746  1.00  0.00    -0.505 OA 
HETATM    2  C   UNL     1     -10.575  14.558  66.211  1.00  0.00    -0.304 C  
HETATM    3  H   UNL     1      -9.001  14.785  65.036  1.00  0.00     0.000 HD 
HETATM    4  P   UNL     1     -11.686  14.405  64.765  1.00  0.00    -0.430 P  
HETATM    5  O   UNL     1      -9.032  16.108  67.302  1.00  0.00    -0.191 OA 
HETATM    6  P   UNL     1     -10.612  16.280  66.829  1.00  0.00    -0.143 P  
HETATM    7  O   UNL     1     -12.970  14.322  65.787  1.00  0.00    -0.436 OA 
HETATM    8  O   UNL     1     -11.322  12.790  64.750  1.00  0.00    -0.292 OA 
HETATM    9  O   UNL     1     -10.182  16.702  65.291  1.00  0.00    -0.600 OA 
HETATM   10  O   UNL     1     -10.644  17.738  67.351  1.00  0.00    -0.368 OA 
HETATM   11  O   UNL     1     -12.625  14.275  63.541  1.00  0.00    -0.814 OA 
ENDROOT
BRANCH   2  12
HETATM   12  C   UNL     1     -10.950  13.589  67.384  1.00  0.00    -0.286 C  
BRANCH  12  13
HETATM   13  C   UNL     1      -9.916  12.590  67.860  1.00  0.00    -0.212 A  
HETATM   14  C   UNL     1      -8.731  13.014  68.435  1.00  0.00    -0.115 A  
HETATM   15  N   UNL     1      -7.706  12.189  68.765  1.00  0.00    -0.080 NA 
HETATM   16  C   UNL     1      -7.879  10.876  68.500  1.00  0.00    -0.126 A  
HETATM   17  C   UNL     1      -9.021  10.346  67.947  1.00  0.00    -0.128 A  
HETATM   18  C   UNL     1     -10.066  11.211  67.618  1.00  0.00    -0.203 A  
ENDBRANCH  12  13
ENDBRANCH   2  12
TORSDOF 2
ENDMDL
MODEL       48
REMARK 921   NORMALIZED FREE ENERGY PREDICTED BY IDOCK:   -4.40 KCAL/MOL
REMARK 922        TOTAL FREE ENERGY PREDICTED BY IDOCK:   -5.15 KCAL/MOL
REMARK 923 INTER-LIGAND FREE ENERGY PREDICTED BY IDOCK:   -4.94 KCAL/MOL
REMARK 924 INTRA-LIGAND FREE ENERGY PREDICTED BY IDOCK:   -0.21 KCAL/MOL
REMARK 927      BINDING AFFINITY PREDICTED BY RF-SCORE:    0.00 PKD
ROOT
HETATM    1  O   UNL     1     -10.000  12.783  68.253  1.00  0.00    -0.223 OA 
HETATM    2  C   UNL     1      -9.792  11.454  67.660  1.00  0.00    -0.176 C  
HETATM    3  H   UNL     1      -9.629  12.770  69.127  1.00  0.00     0.000 HD 
HETATM    4  P   UNL     1     -10.607  10.252  68.773  1.00  0.00    -0.238 P  
HETATM    5  O   UNL     1      -7.703  12.683  67.346  1.00  0.00    -0.151 OA 
HETATM    6  P   UNL     1      -8.009  11.065  67.543  1.00  0.00    -0.124 P  
HETATM    7  O   UNL     1     -10.627   9.161  67.545  1.00  0.00    -0.267 OA 
HETATM    8  O   UNL     1     -12.039  11.001  68.414  1.00  0.00    -0.594 OA 
HETATM    9  O   UNL     1      -8.006  11.190  69.190  1.00  0.00    -0.125 OA 
HETATM   10  O   UNL     1      -6.499  10.735  67.444  1.00  0.00    -0.060 OA 
HETATM   11  O   UNL     1     -11.297   9.235  69.716  1.00  0.00    -0.149 OA 
ENDROOT
BRANCH   2  12
HETATM   12  C   UNL     1     -10.405  11.475  66.218  1.00  0.00    -0.280 C  
BRANCH  12  13
HETATM   13  C   UNL     1     -11.016  12.763  65.706  1.00  0.00    -0.306 A  
HETATM   14  C   UNL     1     -12.386  12.896  65.574  1.00  0.00    -0.461 A  
HETATM   15  N   UNL     1     -12.997  13.965  65.004  1.00  0.00    -0.752 NA 
HETATM   16  C   UNL     1     -12.191  14.944  64.540  1.00  0.00    -0.382 A  
HETATM   17  C   UNL     1     -10.819  14.921  64.634  1.00  0.00    -0.296 A  
HETATM   18  C   UNL     1     -10.210  13.814  65.228  1.00  0.00    -0.355 A  
ENDBRANCH  12  13
ENDBRANCH   2  12
TORSDOF 2
ENDMDL
MODEL       49
REMARK 921   NORMALIZED FREE ENERGY PREDICTED BY IDOCK:   -4.37 KCAL/MOL
REMARK 922        TOTAL FREE ENERGY PREDICTED BY IDOCK:   -5.12 KCAL/MOL
REMARK 923 INTER-LIGAND FREE ENERGY PREDICTED BY IDOCK:   -4.83 KCAL/MOL
REMARK 924 INTRA-LIGAND FREE ENERGY PREDICTED BY IDOCK:   -0.29 KCAL/MOL
REMARK 927      BINDING AFFINITY PREDICTED BY RF-SCORE:    0.00 PKD
ROOT
HETATM    1  O   UNL     1     -10.045   9.698  71.343  1.00  0.00    -0.214 OA 
HETATM    2  C   UNL     1     -10.909   8.810  70.552  1.00  0.00    -0.233 C  
HETATM    3  H   UNL     1      -9.235   9.235  71.515  1.00  0.00     0.000 HD 
HETATM    4  P   UNL     1     -11.144   7.291  71.544  1.00  0.00    -0.249 P  
HETATM    5  O   UNL     1      -9.371   9.862  68.970  1.00  0.00    -0.157 OA 
HETATM    6  P   UNL     1     -10.119   8.381  68.958  1.00  0.00    -0.207 P  
HETATM    7  O   UNL     1     -12.472   6.934  70.646  1.00  0.00    -0.321 OA 
HETATM    8  O   UNL     1     -11.899   8.234  72.675  1.00  0.00    -0.401 OA 
HETATM    9  O   UNL     1      -8.934   7.694  69.880  1.00  0.00    -0.143 OA 
HETATM   10  O   UNL     1      -9.450   8.018  67.610  1.00  0.00    -0.141 OA 
HETATM   11  O   UNL     1     -11.342   6.005  72.385  1.00  0.00    -0.273 OA 
ENDROOT
BRANCH   2  12
HETATM   12  C   UNL     1     -12.247   9.575  70.268  1.00  0.00     0.097 C  
BRANCH  12  13
HETATM   13  C   UNL     1     -12.367  11.018  70.711  1.00  0.00    -0.496 A  
HETATM   14  C   UNL     1     -13.081  11.355  71.847  1.00  0.00    -0.400 A  
HETATM   15  N   UNL     1     -13.341  12.629  72.234  1.00  0.00    -0.508 NA 
HETATM   16  C   UNL     1     -12.866  13.611  71.437  1.00  0.00    -0.360 A  
HETATM   17  C   UNL     1     -12.132  13.388  70.296  1.00  0.00    -0.419 A  
HETATM   18  C   UNL     1     -11.871  12.070  69.918  1.00  0.00    -0.405 A  
ENDBRANCH  12  13
ENDBRANCH   2  12
TORSDOF 2
ENDMDL
MODEL       50
REMARK 921   NORMALIZED FREE ENERGY PREDICTED BY IDOCK:   -4.37 KCAL/MOL
REMARK 922        TOTAL FREE ENERGY PREDICTED BY IDOCK:   -5.12 KCAL/MOL
REMARK 923 INTER-LIGAND FREE ENERGY PREDICTED BY IDOCK:   -4.93 KCAL/MOL
REMARK 924 INTRA-LIGAND FREE ENERGY PREDICTED BY IDOCK:   -0.19 KCAL/MOL
REMARK 927      BINDING AFFINITY PREDICTED BY RF-SCORE:    0.00 PKD
ROOT
HETATM    1  O   UNL     1      -9.319  14.716  65.342  1.00  0.00    -0.453 OA 
HETATM    2  C   UNL     1     -10.270  15.094  66.397  1.00  0.00    -0.281 C  
HETATM    3  H   UNL     1      -9.654  15.050  64.519  1.00  0.00     0.000 HD 
HETATM    4  P   UNL     1     -11.884  14.371  65.930  1.00  0.00    -0.307 P  
HETATM    5  O   UNL     1      -8.848  17.047  66.020  1.00  0.00    -0.477 OA 
HETATM    6  P   UNL     1     -10.426  16.913  66.513  1.00  0.00    -0.138 P  
HETATM    7  O   UNL     1     -12.380  14.524  67.489  1.00  0.00    -0.240 OA 
HETATM    8  O   UNL     1     -11.177  12.882  66.077  1.00  0.00    -0.280 OA 
HETATM    9  O   UNL     1     -10.982  16.833  64.959  1.00  0.00    -0.584 OA 
HETATM   10  O   UNL     1     -10.559  18.453  66.610  1.00  0.00    -0.382 OA 
HETATM   11  O   UNL     1     -13.251  13.759  65.534  1.00  0.00    -0.662 OA 
ENDROOT
BRANCH   2  12
HETATM   12  C   UNL     1      -9.716  14.544  67.757  1.00  0.00    -0.216 C  
BRANCH  12  13
HETATM   13  C   UNL     1      -8.333  13.927  67.782  1.00  0.00    -0.174 A  
HETATM   14  C   UNL     1      -7.218  14.695  68.065  1.00  0.00    -0.140 A  
HETATM   15  N   UNL     1      -5.941  14.246  67.979  1.00  0.00    -0.135 NA 
HETATM   16  C   UNL     1      -5.777  12.965  67.584  1.00  0.00    -0.130 A  
HETATM   17  C   UNL     1      -6.815  12.110  67.295  1.00  0.00    -0.149 A  
HETATM   18  C   UNL     1      -8.122  12.591  67.393  1.00  0.00    -0.180 A  
ENDBRANCH  12  13
ENDBRANCH   2  12
TORSDOF 2
ENDMDL
MODEL       51
REMARK 921   NORMALIZED FREE ENERGY PREDICTED BY IDOCK:   -4.32 KCAL/MOL
REMARK 922        TOTAL FREE ENERGY PREDICTED BY IDOCK:   -5.07 KCAL/MOL
REMARK 923 INTER-LIGAND FREE ENERGY PREDICTED BY IDOCK:   -4.77 KCAL/MOL
REMARK 924 INTRA-LIGAND FREE ENERGY PREDICTED BY IDOCK:   -0.29 KCAL/MOL
REMARK 927      BINDING AFFINITY PREDICTED BY RF-SCORE:    0.00 PKD
ROOT
HETATM    1  O   UNL     1     -11.753  10.236  68.166  1.00  0.00    -0.711 OA 
HETATM    2  C   UNL     1     -10.328   9.970  68.409  1.00  0.00    -0.191 C  
HETATM    3  H   UNL     1     -12.231   9.435  68.343  1.00  0.00     0.000 HD 
HETATM    4  P   UNL     1      -9.858   8.592  67.302  1.00  0.00    -0.246 P  
HETATM    5  O   UNL     1     -11.324  10.437  70.593  1.00  0.00    -0.319 OA 
HETATM    6  P   UNL     1     -10.044   9.479  70.149  1.00  0.00    -0.281 P  
HETATM    7  O   UNL     1      -8.281   9.021  67.473  1.00  0.00    -0.108 OA 
HETATM    8  O   UNL     1     -10.212   9.590  66.030  1.00  0.00    -0.272 OA 
HETATM    9  O   UNL     1     -11.027   8.196  69.810  1.00  0.00    -0.225 OA 
HETATM   10  O   UNL     1      -9.804   9.063  71.621  1.00  0.00    -0.306 OA 
HETATM   11  O   UNL     1      -9.460   7.425  66.365  1.00  0.00    -0.178 OA 
ENDROOT
BRANCH   2  12
HETATM   12  C   UNL     1      -9.540  11.293  68.118  1.00  0.00    -0.186 C  
BRANCH  12  13
HETATM   13  C   UNL     1     -10.322  12.545  67.779  1.00  0.00    -0.224 A  
HETATM   14  C   UNL     1     -10.439  12.977  66.470  1.00  0.00    -0.277 A  
HETATM   15  N   UNL     1     -11.009  14.152  66.103  1.00  0.00    -0.305 NA 
HETATM   16  C   UNL     1     -11.479  14.932  67.100  1.00  0.00    -0.335 A  
HETATM   17  C   UNL     1     -11.429  14.593  68.432  1.00  0.00    -0.335 A  
HETATM   18  C   UNL     1     -10.842  13.378  68.789  1.00  0.00    -0.275 A  
ENDBRANCH  12  13
ENDBRANCH   2  12
TORSDOF 2
ENDMDL
MODEL       52
REMARK 921   NORMALIZED FREE ENERGY PREDICTED BY IDOCK:   -4.31 KCAL/MOL
REMARK 922        TOTAL FREE ENERGY PREDICTED BY IDOCK:   -5.05 KCAL/MOL
REMARK 923 INTER-LIGAND FREE ENERGY PREDICTED BY IDOCK:   -4.79 KCAL/MOL
REMARK 924 INTRA-LIGAND FREE ENERGY PREDICTED BY IDOCK:   -0.26 KCAL/MOL
REMARK 927      BINDING AFFINITY PREDICTED BY RF-SCORE:    0.00 PKD
ROOT
HETATM    1  O   UNL     1      -9.643  12.134  68.209  1.00  0.00    -0.206 OA 
HETATM    2  C   UNL     1     -10.243  11.430  67.067  1.00  0.00    -0.213 C  
HETATM    3  H   UNL     1      -9.108  12.840  67.865  1.00  0.00     0.000 HD 
HETATM    4  P   UNL     1      -8.856  10.843  66.028  1.00  0.00    -0.190 P  
HETATM    5  O   UNL     1     -11.647  13.387  67.485  1.00  0.00    -0.304 OA 
HETATM    6  P   UNL     1     -11.303  12.557  66.091  1.00  0.00    -0.381 P  
HETATM    7  O   UNL     1      -9.870   9.757  65.326  1.00  0.00    -0.313 OA 
HETATM    8  O   UNL     1      -8.391   9.903  67.308  1.00  0.00    -0.120 OA 
HETATM    9  O   UNL     1      -9.920  13.421  65.831  1.00  0.00    -0.289 OA 
HETATM   10  O   UNL     1     -12.200  13.511  65.264  1.00  0.00    -0.390 OA 
HETATM   11  O   UNL     1      -7.682  10.347  65.148  1.00  0.00    -0.145 OA 
ENDROOT
BRANCH   2  12
HETATM   12  C   UNL     1     -11.125  10.266  67.635  1.00  0.00    -0.319 C  
BRANCH  12  13
HETATM   13  C   UNL     1     -11.251  10.115  69.137  1.00  0.00    -0.234 A  
HETATM   14  C   UNL     1     -10.528   9.152  69.818  1.00  0.00    -0.223 A  
HETATM   15  N   UNL     1     -10.683   8.872  71.136  1.00  0.00    -0.240 NA 
HETATM   16  C   UNL     1     -11.614   9.591  71.800  1.00  0.00    -0.312 A  
HETATM   17  C   UNL     1     -12.375  10.582  71.226  1.00  0.00    -0.502 A  
HETATM   18  C   UNL     1     -12.197  10.858  69.869  1.00  0.00    -0.408 A  
ENDBRANCH  12  13
ENDBRANCH   2  12
TORSDOF 2
ENDMDL
MODEL       53
REMARK 921   NORMALIZED FREE ENERGY PREDICTED BY IDOCK:   -4.26 KCAL/MOL
REMARK 922        TOTAL FREE ENERGY PREDICTED BY IDOCK:   -5.00 KCAL/MOL
REMARK 923 INTER-LIGAND FREE ENERGY PREDICTED BY IDOCK:   -5.28 KCAL/MOL
REMARK 924 INTRA-LIGAND FREE ENERGY PREDICTED BY IDOCK:    0.28 KCAL/MOL
REMARK 927      BINDING AFFINITY PREDICTED BY RF-SCORE:    0.00 PKD
ROOT
HETATM    1  O   UNL     1     -10.894  12.802  69.399  1.00  0.00    -0.437 OA 
HETATM    2  C   UNL     1     -10.189  12.333  68.198  1.00  0.00    -0.212 C  
HETATM    3  H   UNL     1     -10.258  13.229  69.959  1.00  0.00     0.000 HD 
HETATM    4  P   UNL     1      -8.865  11.210  68.774  1.00  0.00    -0.017 P  
HETATM    5  O   UNL     1     -10.687  14.698  67.826  1.00  0.00    -0.258 OA 
HETATM    6  P   UNL     1      -9.445  13.737  67.290  1.00  0.00    -0.255 P  
HETATM    7  O   UNL     1      -8.780  10.569  67.264  1.00  0.00    -0.126 OA 
HETATM    8  O   UNL     1     -10.058  10.222  69.357  1.00  0.00    -0.212 OA 
HETATM    9  O   UNL     1      -8.561  13.987  68.662  1.00  0.00    -0.163 OA 
HETATM   10  O   UNL     1      -8.816  14.925  66.522  1.00  0.00    -0.266 OA 
HETATM   11  O   UNL     1      -7.743  10.259  69.262  1.00  0.00    -0.104 OA 
ENDROOT
BRANCH   2  12
HETATM   12  C   UNL     1     -11.239  11.628  67.273  1.00  0.00    -0.365 C  
BRANCH  12  13
HETATM   13  C   UNL     1     -11.413  12.131  65.855  1.00  0.00    -0.418 A  
HETATM   14  C   UNL     1     -12.404  13.042  65.541  1.00  0.00    -0.472 A  
HETATM   15  N   UNL     1     -12.704  13.438  64.279  1.00  0.00    -0.656 NA 
HETATM   16  C   UNL     1     -11.976  12.887  63.284  1.00  0.00    -0.440 A  
HETATM   17  C   UNL     1     -10.957  11.985  63.485  1.00  0.00    -0.514 A  
HETATM   18  C   UNL     1     -10.662  11.594  64.792  1.00  0.00    -0.365 A  
ENDBRANCH  12  13
ENDBRANCH   2  12
TORSDOF 2
ENDMDL
MODEL       54
REMARK 921   NORMALIZED FREE ENERGY PREDICTED BY IDOCK:   -4.24 KCAL/MOL
REMARK 922        TOTAL FREE ENERGY PREDICTED BY IDOCK:   -4.98 KCAL/MOL
REMARK 923 INTER-LIGAND FREE ENERGY PREDICTED BY IDOCK:   -5.19 KCAL/MOL
REMARK 924 INTRA-LIGAND FREE ENERGY PREDICTED BY IDOCK:    0.21 KCAL/MOL
REMARK 927      BINDING AFFINITY PREDICTED BY RF-SCORE:    0.00 PKD
ROOT
HETATM    1  O   UNL     1     -12.279  12.136  68.207  1.00  0.00    -0.356 OA 
HETATM    2  C   UNL     1     -10.991  12.800  67.965  1.00  0.00    -0.239 C  
HETATM    3  H   UNL     1     -12.358  11.423  67.585  1.00  0.00     0.000 HD 
HETATM    4  P   UNL     1     -11.011  13.361  66.223  1.00  0.00    -0.294 P  
HETATM    5  O   UNL     1     -10.509  10.851  69.358  1.00  0.00    -0.219 OA 
HETATM    6  P   UNL     1      -9.601  11.638  68.215  1.00  0.00    -0.187 P  
HETATM    7  O   UNL     1      -9.803  14.419  66.572  1.00  0.00    -0.265 OA 
HETATM    8  O   UNL     1     -12.278  14.344  66.631  1.00  0.00    -0.424 OA 
HETATM    9  O   UNL     1     -10.273  10.772  66.980  1.00  0.00    -0.200 OA 
HETATM   10  O   UNL     1      -8.424  10.653  68.427  1.00  0.00    -0.120 OA 
HETATM   11  O   UNL     1     -11.028  13.835  64.749  1.00  0.00    -0.351 OA 
ENDROOT
BRANCH   2  12
HETATM   12  C   UNL     1     -10.861  13.978  68.991  1.00  0.00    -0.268 C  
BRANCH  12  13
HETATM   13  C   UNL     1     -11.936  14.145  70.044  1.00  0.00    -0.404 A  
HETATM   14  C   UNL     1     -12.291  13.095  70.872  1.00  0.00    -0.307 A  
HETATM   15  N   UNL     1     -13.328  13.129  71.745  1.00  0.00    -0.408 NA 
HETATM   16  C   UNL     1     -14.046  14.272  71.785  1.00  0.00    -0.451 A  
HETATM   17  C   UNL     1     -13.771  15.381  71.020  1.00  0.00    -0.420 A  
HETATM   18  C   UNL     1     -12.697  15.327  70.130  1.00  0.00    -0.278 A  
ENDBRANCH  12  13
ENDBRANCH   2  12
TORSDOF 2
ENDMDL
MODEL       55
REMARK 921   NORMALIZED FREE ENERGY PREDICTED BY IDOCK:   -4.24 KCAL/MOL
REMARK 922        TOTAL FREE ENERGY PREDICTED BY IDOCK:   -4.97 KCAL/MOL
REMARK 923 INTER-LIGAND FREE ENERGY PREDICTED BY IDOCK:   -4.74 KCAL/MOL
REMARK 924 INTRA-LIGAND FREE ENERGY PREDICTED BY IDOCK:   -0.23 KCAL/MOL
REMARK 927      BINDING AFFINITY PREDICTED BY RF-SCORE:    0.00 PKD
ROOT
HETATM    1  O   UNL     1      -9.581  15.937  66.408  1.00  0.00    -0.246 OA 
HETATM    2  C   UNL     1      -9.168  15.475  67.741  1.00  0.00    -0.179 C  
HETATM    3  H   UNL     1      -9.762  15.169  65.880  1.00  0.00     0.000 HD 
HETATM    4  P   UNL     1      -7.703  14.408  67.494  1.00  0.00    -0.158 P  
HETATM    5  O   UNL     1     -11.612  15.431  67.724  1.00  0.00    -0.322 OA 
HETATM    6  P   UNL     1     -10.501  14.507  68.537  1.00  0.00    -0.261 P  
HETATM    7  O   UNL     1      -7.311  14.616  69.076  1.00  0.00    -0.120 OA 
HETATM    8  O   UNL     1      -6.922  15.742  66.904  1.00  0.00    -0.225 OA 
HETATM    9  O   UNL     1     -10.326  13.467  67.266  1.00  0.00    -0.242 OA 
HETATM   10  O   UNL     1     -11.628  13.686  69.211  1.00  0.00    -0.272 OA 
HETATM   11  O   UNL     1      -6.463  13.504  67.284  1.00  0.00    -0.276 OA 
ENDROOT
BRANCH   2  12
HETATM   12  C   UNL     1      -8.869  16.743  68.613  1.00  0.00    -0.255 C  
BRANCH  12  13
HETATM   13  C   UNL     1      -9.143  18.111  68.025  1.00  0.00    -0.289 A  
HETATM   14  C   UNL     1      -8.104  18.951  67.666  1.00  0.00    -0.255 A  
HETATM   15  N   UNL     1      -8.267  20.234  67.257  1.00  0.00    -0.335 NA 
HETATM   16  C   UNL     1      -9.536  20.696  67.210  1.00  0.00    -0.379 A  
HETATM   17  C   UNL     1     -10.641  19.942  67.528  1.00  0.00    -0.492 A  
HETATM   18  C   UNL     1     -10.452  18.623  67.943  1.00  0.00    -0.431 A  
ENDBRANCH  12  13
ENDBRANCH   2  12
TORSDOF 2
ENDMDL
MODEL       56
REMARK 921   NORMALIZED FREE ENERGY PREDICTED BY IDOCK:   -4.24 KCAL/MOL
REMARK 922        TOTAL FREE ENERGY PREDICTED BY IDOCK:   -4.97 KCAL/MOL
REMARK 923 INTER-LIGAND FREE ENERGY PREDICTED BY IDOCK:   -5.21 KCAL/MOL
REMARK 924 INTRA-LIGAND FREE ENERGY PREDICTED BY IDOCK:    0.24 KCAL/MOL
REMARK 927      BINDING AFFINITY PREDICTED BY RF-SCORE:    0.00 PKD
ROOT
HETATM    1  O   UNL     1      -8.966  19.402  68.819  1.00  0.00    -0.368 OA 
HETATM    2  C   UNL     1      -8.663  18.469  67.725  1.00  0.00    -0.275 C  
HETATM    3  H   UNL     1      -8.909  20.284  68.471  1.00  0.00     0.000 HD 
HETATM    4  P   UNL     1      -6.991  18.898  67.120  1.00  0.00    -0.203 P  
HETATM    5  O   UNL     1     -11.018  19.077  67.480  1.00  0.00    -0.443 OA 
HETATM    6  P   UNL     1      -9.870  18.650  66.361  1.00  0.00    -0.336 P  
HETATM    7  O   UNL     1      -6.881  17.410  66.432  1.00  0.00    -0.222 OA 
HETATM    8  O   UNL     1      -6.423  18.483  68.617  1.00  0.00    -0.216 OA 
HETATM    9  O   UNL     1      -9.306  20.197  66.242  1.00  0.00    -0.367 OA 
HETATM   10  O   UNL     1     -10.891  18.803  65.207  1.00  0.00    -0.576 OA 
HETATM   11  O   UNL     1      -5.575  19.262  66.608  1.00  0.00    -0.159 OA 
ENDROOT
BRANCH   2  12
HETATM   12  C   UNL     1      -8.758  17.014  68.299  1.00  0.00    -0.241 C  
BRANCH  12  13
HETATM   13  C   UNL     1      -9.899  16.127  67.846  1.00  0.00    -0.235 A  
HETATM   14  C   UNL     1     -11.023  15.955  68.635  1.00  0.00    -0.320 A  
HETATM   15  N   UNL     1     -12.022  15.081  68.359  1.00  0.00    -0.255 NA 
HETATM   16  C   UNL     1     -11.882  14.339  67.239  1.00  0.00    -0.413 A  
HETATM   17  C   UNL     1     -10.816  14.440  66.377  1.00  0.00    -0.314 A  
HETATM   18  C   UNL     1      -9.800  15.349  66.676  1.00  0.00    -0.269 A  
ENDBRANCH  12  13
ENDBRANCH   2  12
TORSDOF 2
ENDMDL
MODEL       57
REMARK 921   NORMALIZED FREE ENERGY PREDICTED BY IDOCK:   -4.23 KCAL/MOL
REMARK 922        TOTAL FREE ENERGY PREDICTED BY IDOCK:   -4.96 KCAL/MOL
REMARK 923 INTER-LIGAND FREE ENERGY PREDICTED BY IDOCK:   -5.16 KCAL/MOL
REMARK 924 INTRA-LIGAND FREE ENERGY PREDICTED BY IDOCK:    0.20 KCAL/MOL
REMARK 927      BINDING AFFINITY PREDICTED BY RF-SCORE:    0.00 PKD
ROOT
HETATM    1  O   UNL     1     -12.707  13.909  67.752  1.00  0.00    -0.207 OA 
HETATM    2  C   UNL     1     -11.334  13.715  68.240  1.00  0.00    -0.289 C  
HETATM    3  H   UNL     1     -13.283  13.918  68.506  1.00  0.00     0.000 HD 
HETATM    4  P   UNL     1     -11.329  12.138  69.169  1.00  0.00    -0.256 P  
HETATM    5  O   UNL     1     -11.821  16.097  68.487  1.00  0.00    -0.300 OA 
HETATM    6  P   UNL     1     -10.838  15.080  69.353  1.00  0.00    -0.271 P  
HETATM    7  O   UNL     1      -9.696  12.071  69.004  1.00  0.00     0.018 OA 
HETATM    8  O   UNL     1     -11.717  11.384  67.748  1.00  0.00    -0.533 OA 
HETATM    9  O   UNL     1     -12.083  14.575  70.313  1.00  0.00    -0.283 OA 
HETATM   10  O   UNL     1     -10.418  16.235  70.294  1.00  0.00    -0.171 OA 
HETATM   11  O   UNL     1     -11.325  10.804  69.956  1.00  0.00    -0.282 OA 
ENDROOT
BRANCH   2  12
HETATM   12  C   UNL     1     -10.383  13.701  66.995  1.00  0.00    -0.260 C  
BRANCH  12  13
HETATM   13  C   UNL     1     -10.997  13.715  65.611  1.00  0.00    -0.294 A  
HETATM   14  C   UNL     1     -11.761  14.786  65.183  1.00  0.00    -0.337 A  
HETATM   15  N   UNL     1     -12.447  14.815  64.013  1.00  0.00    -0.809 NA 
HETATM   16  C   UNL     1     -12.367  13.711  63.239  1.00  0.00     0.033 A  
HETATM   17  C   UNL     1     -11.624  12.599  63.560  1.00  0.00    -0.584 A  
HETATM   18  C   UNL     1     -10.922  12.591  64.766  1.00  0.00    -0.339 A  
ENDBRANCH  12  13
ENDBRANCH   2  12
TORSDOF 2
ENDMDL
MODEL       58
REMARK 921   NORMALIZED FREE ENERGY PREDICTED BY IDOCK:   -4.22 KCAL/MOL
REMARK 922        TOTAL FREE ENERGY PREDICTED BY IDOCK:   -4.95 KCAL/MOL
REMARK 923 INTER-LIGAND FREE ENERGY PREDICTED BY IDOCK:   -4.69 KCAL/MOL
REMARK 924 INTRA-LIGAND FREE ENERGY PREDICTED BY IDOCK:   -0.26 KCAL/MOL
REMARK 927      BINDING AFFINITY PREDICTED BY RF-SCORE:    0.00 PKD
ROOT
HETATM    1  O   UNL     1      -9.387   7.783  70.631  1.00  0.00    -0.161 OA 
HETATM    2  C   UNL     1     -10.716   7.600  71.230  1.00  0.00    -0.228 C  
HETATM    3  H   UNL     1      -8.891   8.361  71.199  1.00  0.00     0.000 HD 
HETATM    4  P   UNL     1     -11.454   9.267  71.383  1.00  0.00    -0.413 P  
HETATM    5  O   UNL     1      -9.225   6.039  72.376  1.00  0.00    -0.143 OA 
HETATM    6  P   UNL     1     -10.586   6.837  72.888  1.00  0.00    -0.292 P  
HETATM    7  O   UNL     1     -12.940   8.576  71.504  1.00  0.00    -0.321 OA 
HETATM    8  O   UNL     1     -11.399   9.362  69.731  1.00  0.00    -0.171 OA 
HETATM    9  O   UNL     1      -9.727   8.188  73.298  1.00  0.00    -0.269 OA 
HETATM   10  O   UNL     1     -10.475   6.192  74.291  1.00  0.00    -0.287 OA 
HETATM   11  O   UNL     1     -12.078  10.679  71.512  1.00  0.00    -0.300 OA 
ENDROOT
BRANCH   2  12
HETATM   12  C   UNL     1     -11.534   6.646  70.294  1.00  0.00    -0.449 C  
BRANCH  12  13
HETATM   13  C   UNL     1     -10.837   6.024  69.102  1.00  0.00    -0.422 A  
HETATM   14  C   UNL     1     -11.106   6.456  67.816  1.00  0.00    -0.276 A  
HETATM   15  N   UNL     1     -10.622   5.864  66.696  1.00  0.00    -0.274 NA 
HETATM   16  C   UNL     1      -9.833   4.783  66.877  1.00  0.00    -0.205 A  
HETATM   17  C   UNL     1      -9.488   4.280  68.110  1.00  0.00    -0.213 A  
HETATM   18  C   UNL     1      -9.994   4.906  69.250  1.00  0.00    -0.270 A  
ENDBRANCH  12  13
ENDBRANCH   2  12
TORSDOF 2
ENDMDL
MODEL       59
REMARK 921   NORMALIZED FREE ENERGY PREDICTED BY IDOCK:   -4.22 KCAL/MOL
REMARK 922        TOTAL FREE ENERGY PREDICTED BY IDOCK:   -4.95 KCAL/MOL
REMARK 923 INTER-LIGAND FREE ENERGY PREDICTED BY IDOCK:   -5.08 KCAL/MOL
REMARK 924 INTRA-LIGAND FREE ENERGY PREDICTED BY IDOCK:    0.13 KCAL/MOL
REMARK 927      BINDING AFFINITY PREDICTED BY RF-SCORE:    0.00 PKD
ROOT
HETATM    1  O   UNL     1      -9.684  13.190  68.796  1.00  0.00    -0.402 OA 
HETATM    2  C   UNL     1     -10.429  12.659  67.645  1.00  0.00    -0.219 C  
HETATM    3  H   UNL     1      -8.875  13.564  68.468  1.00  0.00     0.000 HD 
HETATM    4  P   UNL     1      -9.340  11.430  66.839  1.00  0.00    -0.189 P  
HETATM    5  O   UNL     1     -10.904  15.056  67.727  1.00  0.00    -0.268 OA 
HETATM    6  P   UNL     1     -10.829  13.991  66.456  1.00  0.00    -0.308 P  
HETATM    7  O   UNL     1     -10.656  10.779  66.102  1.00  0.00    -0.239 OA 
HETATM    8  O   UNL     1      -9.423  10.548  68.238  1.00  0.00    -0.147 OA 
HETATM    9  O   UNL     1      -9.193  14.170  66.308  1.00  0.00    -0.227 OA 
HETATM   10  O   UNL     1     -11.166  15.119  65.450  1.00  0.00    -0.346 OA 
HETATM   11  O   UNL     1      -8.417  10.389  66.157  1.00  0.00    -0.137 OA 
ENDROOT
BRANCH   2  12
HETATM   12  C   UNL     1     -11.765  12.042  68.185  1.00  0.00    -0.398 C  
BRANCH  12  13
HETATM   13  C   UNL     1     -12.161  12.311  69.622  1.00  0.00    -0.277 A  
HETATM   14  C   UNL     1     -12.487  11.273  70.476  1.00  0.00    -0.310 A  
HETATM   15  N   UNL     1     -12.974  11.441  71.730  1.00  0.00    -0.456 NA 
HETATM   16  C   UNL     1     -13.146  12.715  72.145  1.00  0.00    -0.333 A  
HETATM   17  C   UNL     1     -12.839  13.820  71.385  1.00  0.00    -0.449 A  
HETATM   18  C   UNL     1     -12.335  13.624  70.098  1.00  0.00    -0.372 A  
ENDBRANCH  12  13
ENDBRANCH   2  12
TORSDOF 2
ENDMDL
MODEL       60
REMARK 921   NORMALIZED FREE ENERGY PREDICTED BY IDOCK:   -4.18 KCAL/MOL
REMARK 922        TOTAL FREE ENERGY PREDICTED BY IDOCK:   -4.91 KCAL/MOL
REMARK 923 INTER-LIGAND FREE ENERGY PREDICTED BY IDOCK:   -4.71 KCAL/MOL
REMARK 924 INTRA-LIGAND FREE ENERGY PREDICTED BY IDOCK:   -0.20 KCAL/MOL
REMARK 927      BINDING AFFINITY PREDICTED BY RF-SCORE:    0.00 PKD
ROOT
HETATM    1  O   UNL     1      -8.793  15.024  66.055  1.00  0.00    -0.471 OA 
HETATM    2  C   UNL     1      -9.497  14.055  66.906  1.00  0.00    -0.265 C  
HETATM    3  H   UNL     1      -8.689  14.632  65.196  1.00  0.00     0.000 HD 
HETATM    4  P   UNL     1      -8.475  12.538  66.926  1.00  0.00    -0.005 P  
HETATM    5  O   UNL     1     -11.218  15.205  65.605  1.00  0.00    -0.336 OA 
HETATM    6  P   UNL     1     -11.151  13.668  66.225  1.00  0.00    -0.310 P  
HETATM    7  O   UNL     1      -9.250  12.059  68.293  1.00  0.00    -0.189 OA 
HETATM    8  O   UNL     1      -7.291  13.433  67.657  1.00  0.00    -0.140 OA 
HETATM    9  O   UNL     1     -10.330  13.096  64.910  1.00  0.00    -0.323 OA 
HETATM   10  O   UNL     1     -12.549  13.340  65.647  1.00  0.00    -0.464 OA 
HETATM   11  O   UNL     1      -7.610  11.253  66.942  1.00  0.00    -0.135 OA 
ENDROOT
BRANCH   2  12
HETATM   12  C   UNL     1      -9.670  14.703  68.323  1.00  0.00    -0.215 C  
BRANCH  12  13
HETATM   13  C   UNL     1      -9.404  16.185  68.482  1.00  0.00    -0.209 A  
HETATM   14  C   UNL     1     -10.431  17.106  68.386  1.00  0.00    -0.376 A  
HETATM   15  N   UNL     1     -10.253  18.450  68.387  1.00  0.00    -0.384 NA 
HETATM   16  C   UNL     1      -8.980  18.890  68.484  1.00  0.00    -0.351 A  
HETATM   17  C   UNL     1      -7.887  18.064  68.601  1.00  0.00    -0.298 A  
HETATM   18  C   UNL     1      -8.092  16.683  68.602  1.00  0.00    -0.237 A  
ENDBRANCH  12  13
ENDBRANCH   2  12
TORSDOF 2
ENDMDL
MODEL       61
REMARK 921   NORMALIZED FREE ENERGY PREDICTED BY IDOCK:   -4.16 KCAL/MOL
REMARK 922        TOTAL FREE ENERGY PREDICTED BY IDOCK:   -4.88 KCAL/MOL
REMARK 923 INTER-LIGAND FREE ENERGY PREDICTED BY IDOCK:   -4.55 KCAL/MOL
REMARK 924 INTRA-LIGAND FREE ENERGY PREDICTED BY IDOCK:   -0.34 KCAL/MOL
REMARK 927      BINDING AFFINITY PREDICTED BY RF-SCORE:    0.00 PKD
ROOT
HETATM    1  O   UNL     1     -10.514   7.253  74.124  1.00  0.00    -0.438 OA 
HETATM    2  C   UNL     1      -9.829   6.502  73.062  1.00  0.00    -0.166 C  
HETATM    3  H   UNL     1     -10.105   7.023  74.950  1.00  0.00     0.000 HD 
HETATM    4  P   UNL     1     -10.000   4.729  73.483  1.00  0.00    -0.176 P  
HETATM    5  O   UNL     1      -8.448   8.467  73.515  1.00  0.00    -0.365 OA 
HETATM    6  P   UNL     1      -8.055   6.943  72.991  1.00  0.00    -0.107 P  
HETATM    7  O   UNL     1      -9.666   4.348  71.920  1.00  0.00    -0.153 OA 
HETATM    8  O   UNL     1     -11.634   4.921  73.310  1.00  0.00    -0.336 OA 
HETATM    9  O   UNL     1      -7.981   6.354  74.532  1.00  0.00    -0.111 OA 
HETATM   10  O   UNL     1      -6.553   7.317  72.931  1.00  0.00    -0.062 OA 
HETATM   11  O   UNL     1     -10.144   3.229  73.839  1.00  0.00    -0.113 OA 
ENDROOT
BRANCH   2  12
HETATM   12  C   UNL     1     -10.503   6.881  71.699  1.00  0.00    -0.224 C  
BRANCH  12  13
HETATM   13  C   UNL     1     -11.462   8.053  71.664  1.00  0.00    -0.310 A  
HETATM   14  C   UNL     1     -12.828   7.857  71.765  1.00  0.00    -0.328 A  
HETATM   15  N   UNL     1     -13.752   8.838  71.613  1.00  0.00    -0.394 NA 
HETATM   16  C   UNL     1     -13.282  10.074  71.340  1.00  0.00    -0.395 A  
HETATM   17  C   UNL     1     -11.945  10.382  71.235  1.00  0.00    -0.425 A  
HETATM   18  C   UNL     1     -11.010   9.360  71.399  1.00  0.00    -0.443 A  
ENDBRANCH  12  13
ENDBRANCH   2  12
TORSDOF 2
ENDMDL
MODEL       62
REMARK 921   NORMALIZED FREE ENERGY PREDICTED BY IDOCK:   -4.15 KCAL/MOL
REMARK 922        TOTAL FREE ENERGY PREDICTED BY IDOCK:   -4.88 KCAL/MOL
REMARK 923 INTER-LIGAND FREE ENERGY PREDICTED BY IDOCK:   -4.56 KCAL/MOL
REMARK 924 INTRA-LIGAND FREE ENERGY PREDICTED BY IDOCK:   -0.32 KCAL/MOL
REMARK 927      BINDING AFFINITY PREDICTED BY RF-SCORE:    0.00 PKD
ROOT
HETATM    1  O   UNL     1      -8.593  16.648  66.354  1.00  0.00    -0.256 OA 
HETATM    2  C   UNL     1      -8.721  17.354  67.636  1.00  0.00    -0.221 C  
HETATM    3  H   UNL     1      -8.040  17.173  65.789  1.00  0.00     0.000 HD 
HETATM    4  P   UNL     1      -9.431  18.998  67.259  1.00  0.00    -0.326 P  
HETATM    5  O   UNL     1      -6.599  16.144  67.726  1.00  0.00    -0.126 OA 
HETATM    6  P   UNL     1      -7.086  17.564  68.431  1.00  0.00    -0.241 P  
HETATM    7  O   UNL     1      -9.886  19.139  68.831  1.00  0.00    -0.409 OA 
HETATM    8  O   UNL     1     -10.781  18.209  66.717  1.00  0.00    -0.321 OA 
HETATM    9  O   UNL     1      -6.695  18.448  67.092  1.00  0.00    -0.189 OA 
HETATM   10  O   UNL     1      -5.702  17.742  69.103  1.00  0.00    -0.186 OA 
HETATM   11  O   UNL     1     -10.031  20.389  66.939  1.00  0.00    -0.450 OA 
ENDROOT
BRANCH   2  12
HETATM   12  C   UNL     1      -9.633  16.487  68.570  1.00  0.00    -0.233 C  
BRANCH  12  13
HETATM   13  C   UNL     1     -10.049  15.108  68.102  1.00  0.00    -0.222 A  
HETATM   14  C   UNL     1     -11.296  14.893  67.544  1.00  0.00    -0.342 A  
HETATM   15  N   UNL     1     -11.788  13.670  67.223  1.00  0.00    -0.378 NA 
HETATM   16  C   UNL     1     -10.988  12.612  67.480  1.00  0.00    -0.246 A  
HETATM   17  C   UNL     1      -9.726  12.713  68.016  1.00  0.00    -0.215 A  
HETATM   18  C   UNL     1      -9.237  13.981  68.336  1.00  0.00    -0.196 A  
ENDBRANCH  12  13
ENDBRANCH   2  12
TORSDOF 2
ENDMDL
MODEL       63
REMARK 921   NORMALIZED FREE ENERGY PREDICTED BY IDOCK:   -4.15 KCAL/MOL
REMARK 922        TOTAL FREE ENERGY PREDICTED BY IDOCK:   -4.87 KCAL/MOL
REMARK 923 INTER-LIGAND FREE ENERGY PREDICTED BY IDOCK:   -4.83 KCAL/MOL
REMARK 924 INTRA-LIGAND FREE ENERGY PREDICTED BY IDOCK:   -0.04 KCAL/MOL
REMARK 927      BINDING AFFINITY PREDICTED BY RF-SCORE:    0.00 PKD
ROOT
HETATM    1  O   UNL     1     -11.671   9.973  67.889  1.00  0.00    -0.593 OA 
HETATM    2  C   UNL     1     -10.214   9.926  68.081  1.00  0.00    -0.179 C  
HETATM    3  H   UNL     1     -12.026   9.140  68.175  1.00  0.00     0.000 HD 
HETATM    4  P   UNL     1      -9.603   8.507  67.102  1.00  0.00    -0.216 P  
HETATM    5  O   UNL     1     -11.177  10.500  70.253  1.00  0.00    -0.295 OA 
HETATM    6  P   UNL     1      -9.796   9.676  69.844  1.00  0.00    -0.259 P  
HETATM    7  O   UNL     1      -8.095   9.157  67.140  1.00  0.00    -0.108 OA 
HETATM    8  O   UNL     1     -10.142   9.300  65.752  1.00  0.00    -0.268 OA 
HETATM    9  O   UNL     1     -10.607   8.245  69.698  1.00  0.00    -0.227 OA 
HETATM   10  O   UNL     1      -9.443   9.464  71.337  1.00  0.00    -0.254 OA 
HETATM   11  O   UNL     1      -9.086   7.305  66.273  1.00  0.00    -0.162 OA 
ENDROOT
BRANCH   2  12
HETATM   12  C   UNL     1      -9.627  11.301  67.609  1.00  0.00    -0.180 C  
BRANCH  12  13
HETATM   13  C   UNL     1     -10.575  12.344  67.055  1.00  0.00    -0.248 A  
HETATM   14  C   UNL     1     -11.197  13.255  67.890  1.00  0.00    -0.272 A  
HETATM   15  N   UNL     1     -12.153  14.129  67.488  1.00  0.00    -0.380 NA 
HETATM   16  C   UNL     1     -12.504  14.083  66.185  1.00  0.00    -0.430 A  
HETATM   17  C   UNL     1     -11.939  13.230  65.266  1.00  0.00    -0.422 A  
HETATM   18  C   UNL     1     -10.954  12.340  65.699  1.00  0.00    -0.338 A  
ENDBRANCH  12  13
ENDBRANCH   2  12
TORSDOF 2
ENDMDL
MODEL       64
REMARK 921   NORMALIZED FREE ENERGY PREDICTED BY IDOCK:   -4.15 KCAL/MOL
REMARK 922        TOTAL FREE ENERGY PREDICTED BY IDOCK:   -4.87 KCAL/MOL
REMARK 923 INTER-LIGAND FREE ENERGY PREDICTED BY IDOCK:   -4.58 KCAL/MOL
REMARK 924 INTRA-LIGAND FREE ENERGY PREDICTED BY IDOCK:   -0.30 KCAL/MOL
REMARK 927      BINDING AFFINITY PREDICTED BY RF-SCORE:    0.00 PKD
ROOT
HETATM    1  O   UNL     1     -11.119   8.119  68.363  1.00  0.00    -0.414 OA 
HETATM    2  C   UNL     1      -9.939   7.731  69.149  1.00  0.00    -0.182 C  
HETATM    3  H   UNL     1     -11.138   7.577  67.584  1.00  0.00     0.000 HD 
HETATM    4  P   UNL     1      -8.486   7.976  68.064  1.00  0.00    -0.125 P  
HETATM    5  O   UNL     1     -11.690   6.115  69.693  1.00  0.00    -0.331 OA 
HETATM    6  P   UNL     1     -10.037   5.975  69.650  1.00  0.00    -0.230 P  
HETATM    7  O   UNL     1      -7.522   7.996  69.394  1.00  0.00    -0.091 OA 
HETATM    8  O   UNL     1      -8.861   9.588  68.048  1.00  0.00    -0.124 OA 
HETATM    9  O   UNL     1     -10.035   5.649  68.031  1.00  0.00    -0.127 OA 
HETATM   10  O   UNL     1     -10.121   4.487  70.073  1.00  0.00    -0.227 OA 
HETATM   11  O   UNL     1      -7.256   8.182  67.145  1.00  0.00    -0.081 OA 
ENDROOT
BRANCH   2  12
HETATM   12  C   UNL     1      -9.907   8.627  70.435  1.00  0.00    -0.207 C  
BRANCH  12  13
HETATM   13  C   UNL     1     -11.165   9.368  70.836  1.00  0.00    -0.393 A  
HETATM   14  C   UNL     1     -11.389  10.666  70.414  1.00  0.00    -0.304 A  
HETATM   15  N   UNL     1     -12.423  11.437  70.835  1.00  0.00    -0.390 NA 
HETATM   16  C   UNL     1     -13.269  10.877  71.726  1.00  0.00    -0.408 A  
HETATM   17  C   UNL     1     -13.149   9.591  72.198  1.00  0.00    -0.522 A  
HETATM   18  C   UNL     1     -12.081   8.813  71.750  1.00  0.00    -0.418 A  
ENDBRANCH  12  13
ENDBRANCH   2  12
TORSDOF 2
ENDMDL
MODEL       65
REMARK 921   NORMALIZED FREE ENERGY PREDICTED BY IDOCK:   -4.15 KCAL/MOL
REMARK 922        TOTAL FREE ENERGY PREDICTED BY IDOCK:   -4.87 KCAL/MOL
REMARK 923 INTER-LIGAND FREE ENERGY PREDICTED BY IDOCK:   -4.63 KCAL/MOL
REMARK 924 INTRA-LIGAND FREE ENERGY PREDICTED BY IDOCK:   -0.24 KCAL/MOL
REMARK 927      BINDING AFFINITY PREDICTED BY RF-SCORE:    0.00 PKD
ROOT
HETATM    1  O   UNL     1      -9.351  13.905  65.902  1.00  0.00    -0.499 OA 
HETATM    2  C   UNL     1     -10.246  13.214  66.840  1.00  0.00    -0.245 C  
HETATM    3  H   UNL     1      -9.750  14.738  65.683  1.00  0.00     0.000 HD 
HETATM    4  P   UNL     1     -11.858  13.039  65.992  1.00  0.00    -0.438 P  
HETATM    5  O   UNL     1      -8.929  14.782  68.175  1.00  0.00    -0.169 OA 
HETATM    6  P   UNL     1     -10.466  14.191  68.372  1.00  0.00    -0.262 P  
HETATM    7  O   UNL     1     -12.259  11.844  67.046  1.00  0.00    -0.492 OA 
HETATM    8  O   UNL     1     -11.085  12.089  64.879  1.00  0.00    -0.302 OA 
HETATM    9  O   UNL     1     -11.116  15.346  67.386  1.00  0.00    -0.321 OA 
HETATM   10  O   UNL     1     -10.653  15.018  69.668  1.00  0.00    -0.248 OA 
HETATM   11  O   UNL     1     -13.222  12.892  65.273  1.00  0.00    -0.609 OA 
ENDROOT
BRANCH   2  12
HETATM   12  C   UNL     1      -9.587  11.839  67.204  1.00  0.00    -0.189 C  
BRANCH  12  13
HETATM   13  C   UNL     1      -8.190  11.547  66.697  1.00  0.00    -0.156 A  
HETATM   14  C   UNL     1      -7.975  10.607  65.706  1.00  0.00    -0.152 A  
HETATM   15  N   UNL     1      -6.749  10.199  65.294  1.00  0.00    -0.117 NA 
HETATM   16  C   UNL     1      -5.687  10.760  65.913  1.00  0.00    -0.145 A  
HETATM   17  C   UNL     1      -5.786  11.715  66.898  1.00  0.00    -0.143 A  
HETATM   18  C   UNL     1      -7.058  12.124  67.304  1.00  0.00    -0.144 A  
ENDBRANCH  12  13
ENDBRANCH   2  12
TORSDOF 2
ENDMDL
MODEL       66
REMARK 921   NORMALIZED FREE ENERGY PREDICTED BY IDOCK:   -4.15 KCAL/MOL
REMARK 922        TOTAL FREE ENERGY PREDICTED BY IDOCK:   -4.87 KCAL/MOL
REMARK 923 INTER-LIGAND FREE ENERGY PREDICTED BY IDOCK:   -4.78 KCAL/MOL
REMARK 924 INTRA-LIGAND FREE ENERGY PREDICTED BY IDOCK:   -0.09 KCAL/MOL
REMARK 927      BINDING AFFINITY PREDICTED BY RF-SCORE:    0.00 PKD
ROOT
HETATM    1  O   UNL     1     -11.766   6.893  69.408  1.00  0.00    -0.585 OA 
HETATM    2  C   UNL     1     -10.307   7.064  69.468  1.00  0.00    -0.213 C  
HETATM    3  H   UNL     1     -11.942   6.071  68.967  1.00  0.00     0.000 HD 
HETATM    4  P   UNL     1      -9.705   7.030  67.741  1.00  0.00    -0.146 P  
HETATM    5  O   UNL     1     -10.906   5.600  71.332  1.00  0.00    -0.253 OA 
HETATM    6  P   UNL     1      -9.529   5.704  70.413  1.00  0.00    -0.178 P  
HETATM    7  O   UNL     1      -8.321   7.768  68.231  1.00  0.00    -0.123 OA 
HETATM    8  O   UNL     1     -10.596   8.401  67.481  1.00  0.00    -0.255 OA 
HETATM    9  O   UNL     1     -10.148   4.715  69.244  1.00  0.00    -0.193 OA 
HETATM   10  O   UNL     1      -8.871   4.552  71.211  1.00  0.00    -0.116 OA 
HETATM   11  O   UNL     1      -9.196   7.001  66.279  1.00  0.00    -0.166 OA 
ENDROOT
BRANCH   2  12
HETATM   12  C   UNL     1     -10.016   8.421  70.198  1.00  0.00    -0.190 C  
BRANCH  12  13
HETATM   13  C   UNL     1     -11.187   9.270  70.648  1.00  0.00    -0.333 A  
HETATM   14  C   UNL     1     -11.422  10.511  70.085  1.00  0.00    -0.325 A  
HETATM   15  N   UNL     1     -12.367  11.380  70.523  1.00  0.00    -0.353 NA 
HETATM   16  C   UNL     1     -13.107  10.984  71.581  1.00  0.00    -0.438 A  
HETATM   17  C   UNL     1     -12.968   9.767  72.205  1.00  0.00    -0.483 A  
HETATM   18  C   UNL     1     -11.992   8.885  71.736  1.00  0.00    -0.429 A  
ENDBRANCH  12  13
ENDBRANCH   2  12
TORSDOF 2
ENDMDL
MODEL       67
REMARK 921   NORMALIZED FREE ENERGY PREDICTED BY IDOCK:   -4.14 KCAL/MOL
REMARK 922        TOTAL FREE ENERGY PREDICTED BY IDOCK:   -4.86 KCAL/MOL
REMARK 923 INTER-LIGAND FREE ENERGY PREDICTED BY IDOCK:   -4.99 KCAL/MOL
REMARK 924 INTRA-LIGAND FREE ENERGY PREDICTED BY IDOCK:    0.12 KCAL/MOL
REMARK 927      BINDING AFFINITY PREDICTED BY RF-SCORE:    0.00 PKD
ROOT
HETATM    1  O   UNL     1     -11.948  14.798  66.689  1.00  0.00    -0.314 OA 
HETATM    2  C   UNL     1     -10.698  14.421  67.364  1.00  0.00    -0.280 C  
HETATM    3  H   UNL     1     -12.643  14.260  67.047  1.00  0.00     0.000 HD 
HETATM    4  P   UNL     1     -10.457  12.633  67.058  1.00  0.00    -0.235 P  
HETATM    5  O   UNL     1     -11.840  15.987  68.854  1.00  0.00    -0.379 OA 
HETATM    6  P   UNL     1     -10.813  14.722  69.165  1.00  0.00    -0.267 P  
HETATM    7  O   UNL     1      -8.866  12.805  67.429  1.00  0.00    -0.172 OA 
HETATM    8  O   UNL     1     -10.341  12.999  65.449  1.00  0.00    -0.291 OA 
HETATM    9  O   UNL     1     -12.044  13.621  69.137  1.00  0.00    -0.345 OA 
HETATM   10  O   UNL     1     -10.912  14.976  70.689  1.00  0.00    -0.238 OA 
HETATM   11  O   UNL     1     -10.255  11.120  66.800  1.00  0.00    -0.216 OA 
ENDROOT
BRANCH   2  12
HETATM   12  C   UNL     1      -9.550  15.309  66.772  1.00  0.00    -0.257 C  
BRANCH  12  13
HETATM   13  C   UNL     1      -9.786  16.797  66.622  1.00  0.00    -0.287 A  
HETATM   14  C   UNL     1     -10.637  17.287  65.647  1.00  0.00    -0.166 A  
HETATM   15  N   UNL     1     -10.798  18.604  65.368  1.00  0.00    -0.488 NA 
HETATM   16  C   UNL     1     -10.065  19.471  66.099  1.00  0.00    -0.469 A  
HETATM   17  C   UNL     1      -9.203  19.094  67.102  1.00  0.00    -0.340 A  
HETATM   18  C   UNL     1      -9.054  17.733  67.377  1.00  0.00    -0.244 A  
ENDBRANCH  12  13
ENDBRANCH   2  12
TORSDOF 2
ENDMDL
MODEL       68
REMARK 921   NORMALIZED FREE ENERGY PREDICTED BY IDOCK:   -4.13 KCAL/MOL
REMARK 922        TOTAL FREE ENERGY PREDICTED BY IDOCK:   -4.85 KCAL/MOL
REMARK 923 INTER-LIGAND FREE ENERGY PREDICTED BY IDOCK:   -4.64 KCAL/MOL
REMARK 924 INTRA-LIGAND FREE ENERGY PREDICTED BY IDOCK:   -0.21 KCAL/MOL
REMARK 927      BINDING AFFINITY PREDICTED BY RF-SCORE:    0.00 PKD
ROOT
HETATM    1  O   UNL     1      -8.599  11.708  65.238  1.00  0.00    -0.367 OA 
HETATM    2  C   UNL     1      -8.857  11.259  66.613  1.00  0.00    -0.175 C  
HETATM    3  H   UNL     1      -7.965  11.114  64.855  1.00  0.00     0.000 HD 
HETATM    4  P   UNL     1      -7.245  11.270  67.478  1.00  0.00    -0.115 P  
HETATM    5  O   UNL     1     -10.260   9.878  65.164  1.00  0.00    -0.249 OA 
HETATM    6  P   UNL     1      -9.546   9.564  66.627  1.00  0.00    -0.222 P  
HETATM    7  O   UNL     1      -8.040  11.288  68.916  1.00  0.00    -0.140 OA 
HETATM    8  O   UNL     1      -7.208  12.906  67.234  1.00  0.00    -0.143 OA 
HETATM    9  O   UNL     1      -8.121   9.120  65.920  1.00  0.00    -0.107 OA 
HETATM   10  O   UNL     1     -10.127   8.129  66.639  1.00  0.00    -0.270 OA 
HETATM   11  O   UNL     1      -5.880  11.278  68.210  1.00  0.00    -0.046 OA 
ENDROOT
BRANCH   2  12
HETATM   12  C   UNL     1      -9.905  12.239  67.246  1.00  0.00    -0.208 C  
BRANCH  12  13
HETATM   13  C   UNL     1     -10.669  13.174  66.333  1.00  0.00    -0.293 A  
HETATM   14  C   UNL     1     -11.887  12.802  65.794  1.00  0.00    -0.434 A  
HETATM   15  N   UNL     1     -12.566  13.528  64.870  1.00  0.00    -0.627 NA 
HETATM   16  C   UNL     1     -11.989  14.679  64.464  1.00  0.00    -0.460 A  
HETATM   17  C   UNL     1     -10.790  15.151  64.946  1.00  0.00    -0.437 A  
HETATM   18  C   UNL     1     -10.110  14.391  65.900  1.00  0.00    -0.344 A  
ENDBRANCH  12  13
ENDBRANCH   2  12
TORSDOF 2
ENDMDL
MODEL       69
REMARK 921   NORMALIZED FREE ENERGY PREDICTED BY IDOCK:   -4.11 KCAL/MOL
REMARK 922        TOTAL FREE ENERGY PREDICTED BY IDOCK:   -4.82 KCAL/MOL
REMARK 923 INTER-LIGAND FREE ENERGY PREDICTED BY IDOCK:   -4.58 KCAL/MOL
REMARK 924 INTRA-LIGAND FREE ENERGY PREDICTED BY IDOCK:   -0.24 KCAL/MOL
REMARK 927      BINDING AFFINITY PREDICTED BY RF-SCORE:    0.00 PKD
ROOT
HETATM    1  O   UNL     1      -9.283  11.455  69.158  1.00  0.00    -0.405 OA 
HETATM    2  C   UNL     1      -9.822  10.107  68.927  1.00  0.00    -0.189 C  
HETATM    3  H   UNL     1      -8.538  11.371  69.740  1.00  0.00     0.000 HD 
HETATM    4  P   UNL     1     -10.262   9.432  70.569  1.00  0.00    -0.297 P  
HETATM    5  O   UNL     1      -7.940  10.368  67.389  1.00  0.00    -0.106 OA 
HETATM    6  P   UNL     1      -8.571   9.030  68.140  1.00  0.00    -0.129 P  
HETATM    7  O   UNL     1     -11.240   8.336  69.833  1.00  0.00    -0.171 OA 
HETATM    8  O   UNL     1     -11.370  10.655  70.695  1.00  0.00    -0.316 OA 
HETATM    9  O   UNL     1      -7.680   9.287  69.507  1.00  0.00    -0.075 OA 
HETATM   10  O   UNL     1      -7.511   8.118  67.474  1.00  0.00    -0.091 OA 
HETATM   11  O   UNL     1     -10.633   8.860  71.960  1.00  0.00    -0.341 OA 
ENDROOT
BRANCH   2  12
HETATM   12  C   UNL     1     -11.053  10.244  67.966  1.00  0.00    -0.336 C  
BRANCH  12  13
HETATM   13  C   UNL     1     -11.219  11.526  67.176  1.00  0.00    -0.365 A  
HETATM   14  C   UNL     1     -11.850  12.625  67.729  1.00  0.00    -0.323 A  
HETATM   15  N   UNL     1     -12.151  13.757  67.045  1.00  0.00    -0.410 NA 
HETATM   16  C   UNL     1     -11.804  13.783  65.740  1.00  0.00    -0.372 A  
HETATM   17  C   UNL     1     -11.158  12.754  65.095  1.00  0.00    -0.323 A  
HETATM   18  C   UNL     1     -10.855  11.600  65.818  1.00  0.00    -0.334 A  
ENDBRANCH  12  13
ENDBRANCH   2  12
TORSDOF 2
ENDMDL
MODEL       70
REMARK 921   NORMALIZED FREE ENERGY PREDICTED BY IDOCK:   -4.10 KCAL/MOL
REMARK 922        TOTAL FREE ENERGY PREDICTED BY IDOCK:   -4.81 KCAL/MOL
REMARK 923 INTER-LIGAND FREE ENERGY PREDICTED BY IDOCK:   -4.48 KCAL/MOL
REMARK 924 INTRA-LIGAND FREE ENERGY PREDICTED BY IDOCK:   -0.34 KCAL/MOL
REMARK 927      BINDING AFFINITY PREDICTED BY RF-SCORE:    0.00 PKD
ROOT
HETATM    1  O   UNL     1     -10.895  13.481  68.324  1.00  0.00    -0.243 OA 
HETATM    2  C   UNL     1     -10.601  12.887  67.012  1.00  0.00    -0.252 C  
HETATM    3  H   UNL     1     -11.692  13.081  68.649  1.00  0.00     0.000 HD 
HETATM    4  P   UNL     1     -12.056  13.215  65.952  1.00  0.00    -0.411 P  
HETATM    5  O   UNL     1      -9.745  11.322  68.683  1.00  0.00    -0.196 OA 
HETATM    6  P   UNL     1     -10.345  11.081  67.156  1.00  0.00    -0.243 P  
HETATM    7  O   UNL     1     -11.125  12.944  64.626  1.00  0.00    -0.298 OA 
HETATM    8  O   UNL     1     -11.723  14.827  66.120  1.00  0.00    -0.342 OA 
HETATM    9  O   UNL     1     -11.905  11.036  67.698  1.00  0.00    -0.599 OA 
HETATM   10  O   UNL     1     -10.130   9.553  67.278  1.00  0.00    -0.187 OA 
HETATM   11  O   UNL     1     -13.288  13.492  65.056  1.00  0.00    -0.596 OA 
ENDROOT
BRANCH   2  12
HETATM   12  C   UNL     1      -9.284  13.546  66.475  1.00  0.00    -0.187 C  
BRANCH  12  13
HETATM   13  C   UNL     1      -8.472  14.415  67.412  1.00  0.00    -0.216 A  
HETATM   14  C   UNL     1      -8.630  15.789  67.424  1.00  0.00    -0.175 A  
HETATM   15  N   UNL     1      -7.851  16.640  68.138  1.00  0.00    -0.170 NA 
HETATM   16  C   UNL     1      -6.862  16.083  68.870  1.00  0.00    -0.143 A  
HETATM   17  C   UNL     1      -6.627  14.730  68.943  1.00  0.00    -0.091 A  
HETATM   18  C   UNL     1      -7.443  13.870  68.204  1.00  0.00    -0.126 A  
ENDBRANCH  12  13
ENDBRANCH   2  12
TORSDOF 2
ENDMDL
MODEL       71
REMARK 921   NORMALIZED FREE ENERGY PREDICTED BY IDOCK:   -4.05 KCAL/MOL
REMARK 922        TOTAL FREE ENERGY PREDICTED BY IDOCK:   -4.76 KCAL/MOL
REMARK 923 INTER-LIGAND FREE ENERGY PREDICTED BY IDOCK:   -4.54 KCAL/MOL
REMARK 924 INTRA-LIGAND FREE ENERGY PREDICTED BY IDOCK:   -0.22 KCAL/MOL
REMARK 927      BINDING AFFINITY PREDICTED BY RF-SCORE:    0.00 PKD
ROOT
HETATM    1  O   UNL     1     -10.027   8.663  72.374  1.00  0.00    -0.302 OA 
HETATM    2  C   UNL     1     -10.187   7.928  71.112  1.00  0.00    -0.195 C  
HETATM    3  H   UNL     1      -9.299   8.275  72.844  1.00  0.00     0.000 HD 
HETATM    4  P   UNL     1     -10.471   6.177  71.560  1.00  0.00    -0.237 P  
HETATM    5  O   UNL     1      -8.406   9.559  70.737  1.00  0.00    -0.243 OA 
HETATM    6  P   UNL     1      -8.678   8.058  70.085  1.00  0.00    -0.136 P  
HETATM    7  O   UNL     1     -11.109   5.921  70.068  1.00  0.00    -0.359 OA 
HETATM    8  O   UNL     1     -11.864   6.669  72.305  1.00  0.00    -0.291 OA 
HETATM    9  O   UNL     1      -7.918   7.296  71.338  1.00  0.00    -0.096 OA 
HETATM   10  O   UNL     1      -7.401   8.168  69.217  1.00  0.00    -0.073 OA 
HETATM   11  O   UNL     1     -10.710   4.694  71.939  1.00  0.00    -0.098 OA 
ENDROOT
BRANCH   2  12
HETATM   12  C   UNL     1     -11.388   8.570  70.336  1.00  0.00    -0.193 C  
BRANCH  12  13
HETATM   13  C   UNL     1     -11.821   9.974  70.700  1.00  0.00    -0.411 A  
HETATM   14  C   UNL     1     -12.725  10.197  71.724  1.00  0.00    -0.434 A  
HETATM   15  N   UNL     1     -13.257  11.408  72.022  1.00  0.00    -0.455 NA 
HETATM   16  C   UNL     1     -12.867  12.445  71.249  1.00  0.00    -0.240 A  
HETATM   17  C   UNL     1     -11.963  12.339  70.218  1.00  0.00    -0.373 A  
HETATM   18  C   UNL     1     -11.423  11.084  69.930  1.00  0.00    -0.400 A  
ENDBRANCH  12  13
ENDBRANCH   2  12
TORSDOF 2
ENDMDL
MODEL       72
REMARK 921   NORMALIZED FREE ENERGY PREDICTED BY IDOCK:   -4.05 KCAL/MOL
REMARK 922        TOTAL FREE ENERGY PREDICTED BY IDOCK:   -4.76 KCAL/MOL
REMARK 923 INTER-LIGAND FREE ENERGY PREDICTED BY IDOCK:   -4.52 KCAL/MOL
REMARK 924 INTRA-LIGAND FREE ENERGY PREDICTED BY IDOCK:   -0.24 KCAL/MOL
REMARK 927      BINDING AFFINITY PREDICTED BY RF-SCORE:    0.00 PKD
ROOT
HETATM    1  O   UNL     1      -8.283  11.677  65.751  1.00  0.00    -0.371 OA 
HETATM    2  C   UNL     1      -8.912  10.652  66.597  1.00  0.00    -0.150 C  
HETATM    3  H   UNL     1      -7.352  11.490  65.715  1.00  0.00     0.000 HD 
HETATM    4  P   UNL     1      -8.093  10.748  68.230  1.00  0.00    -0.134 P  
HETATM    5  O   UNL     1      -8.674   9.661  64.375  1.00  0.00    -0.178 OA 
HETATM    6  P   UNL     1      -8.667   8.983  65.889  1.00  0.00    -0.189 P  
HETATM    7  O   UNL     1      -9.372   9.959  68.894  1.00  0.00    -0.156 OA 
HETATM    8  O   UNL     1      -8.699  12.282  68.362  1.00  0.00    -0.182 OA 
HETATM    9  O   UNL     1      -7.055   9.275  66.092  1.00  0.00    -0.088 OA 
HETATM   10  O   UNL     1      -8.460   7.570  65.290  1.00  0.00    -0.132 OA 
HETATM   11  O   UNL     1      -7.399  10.829  69.612  1.00  0.00    -0.145 OA 
ENDROOT
BRANCH   2  12
HETATM   12  C   UNL     1     -10.447  10.960  66.656  1.00  0.00    -0.307 C  
BRANCH  12  13
HETATM   13  C   UNL     1     -10.996  12.088  65.807  1.00  0.00    -0.351 A  
HETATM   14  C   UNL     1     -11.420  13.271  66.384  1.00  0.00    -0.329 A  
HETATM   15  N   UNL     1     -12.040  14.270  65.707  1.00  0.00    -0.407 NA 
HETATM   16  C   UNL     1     -12.248  14.067  64.388  1.00  0.00    -0.426 A  
HETATM   17  C   UNL     1     -11.852  12.937  63.712  1.00  0.00    -0.571 A  
HETATM   18  C   UNL     1     -11.212  11.922  64.425  1.00  0.00    -0.401 A  
ENDBRANCH  12  13
ENDBRANCH   2  12
TORSDOF 2
ENDMDL
MODEL       73
REMARK 921   NORMALIZED FREE ENERGY PREDICTED BY IDOCK:   -3.99 KCAL/MOL
REMARK 922        TOTAL FREE ENERGY PREDICTED BY IDOCK:   -4.69 KCAL/MOL
REMARK 923 INTER-LIGAND FREE ENERGY PREDICTED BY IDOCK:   -4.91 KCAL/MOL
REMARK 924 INTRA-LIGAND FREE ENERGY PREDICTED BY IDOCK:    0.22 KCAL/MOL
REMARK 927      BINDING AFFINITY PREDICTED BY RF-SCORE:    0.00 PKD
ROOT
HETATM    1  O   UNL     1     -12.104  15.584  68.130  1.00  0.00    -0.443 OA 
HETATM    2  C   UNL     1     -11.251  15.072  69.211  1.00  0.00    -0.286 C  
HETATM    3  H   UNL     1     -12.136  16.530  68.211  1.00  0.00     0.000 HD 
HETATM    4  P   UNL     1     -12.001  15.635  70.781  1.00  0.00    -0.431 P  
HETATM    5  O   UNL     1      -9.743  15.791  67.426  1.00  0.00    -0.221 OA 
HETATM    6  P   UNL     1      -9.552  15.739  69.073  1.00  0.00    -0.274 P  
HETATM    7  O   UNL     1     -11.163  14.467  71.577  1.00  0.00     0.083 OA 
HETATM    8  O   UNL     1     -13.324  14.719  70.392  1.00  0.00    -0.180 OA 
HETATM    9  O   UNL     1     -10.258  17.218  69.275  1.00  0.00    -0.296 OA 
HETATM   10  O   UNL     1      -8.115  16.304  68.956  1.00  0.00    -0.224 OA 
HETATM   11  O   UNL     1     -12.637  16.113  72.110  1.00  0.00    -0.450 OA 
ENDROOT
BRANCH   2  12
HETATM   12  C   UNL     1     -11.197  13.511  69.076  1.00  0.00    -0.314 C  
BRANCH  12  13
HETATM   13  C   UNL     1     -11.070  12.905  67.695  1.00  0.00    -0.297 A  
HETATM   14  C   UNL     1      -9.921  12.236  67.314  1.00  0.00    -0.204 A  
HETATM   15  N   UNL     1      -9.682  11.782  66.059  1.00  0.00    -0.227 NA 
HETATM   16  C   UNL     1     -10.644  12.016  65.140  1.00  0.00    -0.288 A  
HETATM   17  C   UNL     1     -11.831  12.655  65.413  1.00  0.00    -0.473 A  
HETATM   18  C   UNL     1     -12.058  13.111  66.713  1.00  0.00    -0.389 A  
ENDBRANCH  12  13
ENDBRANCH   2  12
TORSDOF 2
ENDMDL
MODEL       74
REMARK 921   NORMALIZED FREE ENERGY PREDICTED BY IDOCK:   -3.96 KCAL/MOL
REMARK 922        TOTAL FREE ENERGY PREDICTED BY IDOCK:   -4.65 KCAL/MOL
REMARK 923 INTER-LIGAND FREE ENERGY PREDICTED BY IDOCK:   -4.43 KCAL/MOL
REMARK 924 INTRA-LIGAND FREE ENERGY PREDICTED BY IDOCK:   -0.22 KCAL/MOL
REMARK 927      BINDING AFFINITY PREDICTED BY RF-SCORE:    0.00 PKD
ROOT
HETATM    1  O   UNL     1      -9.265  10.789  69.424  1.00  0.00    -0.385 OA 
HETATM    2  C   UNL     1     -10.123   9.657  69.048  1.00  0.00    -0.186 C  
HETATM    3  H   UNL     1      -8.367  10.482  69.426  1.00  0.00     0.000 HD 
HETATM    4  P   UNL     1      -9.816   8.337  70.278  1.00  0.00    -0.188 P  
HETATM    5  O   UNL     1      -9.259  10.588  66.960  1.00  0.00    -0.149 OA 
HETATM    6  P   UNL     1      -9.700   9.044  67.377  1.00  0.00    -0.195 P  
HETATM    7  O   UNL     1     -11.240   7.638  69.853  1.00  0.00    -0.204 OA 
HETATM    8  O   UNL     1     -10.418   9.367  71.425  1.00  0.00    -0.333 OA 
HETATM    9  O   UNL     1      -8.214   8.714  68.017  1.00  0.00    -0.114 OA 
HETATM   10  O   UNL     1      -9.341   8.526  65.963  1.00  0.00    -0.212 OA 
HETATM   11  O   UNL     1      -9.554   7.220  71.318  1.00  0.00    -0.163 OA 
ENDROOT
BRANCH   2  12
HETATM   12  C   UNL     1     -11.607  10.163  69.044  1.00  0.00    -0.076 C  
BRANCH  12  13
HETATM   13  C   UNL     1     -11.867  11.651  69.154  1.00  0.00    -0.390 A  
HETATM   14  C   UNL     1     -11.779  12.472  68.044  1.00  0.00    -0.355 A  
HETATM   15  N   UNL     1     -11.869  13.825  68.086  1.00  0.00    -0.362 NA 
HETATM   16  C   UNL     1     -12.051  14.379  69.304  1.00  0.00    -0.299 A  
HETATM   17  C   UNL     1     -12.169  13.657  70.469  1.00  0.00    -0.438 A  
HETATM   18  C   UNL     1     -12.077  12.266  70.403  1.00  0.00    -0.385 A  
ENDBRANCH  12  13
ENDBRANCH   2  12
TORSDOF 2
ENDMDL
MODEL       75
REMARK 921   NORMALIZED FREE ENERGY PREDICTED BY IDOCK:   -3.95 KCAL/MOL
REMARK 922        TOTAL FREE ENERGY PREDICTED BY IDOCK:   -4.65 KCAL/MOL
REMARK 923 INTER-LIGAND FREE ENERGY PREDICTED BY IDOCK:   -4.33 KCAL/MOL
REMARK 924 INTRA-LIGAND FREE ENERGY PREDICTED BY IDOCK:   -0.33 KCAL/MOL
REMARK 927      BINDING AFFINITY PREDICTED BY RF-SCORE:    0.00 PKD
ROOT
HETATM    1  O   UNL     1      -9.173  10.658  69.602  1.00  0.00    -0.408 OA 
HETATM    2  C   UNL     1      -9.875  10.169  68.406  1.00  0.00    -0.151 C  
HETATM    3  H   UNL     1      -8.720  11.458  69.365  1.00  0.00     0.000 HD 
HETATM    4  P   UNL     1      -8.600   9.921  67.118  1.00  0.00    -0.124 P  
HETATM    5  O   UNL     1     -11.310  11.883  69.395  1.00  0.00    -0.259 OA 
HETATM    6  P   UNL     1     -11.101  11.396  67.824  1.00  0.00    -0.300 P  
HETATM    7  O   UNL     1      -9.638   8.936  66.311  1.00  0.00    -0.219 OA 
HETATM    8  O   UNL     1      -7.935   8.768  68.101  1.00  0.00    -0.104 OA 
HETATM    9  O   UNL     1      -9.804  12.396  67.610  1.00  0.00    -0.191 OA 
HETATM   10  O   UNL     1     -12.138  12.434  67.330  1.00  0.00    -0.505 OA 
HETATM   11  O   UNL     1      -7.521   9.712  66.027  1.00  0.00    -0.096 OA 
ENDROOT
BRANCH   2  12
HETATM   12  C   UNL     1     -10.622   8.849  68.799  1.00  0.00    -0.185 C  
BRANCH  12  13
HETATM   13  C   UNL     1     -10.767   8.504  70.266  1.00  0.00    -0.242 A  
HETATM   14  C   UNL     1      -9.900   7.617  70.877  1.00  0.00    -0.176 A  
HETATM   15  N   UNL     1     -10.044   7.161  72.146  1.00  0.00    -0.180 NA 
HETATM   16  C   UNL     1     -11.114   7.615  72.833  1.00  0.00    -0.393 A  
HETATM   17  C   UNL     1     -12.029   8.511  72.329  1.00  0.00    -0.454 A  
HETATM   18  C   UNL     1     -11.860   8.971  71.021  1.00  0.00    -0.339 A  
ENDBRANCH  12  13
ENDBRANCH   2  12
TORSDOF 2
ENDMDL
MODEL       76
REMARK 921   NORMALIZED FREE ENERGY PREDICTED BY IDOCK:   -3.95 KCAL/MOL
REMARK 922        TOTAL FREE ENERGY PREDICTED BY IDOCK:   -4.65 KCAL/MOL
REMARK 923 INTER-LIGAND FREE ENERGY PREDICTED BY IDOCK:   -4.98 KCAL/MOL
REMARK 924 INTRA-LIGAND FREE ENERGY PREDICTED BY IDOCK:    0.32 KCAL/MOL
REMARK 927      BINDING AFFINITY PREDICTED BY RF-SCORE:    0.00 PKD
ROOT
HETATM    1  O   UNL     1     -11.379  14.697  65.882  1.00  0.00    -0.334 OA 
HETATM    2  C   UNL     1     -10.599  15.184  67.028  1.00  0.00    -0.300 C  
HETATM    3  H   UNL     1     -10.783  14.244  65.298  1.00  0.00     0.000 HD 
HETATM    4  P   UNL     1      -9.294  16.271  66.348  1.00  0.00    -0.341 P  
HETATM    5  O   UNL     1     -11.109  12.838  67.490  1.00  0.00    -0.244 OA 
HETATM    6  P   UNL     1      -9.825  13.792  67.929  1.00  0.00    -0.245 P  
HETATM    7  O   UNL     1      -9.113  16.949  67.833  1.00  0.00    -0.226 OA 
HETATM    8  O   UNL     1     -10.504  17.262  65.808  1.00  0.00    -0.502 OA 
HETATM    9  O   UNL     1      -9.025  13.493  66.515  1.00  0.00    -0.170 OA 
HETATM   10  O   UNL     1      -9.169  12.614  68.691  1.00  0.00    -0.106 OA 
HETATM   11  O   UNL     1      -8.189  17.190  65.771  1.00  0.00    -0.515 OA 
ENDROOT
BRANCH   2  12
HETATM   12  C   UNL     1     -11.584  15.930  67.993  1.00  0.00    -0.168 C  
BRANCH  12  13
HETATM   13  C   UNL     1     -11.686  15.463  69.430  1.00  0.00    -0.369 A  
HETATM   14  C   UNL     1     -12.609  14.503  69.801  1.00  0.00    -0.120 A  
HETATM   15  N   UNL     1     -12.848  14.130  71.083  1.00  0.00    -0.343 NA 
HETATM   16  C   UNL     1     -12.128  14.757  72.039  1.00  0.00    -0.325 A  
HETATM   17  C   UNL     1     -11.174  15.713  71.780  1.00  0.00    -0.323 A  
HETATM   18  C   UNL     1     -10.940  16.080  70.453  1.00  0.00    -0.347 A  
ENDBRANCH  12  13
ENDBRANCH   2  12
TORSDOF 2
ENDMDL
MODEL       77
REMARK 921   NORMALIZED FREE ENERGY PREDICTED BY IDOCK:   -3.94 KCAL/MOL
REMARK 922        TOTAL FREE ENERGY PREDICTED BY IDOCK:   -4.64 KCAL/MOL
REMARK 923 INTER-LIGAND FREE ENERGY PREDICTED BY IDOCK:   -4.43 KCAL/MOL
REMARK 924 INTRA-LIGAND FREE ENERGY PREDICTED BY IDOCK:   -0.21 KCAL/MOL
REMARK 927      BINDING AFFINITY PREDICTED BY RF-SCORE:    0.00 PKD
ROOT
HETATM    1  O   UNL     1      -8.962  11.762  67.052  1.00  0.00    -0.174 OA 
HETATM    2  C   UNL     1      -9.802  10.686  66.507  1.00  0.00    -0.204 C  
HETATM    3  H   UNL     1      -8.102  11.685  66.656  1.00  0.00     0.000 HD 
HETATM    4  P   UNL     1      -8.961   9.112  66.910  1.00  0.00    -0.129 P  
HETATM    5  O   UNL     1      -9.835  12.487  64.856  1.00  0.00    -0.190 OA 
HETATM    6  P   UNL     1      -9.966  10.842  64.692  1.00  0.00    -0.356 P  
HETATM    7  O   UNL     1     -10.380   8.318  66.676  1.00  0.00    -0.308 OA 
HETATM    8  O   UNL     1      -9.187   9.484  68.507  1.00  0.00    -0.130 OA 
HETATM    9  O   UNL     1      -8.327  10.641  64.657  1.00  0.00    -0.149 OA 
HETATM   10  O   UNL     1     -10.105  10.974  63.155  1.00  0.00    -0.332 OA 
HETATM   11  O   UNL     1      -8.248   7.779  67.251  1.00  0.00    -0.116 OA 
ENDROOT
BRANCH   2  12
HETATM   12  C   UNL     1     -11.221  10.813  67.160  1.00  0.00    -0.222 C  
BRANCH  12  13
HETATM   13  C   UNL     1     -11.503  11.997  68.061  1.00  0.00    -0.392 A  
HETATM   14  C   UNL     1     -11.685  11.827  69.422  1.00  0.00    -0.341 A  
HETATM   15  N   UNL     1     -12.068  12.815  70.269  1.00  0.00    -0.342 NA 
HETATM   16  C   UNL     1     -12.283  14.030  69.721  1.00  0.00    -0.341 A  
HETATM   17  C   UNL     1     -12.117  14.313  68.385  1.00  0.00    -0.297 A  
HETATM   18  C   UNL     1     -11.718  13.283  67.531  1.00  0.00    -0.410 A  
ENDBRANCH  12  13
ENDBRANCH   2  12
TORSDOF 2
ENDMDL
MODEL       78
REMARK 921   NORMALIZED FREE ENERGY PREDICTED BY IDOCK:   -3.93 KCAL/MOL
REMARK 922        TOTAL FREE ENERGY PREDICTED BY IDOCK:   -4.63 KCAL/MOL
REMARK 923 INTER-LIGAND FREE ENERGY PREDICTED BY IDOCK:   -4.63 KCAL/MOL
REMARK 924 INTRA-LIGAND FREE ENERGY PREDICTED BY IDOCK:    0.00 KCAL/MOL
REMARK 927      BINDING AFFINITY PREDICTED BY RF-SCORE:    0.00 PKD
ROOT
HETATM    1  O   UNL     1     -11.700   7.936  69.811  1.00  0.00    -0.373 OA 
HETATM    2  C   UNL     1     -11.453   8.363  71.196  1.00  0.00    -0.274 C  
HETATM    3  H   UNL     1     -12.222   7.143  69.842  1.00  0.00     0.000 HD 
HETATM    4  P   UNL     1     -10.602   6.973  72.027  1.00  0.00    -0.219 P  
HETATM    5  O   UNL     1     -13.678   9.188  70.608  1.00  0.00     0.170 OA 
HETATM    6  P   UNL     1     -13.026   8.719  72.059  1.00  0.00    -0.436 P  
HETATM    7  O   UNL     1     -10.072   8.016  73.181  1.00  0.00    -0.307 OA 
HETATM    8  O   UNL     1      -9.358   7.192  70.957  1.00  0.00    -0.158 OA 
HETATM    9  O   UNL     1     -13.383   7.129  71.788  1.00  0.00    -0.353 OA 
HETATM   10  O   UNL     1     -14.358   9.019  72.790  1.00  0.00    -0.596 OA 
HETATM   11  O   UNL     1      -9.881   5.796  72.730  1.00  0.00    -0.159 OA 
ENDROOT
BRANCH   2  12
HETATM   12  C   UNL     1     -10.593   9.673  71.144  1.00  0.00    -0.327 C  
BRANCH  12  13
HETATM   13  C   UNL     1     -10.703  10.567  69.927  1.00  0.00    -0.301 A  
HETATM   14  C   UNL     1     -11.727  11.490  69.813  1.00  0.00    -0.353 A  
HETATM   15  N   UNL     1     -11.967  12.230  68.703  1.00  0.00    -0.286 NA 
HETATM   16  C   UNL     1     -11.140  12.030  67.654  1.00  0.00    -0.264 A  
HETATM   17  C   UNL     1     -10.082  11.151  67.665  1.00  0.00    -0.203 A  
HETATM   18  C   UNL     1      -9.850  10.401  68.819  1.00  0.00    -0.190 A  
ENDBRANCH  12  13
ENDBRANCH   2  12
TORSDOF 2
ENDMDL
MODEL       79
REMARK 921   NORMALIZED FREE ENERGY PREDICTED BY IDOCK:   -3.93 KCAL/MOL
REMARK 922        TOTAL FREE ENERGY PREDICTED BY IDOCK:   -4.62 KCAL/MOL
REMARK 923 INTER-LIGAND FREE ENERGY PREDICTED BY IDOCK:   -4.40 KCAL/MOL
REMARK 924 INTRA-LIGAND FREE ENERGY PREDICTED BY IDOCK:   -0.22 KCAL/MOL
REMARK 927      BINDING AFFINITY PREDICTED BY RF-SCORE:    0.00 PKD
ROOT
HETATM    1  O   UNL     1      -9.457  10.130  70.218  1.00  0.00    -0.389 OA 
HETATM    2  C   UNL     1      -9.886   8.730  70.087  1.00  0.00    -0.176 C  
HETATM    3  H   UNL     1      -8.925  10.197  71.001  1.00  0.00     0.000 HD 
HETATM    4  P   UNL     1     -10.801   8.319  71.616  1.00  0.00    -0.300 P  
HETATM    5  O   UNL     1      -7.625   8.847  69.163  1.00  0.00    -0.078 OA 
HETATM    6  P   UNL     1      -8.442   7.619  69.922  1.00  0.00    -0.138 P  
HETATM    7  O   UNL     1     -11.495   7.051  70.835  1.00  0.00    -0.277 OA 
HETATM    8  O   UNL     1     -11.906   9.470  71.177  1.00  0.00    -0.306 OA 
HETATM    9  O   UNL     1      -8.016   8.164  71.421  1.00  0.00    -0.090 OA 
HETATM   10  O   UNL     1      -7.220   6.678  69.783  1.00  0.00    -0.073 OA 
HETATM   11  O   UNL     1     -11.575   7.971  72.912  1.00  0.00    -0.397 OA 
ENDROOT
BRANCH   2  12
HETATM   12  C   UNL     1     -10.763   8.620  68.792  1.00  0.00    -0.098 C  
BRANCH  12  13
HETATM   13  C   UNL     1     -10.691   9.733  67.768  1.00  0.00    -0.329 A  
HETATM   14  C   UNL     1     -11.449  10.882  67.913  1.00  0.00    -0.266 A  
HETATM   15  N   UNL     1     -11.536  11.860  66.977  1.00  0.00    -0.532 NA 
HETATM   16  C   UNL     1     -10.833  11.672  65.840  1.00  0.00    -0.287 A  
HETATM   17  C   UNL     1     -10.036  10.577  65.600  1.00  0.00    -0.332 A  
HETATM   18  C   UNL     1      -9.956   9.584  66.577  1.00  0.00    -0.329 A  
ENDBRANCH  12  13
ENDBRANCH   2  12
TORSDOF 2
ENDMDL
MODEL       80
REMARK 921   NORMALIZED FREE ENERGY PREDICTED BY IDOCK:   -3.89 KCAL/MOL
REMARK 922        TOTAL FREE ENERGY PREDICTED BY IDOCK:   -4.59 KCAL/MOL
REMARK 923 INTER-LIGAND FREE ENERGY PREDICTED BY IDOCK:   -4.82 KCAL/MOL
REMARK 924 INTRA-LIGAND FREE ENERGY PREDICTED BY IDOCK:    0.24 KCAL/MOL
REMARK 927      BINDING AFFINITY PREDICTED BY RF-SCORE:    0.00 PKD
ROOT
HETATM    1  O   UNL     1      -8.197  17.051  68.357  1.00  0.00    -0.230 OA 
HETATM    2  C   UNL     1      -9.308  16.781  67.434  1.00  0.00    -0.233 C  
HETATM    3  H   UNL     1      -8.472  17.745  68.944  1.00  0.00     0.000 HD 
HETATM    4  P   UNL     1      -9.665  18.354  66.571  1.00  0.00    -0.337 P  
HETATM    5  O   UNL     1      -9.804  15.551  69.487  1.00  0.00    -0.255 OA 
HETATM    6  P   UNL     1     -10.796  16.234  68.346  1.00  0.00    -0.353 P  
HETATM    7  O   UNL     1     -10.436  17.508  65.392  1.00  0.00    -0.647 OA 
HETATM    8  O   UNL     1      -8.140  18.265  65.933  1.00  0.00    -0.504 OA 
HETATM    9  O   UNL     1     -10.734  17.715  69.074  1.00  0.00    -0.186 OA 
HETATM   10  O   UNL     1     -12.056  15.772  69.119  1.00  0.00    -0.353 OA 
HETATM   11  O   UNL     1      -9.967  19.687  65.841  1.00  0.00    -0.406 OA 
ENDROOT
BRANCH   2  12
HETATM   12  C   UNL     1      -8.854  15.634  66.466  1.00  0.00    -0.345 C  
BRANCH  12  13
HETATM   13  C   UNL     1      -8.319  14.349  67.062  1.00  0.00    -0.172 A  
HETATM   14  C   UNL     1      -9.076  13.191  67.051  1.00  0.00    -0.231 A  
HETATM   15  N   UNL     1      -8.720  12.042  67.677  1.00  0.00    -0.158 NA 
HETATM   16  C   UNL     1      -7.550  12.059  68.351  1.00  0.00    -0.128 A  
HETATM   17  C   UNL     1      -6.713  13.149  68.413  1.00  0.00    -0.095 A  
HETATM   18  C   UNL     1      -7.096  14.321  67.758  1.00  0.00    -0.190 A  
ENDBRANCH  12  13
ENDBRANCH   2  12
TORSDOF 2
ENDMDL
MODEL       81
REMARK 921   NORMALIZED FREE ENERGY PREDICTED BY IDOCK:   -3.89 KCAL/MOL
REMARK 922        TOTAL FREE ENERGY PREDICTED BY IDOCK:   -4.58 KCAL/MOL
REMARK 923 INTER-LIGAND FREE ENERGY PREDICTED BY IDOCK:   -4.32 KCAL/MOL
REMARK 924 INTRA-LIGAND FREE ENERGY PREDICTED BY IDOCK:   -0.26 KCAL/MOL
REMARK 927      BINDING AFFINITY PREDICTED BY RF-SCORE:    0.00 PKD
ROOT
HETATM    1  O   UNL     1     -10.844  14.906  68.025  1.00  0.00    -0.251 OA 
HETATM    2  C   UNL     1      -9.820  15.256  67.030  1.00  0.00    -0.229 C  
HETATM    3  H   UNL     1     -11.288  15.707  68.275  1.00  0.00     0.000 HD 
HETATM    4  P   UNL     1      -8.713  16.475  67.827  1.00  0.00    -0.200 P  
HETATM    5  O   UNL     1     -11.930  15.074  65.810  1.00  0.00    -0.137 OA 
HETATM    6  P   UNL     1     -10.582  16.003  65.544  1.00  0.00    -0.308 P  
HETATM    7  O   UNL     1      -7.563  16.133  66.705  1.00  0.00    -0.239 OA 
HETATM    8  O   UNL     1      -8.310  15.292  68.912  1.00  0.00    -0.167 OA 
HETATM    9  O   UNL     1     -11.106  17.187  66.569  1.00  0.00     0.112 OA 
HETATM   10  O   UNL     1     -11.227  16.636  64.287  1.00  0.00    -1.098 OA 
HETATM   11  O   UNL     1      -7.776  17.508  68.502  1.00  0.00    -0.252 OA 
ENDROOT
BRANCH   2  12
HETATM   12  C   UNL     1      -9.087  13.933  66.616  1.00  0.00    -0.209 C  
BRANCH  12  13
HETATM   13  C   UNL     1      -9.581  12.620  67.185  1.00  0.00    -0.207 A  
HETATM   14  C   UNL     1      -8.880  11.969  68.184  1.00  0.00    -0.182 A  
HETATM   15  N   UNL     1      -9.187  10.732  68.650  1.00  0.00    -0.177 NA 
HETATM   16  C   UNL     1     -10.247  10.119  68.080  1.00  0.00    -0.171 A  
HETATM   17  C   UNL     1     -11.023  10.682  67.094  1.00  0.00    -0.312 A  
HETATM   18  C   UNL     1     -10.692  11.956  66.631  1.00  0.00    -0.291 A  
ENDBRANCH  12  13
ENDBRANCH   2  12
TORSDOF 2
ENDMDL
MODEL       82
REMARK 921   NORMALIZED FREE ENERGY PREDICTED BY IDOCK:   -3.87 KCAL/MOL
REMARK 922        TOTAL FREE ENERGY PREDICTED BY IDOCK:   -4.56 KCAL/MOL
REMARK 923 INTER-LIGAND FREE ENERGY PREDICTED BY IDOCK:   -4.45 KCAL/MOL
REMARK 924 INTRA-LIGAND FREE ENERGY PREDICTED BY IDOCK:   -0.11 KCAL/MOL
REMARK 927      BINDING AFFINITY PREDICTED BY RF-SCORE:    0.00 PKD
ROOT
HETATM    1  O   UNL     1     -10.135  11.814  69.438  1.00  0.00    -0.407 OA 
HETATM    2  C   UNL     1      -9.713  11.400  68.093  1.00  0.00    -0.192 C  
HETATM    3  H   UNL     1     -10.316  12.746  69.409  1.00  0.00     0.000 HD 
HETATM    4  P   UNL     1      -8.244  12.407  67.673  1.00  0.00    -0.196 P  
HETATM    5  O   UNL     1     -12.156  11.447  68.063  1.00  0.00    -0.629 OA 
HETATM    6  P   UNL     1     -11.036  11.712  66.868  1.00  0.00    -0.287 P  
HETATM    7  O   UNL     1      -7.843  11.305  66.522  1.00  0.00    -0.153 OA 
HETATM    8  O   UNL     1      -7.472  11.678  68.943  1.00  0.00    -0.116 OA 
HETATM    9  O   UNL     1     -10.864  13.301  67.282  1.00  0.00    -0.260 OA 
HETATM   10  O   UNL     1     -12.156  11.976  65.832  1.00  0.00    -0.546 OA 
HETATM   11  O   UNL     1      -7.001  13.260  67.318  1.00  0.00    -0.138 OA 
ENDROOT
BRANCH   2  12
HETATM   12  C   UNL     1      -9.414   9.862  68.140  1.00  0.00    -0.149 C  
BRANCH  12  13
HETATM   13  C   UNL     1      -9.666   9.112  69.431  1.00  0.00    -0.170 A  
HETATM   14  C   UNL     1     -10.877   8.485  69.664  1.00  0.00    -0.151 A  
HETATM   15  N   UNL     1     -11.223   7.908  70.842  1.00  0.00    -0.267 NA 
HETATM   16  C   UNL     1     -10.309   7.969  71.835  1.00  0.00    -0.223 A  
HETATM   17  C   UNL     1      -9.071   8.552  71.706  1.00  0.00    -0.304 A  
HETATM   18  C   UNL     1      -8.733   9.137  70.484  1.00  0.00    -0.258 A  
ENDBRANCH  12  13
ENDBRANCH   2  12
TORSDOF 2
ENDMDL
MODEL       83
REMARK 921   NORMALIZED FREE ENERGY PREDICTED BY IDOCK:   -3.78 KCAL/MOL
REMARK 922        TOTAL FREE ENERGY PREDICTED BY IDOCK:   -4.46 KCAL/MOL
REMARK 923 INTER-LIGAND FREE ENERGY PREDICTED BY IDOCK:   -4.61 KCAL/MOL
REMARK 924 INTRA-LIGAND FREE ENERGY PREDICTED BY IDOCK:    0.16 KCAL/MOL
REMARK 927      BINDING AFFINITY PREDICTED BY RF-SCORE:    0.00 PKD
ROOT
HETATM    1  O   UNL     1      -9.417  14.271  65.948  1.00  0.00    -0.480 OA 
HETATM    2  C   UNL     1     -10.039  13.410  66.964  1.00  0.00    -0.247 C  
HETATM    3  H   UNL     1      -8.924  14.944  66.402  1.00  0.00     0.000 HD 
HETATM    4  P   UNL     1     -11.087  14.497  67.998  1.00  0.00    -0.303 P  
HETATM    5  O   UNL     1      -7.739  12.622  66.710  1.00  0.00     0.020 OA 
HETATM    6  P   UNL     1      -8.767  12.613  68.011  1.00  0.00    -0.192 P  
HETATM    7  O   UNL     1     -11.916  13.174  68.510  1.00  0.00    -0.337 OA 
HETATM    8  O   UNL     1     -11.985  14.798  66.641  1.00  0.00    -0.314 OA 
HETATM    9  O   UNL     1      -8.349  14.151  68.445  1.00  0.00    -0.152 OA 
HETATM   10  O   UNL     1      -7.691  11.940  68.897  1.00  0.00    -0.105 OA 
HETATM   11  O   UNL     1     -11.973  15.417  68.873  1.00  0.00    -0.336 OA 
ENDROOT
BRANCH   2  12
HETATM   12  C   UNL     1     -10.851  12.299  66.215  1.00  0.00    -0.313 C  
BRANCH  12  13
HETATM   13  C   UNL     1     -10.165  11.510  65.120  1.00  0.00    -0.322 A  
HETATM   14  C   UNL     1     -10.195  11.942  63.807  1.00  0.00    -0.413 A  
HETATM   15  N   UNL     1      -9.718  11.228  62.757  1.00  0.00    -0.305 NA 
HETATM   16  C   UNL     1      -9.189  10.018  63.041  1.00  0.00    -0.286 A  
HETATM   17  C   UNL     1      -9.094   9.499  64.311  1.00  0.00    -0.220 A  
HETATM   18  C   UNL     1      -9.587  10.252  65.378  1.00  0.00    -0.310 A  
ENDBRANCH  12  13
ENDBRANCH   2  12
TORSDOF 2
ENDMDL
MODEL       84
REMARK 921   NORMALIZED FREE ENERGY PREDICTED BY IDOCK:   -3.76 KCAL/MOL
REMARK 922        TOTAL FREE ENERGY PREDICTED BY IDOCK:   -4.44 KCAL/MOL
REMARK 923 INTER-LIGAND FREE ENERGY PREDICTED BY IDOCK:   -4.13 KCAL/MOL
REMARK 924 INTRA-LIGAND FREE ENERGY PREDICTED BY IDOCK:   -0.31 KCAL/MOL
REMARK 927      BINDING AFFINITY PREDICTED BY RF-SCORE:    0.00 PKD
ROOT
HETATM    1  O   UNL     1      -8.810   7.619  70.569  1.00  0.00    -0.146 OA 
HETATM    2  C   UNL     1      -9.988   7.837  69.719  1.00  0.00    -0.189 C  
HETATM    3  H   UNL     1      -8.228   8.361  70.453  1.00  0.00     0.000 HD 
HETATM    4  P   UNL     1      -9.371   8.008  68.005  1.00  0.00    -0.140 P  
HETATM    5  O   UNL     1     -10.372   9.115  71.767  1.00  0.00    -0.344 OA 
HETATM    6  P   UNL     1     -10.869   9.365  70.205  1.00  0.00    -0.271 P  
HETATM    7  O   UNL     1     -10.880   7.664  67.450  1.00  0.00    -0.258 OA 
HETATM    8  O   UNL     1      -8.829   6.448  68.123  1.00  0.00    -0.116 OA 
HETATM    9  O   UNL     1      -9.468  10.144  69.806  1.00  0.00    -0.220 OA 
HETATM   10  O   UNL     1     -11.614  10.659  70.615  1.00  0.00    -0.326 OA 
HETATM   11  O   UNL     1      -8.849   8.152  66.554  1.00  0.00    -0.133 OA 
ENDROOT
BRANCH   2  12
HETATM   12  C   UNL     1     -10.948   6.613  69.912  1.00  0.00    -0.373 C  
BRANCH  12  13
HETATM   13  C   UNL     1     -10.725   5.694  71.094  1.00  0.00    -0.310 A  
HETATM   14  C   UNL     1      -9.945   4.557  70.973  1.00  0.00    -0.187 A  
HETATM   15  N   UNL     1      -9.805   3.622  71.945  1.00  0.00    -0.168 NA 
HETATM   16  C   UNL     1     -10.486   3.836  73.091  1.00  0.00    -0.176 A  
HETATM   17  C   UNL     1     -11.275   4.938  73.323  1.00  0.00    -0.423 A  
HETATM   18  C   UNL     1     -11.403   5.891  72.312  1.00  0.00    -0.351 A  
ENDBRANCH  12  13
ENDBRANCH   2  12
TORSDOF 2
ENDMDL
MODEL       85
REMARK 921   NORMALIZED FREE ENERGY PREDICTED BY IDOCK:   -3.76 KCAL/MOL
REMARK 922        TOTAL FREE ENERGY PREDICTED BY IDOCK:   -4.44 KCAL/MOL
REMARK 923 INTER-LIGAND FREE ENERGY PREDICTED BY IDOCK:   -4.10 KCAL/MOL
REMARK 924 INTRA-LIGAND FREE ENERGY PREDICTED BY IDOCK:   -0.34 KCAL/MOL
REMARK 927      BINDING AFFINITY PREDICTED BY RF-SCORE:    0.00 PKD
ROOT
HETATM    1  O   UNL     1     -11.718   6.633  69.923  1.00  0.00    -0.577 OA 
HETATM    2  C   UNL     1     -10.438   7.355  69.957  1.00  0.00    -0.226 C  
HETATM    3  H   UNL     1     -12.223   6.976  69.196  1.00  0.00     0.000 HD 
HETATM    4  P   UNL     1     -10.844   9.129  70.135  1.00  0.00    -0.233 P  
HETATM    5  O   UNL     1     -10.190   5.591  68.282  1.00  0.00    -0.166 OA 
HETATM    6  P   UNL     1      -9.502   7.095  68.406  1.00  0.00    -0.138 P  
HETATM    7  O   UNL     1      -9.314   9.404  70.668  1.00  0.00    -0.248 OA 
HETATM    8  O   UNL     1     -11.514   8.754  71.601  1.00  0.00    -0.272 OA 
HETATM    9  O   UNL     1     -10.785   7.823  67.664  1.00  0.00    -0.225 OA 
HETATM   10  O   UNL     1      -8.710   6.877  67.094  1.00  0.00    -0.119 OA 
HETATM   11  O   UNL     1     -11.188  10.632  70.285  1.00  0.00    -0.298 OA 
ENDROOT
BRANCH   2  12
HETATM   12  C   UNL     1      -9.603   6.788  71.156  1.00  0.00    -0.177 C  
BRANCH  12  13
HETATM   13  C   UNL     1     -10.085   5.529  71.847  1.00  0.00    -0.239 A  
HETATM   14  C   UNL     1     -10.865   5.598  72.987  1.00  0.00    -0.271 A  
HETATM   15  N   UNL     1     -11.224   4.523  73.731  1.00  0.00    -0.255 NA 
HETATM   16  C   UNL     1     -10.773   3.321  73.312  1.00  0.00    -0.189 A  
HETATM   17  C   UNL     1     -10.007   3.137  72.185  1.00  0.00    -0.232 A  
HETATM   18  C   UNL     1      -9.651   4.256  71.430  1.00  0.00    -0.239 A  
ENDBRANCH  12  13
ENDBRANCH   2  12
TORSDOF 2
ENDMDL
MODEL       86
REMARK 921   NORMALIZED FREE ENERGY PREDICTED BY IDOCK:   -3.75 KCAL/MOL
REMARK 922        TOTAL FREE ENERGY PREDICTED BY IDOCK:   -4.43 KCAL/MOL
REMARK 923 INTER-LIGAND FREE ENERGY PREDICTED BY IDOCK:   -4.24 KCAL/MOL
REMARK 924 INTRA-LIGAND FREE ENERGY PREDICTED BY IDOCK:   -0.19 KCAL/MOL
REMARK 927      BINDING AFFINITY PREDICTED BY RF-SCORE:    0.00 PKD
ROOT
HETATM    1  O   UNL     1     -11.150   8.144  68.776  1.00  0.00    -0.417 OA 
HETATM    2  C   UNL     1     -10.134   8.333  69.822  1.00  0.00    -0.197 C  
HETATM    3  H   UNL     1     -11.496   7.265  68.865  1.00  0.00     0.000 HD 
HETATM    4  P   UNL     1      -8.874   7.032  69.567  1.00  0.00    -0.131 P  
HETATM    5  O   UNL     1     -12.299   8.741  70.882  1.00  0.00    -0.214 OA 
HETATM    6  P   UNL     1     -10.872   8.150  71.487  1.00  0.00    -0.267 P  
HETATM    7  O   UNL     1      -7.812   7.916  70.456  1.00  0.00    -0.091 OA 
HETATM    8  O   UNL     1      -8.556   7.730  68.101  1.00  0.00    -0.123 OA 
HETATM    9  O   UNL     1     -11.226   6.607  71.017  1.00  0.00    -0.268 OA 
HETATM   10  O   UNL     1     -11.496   7.995  72.895  1.00  0.00    -0.411 OA 
HETATM   11  O   UNL     1      -7.807   5.930  69.352  1.00  0.00    -0.091 OA 
ENDROOT
BRANCH   2  12
HETATM   12  C   UNL     1      -9.563   9.785  69.675  1.00  0.00    -0.239 C  
BRANCH  12  13
HETATM   13  C   UNL     1     -10.186  10.711  68.652  1.00  0.00    -0.196 A  
HETATM   14  C   UNL     1     -11.308  11.460  68.961  1.00  0.00    -0.280 A  
HETATM   15  N   UNL     1     -11.996  12.208  68.064  1.00  0.00    -0.492 NA 
HETATM   16  C   UNL     1     -11.538  12.200  66.793  1.00  0.00    -0.345 A  
HETATM   17  C   UNL     1     -10.425  11.506  66.381  1.00  0.00    -0.292 A  
HETATM   18  C   UNL     1      -9.728  10.745  67.321  1.00  0.00    -0.187 A  
ENDBRANCH  12  13
ENDBRANCH   2  12
TORSDOF 2
ENDMDL
MODEL       87
REMARK 921   NORMALIZED FREE ENERGY PREDICTED BY IDOCK:   -3.71 KCAL/MOL
REMARK 922        TOTAL FREE ENERGY PREDICTED BY IDOCK:   -4.39 KCAL/MOL
REMARK 923 INTER-LIGAND FREE ENERGY PREDICTED BY IDOCK:   -5.76 KCAL/MOL
REMARK 924 INTRA-LIGAND FREE ENERGY PREDICTED BY IDOCK:    1.37 KCAL/MOL
REMARK 927      BINDING AFFINITY PREDICTED BY RF-SCORE:    0.00 PKD
ROOT
HETATM    1  O   UNL     1      -9.376  13.482  65.550  1.00  0.00    -0.475 OA 
HETATM    2  C   UNL     1     -10.682  13.846  66.117  1.00  0.00    -0.283 C  
HETATM    3  H   UNL     1      -9.072  14.216  65.031  1.00  0.00     0.000 HD 
HETATM    4  P   UNL     1     -11.777  14.230  64.703  1.00  0.00    -0.423 P  
HETATM    5  O   UNL     1      -8.995  14.844  67.578  1.00  0.00    -0.174 OA 
HETATM    6  P   UNL     1     -10.538  15.318  67.195  1.00  0.00    -0.309 P  
HETATM    7  O   UNL     1     -13.080  14.008  65.678  1.00  0.00    -0.639 OA 
HETATM    8  O   UNL     1     -11.595  12.655  64.229  1.00  0.00    -0.330 OA 
HETATM    9  O   UNL     1     -10.036  16.104  65.832  1.00  0.00    -0.317 OA 
HETATM   10  O   UNL     1     -10.416  16.564  68.106  1.00  0.00    -0.285 OA 
HETATM   11  O   UNL     1     -12.703  14.556  63.505  1.00  0.00    -0.707 OA 
ENDROOT
BRANCH   2  12
HETATM   12  C   UNL     1     -11.184  12.634  66.976  1.00  0.00    -0.348 C  
BRANCH  12  13
HETATM   13  C   UNL     1     -11.531  12.869  68.431  1.00  0.00    -0.347 A  
HETATM   14  C   UNL     1     -11.304  11.891  69.382  1.00  0.00    -0.261 A  
HETATM   15  N   UNL     1     -11.706  11.976  70.675  1.00  0.00    -0.005 NA 
HETATM   16  C   UNL     1     -12.373  13.097  71.027  1.00  0.00    -0.265 A  
HETATM   17  C   UNL     1     -12.637  14.137  70.167  1.00  0.00    -0.325 A  
HETATM   18  C   UNL     1     -12.212  14.031  68.841  1.00  0.00    -0.261 A  
ENDBRANCH  12  13
ENDBRANCH   2  12
TORSDOF 2
ENDMDL
MODEL       88
REMARK 921   NORMALIZED FREE ENERGY PREDICTED BY IDOCK:   -3.67 KCAL/MOL
REMARK 922        TOTAL FREE ENERGY PREDICTED BY IDOCK:   -4.34 KCAL/MOL
REMARK 923 INTER-LIGAND FREE ENERGY PREDICTED BY IDOCK:   -4.05 KCAL/MOL
REMARK 924 INTRA-LIGAND FREE ENERGY PREDICTED BY IDOCK:   -0.29 KCAL/MOL
REMARK 927      BINDING AFFINITY PREDICTED BY RF-SCORE:    0.00 PKD
ROOT
HETATM    1  O   UNL     1     -10.425   9.204  71.810  1.00  0.00    -0.352 OA 
HETATM    2  C   UNL     1     -11.295   8.093  71.396  1.00  0.00    -0.259 C  
HETATM    3  H   UNL     1     -10.439   9.244  72.758  1.00  0.00     0.000 HD 
HETATM    4  P   UNL     1     -12.955   8.448  72.078  1.00  0.00    -0.332 P  
HETATM    5  O   UNL     1      -9.140   7.099  71.983  1.00  0.00    -0.131 OA 
HETATM    6  P   UNL     1     -10.686   6.504  72.068  1.00  0.00    -0.241 P  
HETATM    7  O   UNL     1     -13.603   7.403  70.988  1.00  0.00    -0.236 OA 
HETATM    8  O   UNL     1     -12.980   9.797  71.119  1.00  0.00    -0.350 OA 
HETATM    9  O   UNL     1     -10.944   7.182  73.551  1.00  0.00    -0.328 OA 
HETATM   10  O   UNL     1     -10.172   5.159  72.637  1.00  0.00    -0.174 OA 
HETATM   11  O   UNL     1     -14.360   8.749  72.656  1.00  0.00    -0.585 OA 
ENDROOT
BRANCH   2  12
HETATM   12  C   UNL     1     -11.271   8.027  69.830  1.00  0.00    -0.040 C  
BRANCH  12  13
HETATM   13  C   UNL     1     -10.347   8.961  69.077  1.00  0.00    -0.226 A  
HETATM   14  C   UNL     1     -10.805  10.170  68.586  1.00  0.00    -0.235 A  
HETATM   15  N   UNL     1     -10.077  10.997  67.795  1.00  0.00    -0.175 NA 
HETATM   16  C   UNL     1      -8.831  10.585  67.476  1.00  0.00    -0.131 A  
HETATM   17  C   UNL     1      -8.271   9.411  67.923  1.00  0.00    -0.115 A  
HETATM   18  C   UNL     1      -9.035   8.576  68.740  1.00  0.00    -0.139 A  
ENDBRANCH  12  13
ENDBRANCH   2  12
TORSDOF 2
ENDMDL
MODEL       89
REMARK 921   NORMALIZED FREE ENERGY PREDICTED BY IDOCK:   -3.62 KCAL/MOL
REMARK 922        TOTAL FREE ENERGY PREDICTED BY IDOCK:   -4.28 KCAL/MOL
REMARK 923 INTER-LIGAND FREE ENERGY PREDICTED BY IDOCK:   -4.64 KCAL/MOL
REMARK 924 INTRA-LIGAND FREE ENERGY PREDICTED BY IDOCK:    0.36 KCAL/MOL
REMARK 927      BINDING AFFINITY PREDICTED BY RF-SCORE:    0.00 PKD
ROOT
HETATM    1  O   UNL     1      -8.311   5.853  71.405  1.00  0.00    -0.124 OA 
HETATM    2  C   UNL     1      -9.758   5.985  71.629  1.00  0.00    -0.158 C  
HETATM    3  H   UNL     1      -8.169   5.068  70.890  1.00  0.00     0.000 HD 
HETATM    4  P   UNL     1     -10.297   4.457  72.479  1.00  0.00    -0.135 P  
HETATM    5  O   UNL     1      -9.319   6.903  69.406  1.00  0.00    -0.147 OA 
HETATM    6  P   UNL     1     -10.652   6.146  70.040  1.00  0.00    -0.323 P  
HETATM    7  O   UNL     1     -11.650   5.240  72.983  1.00  0.00    -0.313 OA 
HETATM    8  O   UNL     1      -9.315   4.898  73.736  1.00  0.00    -0.127 OA 
HETATM    9  O   UNL     1     -10.052   4.645  69.700  1.00  0.00    -0.233 OA 
HETATM   10  O   UNL     1     -11.408   6.282  68.696  1.00  0.00    -0.337 OA 
HETATM   11  O   UNL     1     -10.752   3.163  73.199  1.00  0.00    -0.167 OA 
ENDROOT
BRANCH   2  12
HETATM   12  C   UNL     1      -9.992   7.281  72.479  1.00  0.00    -0.213 C  
BRANCH  12  13
HETATM   13  C   UNL     1     -10.984   8.309  71.977  1.00  0.00    -0.374 A  
HETATM   14  C   UNL     1     -10.570   9.373  71.195  1.00  0.00    -0.333 A  
HETATM   15  N   UNL     1     -11.372  10.400  70.818  1.00  0.00    -0.331 NA 
HETATM   16  C   UNL     1     -12.650  10.358  71.253  1.00  0.00    -0.419 A  
HETATM   17  C   UNL     1     -13.170   9.341  72.019  1.00  0.00    -0.519 A  
HETATM   18  C   UNL     1     -12.329   8.291  72.393  1.00  0.00    -0.385 A  
ENDBRANCH  12  13
ENDBRANCH   2  12
TORSDOF 2
ENDMDL
MODEL       90
REMARK 921   NORMALIZED FREE ENERGY PREDICTED BY IDOCK:   -3.62 KCAL/MOL
REMARK 922        TOTAL FREE ENERGY PREDICTED BY IDOCK:   -4.28 KCAL/MOL
REMARK 923 INTER-LIGAND FREE ENERGY PREDICTED BY IDOCK:   -3.95 KCAL/MOL
REMARK 924 INTRA-LIGAND FREE ENERGY PREDICTED BY IDOCK:   -0.33 KCAL/MOL
REMARK 927      BINDING AFFINITY PREDICTED BY RF-SCORE:    0.00 PKD
ROOT
HETATM    1  O   UNL     1     -10.646   9.892  66.531  1.00  0.00    -0.176 OA 
HETATM    2  C   UNL     1      -9.231  10.258  66.691  1.00  0.00    -0.155 C  
HETATM    3  H   UNL     1     -10.755   9.009  66.862  1.00  0.00     0.000 HD 
HETATM    4  P   UNL     1      -8.262   9.015  65.763  1.00  0.00    -0.133 P  
HETATM    5  O   UNL     1     -10.294  10.650  68.857  1.00  0.00    -0.186 OA 
HETATM    6  P   UNL     1      -8.743  10.219  68.454  1.00  0.00    -0.140 P  
HETATM    7  O   UNL     1      -6.991  10.056  65.737  1.00  0.00    -0.099 OA 
HETATM    8  O   UNL     1      -9.011   9.562  64.392  1.00  0.00    -0.224 OA 
HETATM    9  O   UNL     1      -9.129   8.614  68.390  1.00  0.00    -0.138 OA 
HETATM   10  O   UNL     1      -8.331  10.186  69.946  1.00  0.00    -0.172 OA 
HETATM   11  O   UNL     1      -7.441   7.962  64.977  1.00  0.00    -0.078 OA 
ENDROOT
BRANCH   2  12
HETATM   12  C   UNL     1      -9.051  11.716  66.145  1.00  0.00    -0.209 C  
BRANCH  12  13
HETATM   13  C   UNL     1     -10.286  12.510  65.773  1.00  0.00    -0.288 A  
HETATM   14  C   UNL     1     -10.707  12.596  64.458  1.00  0.00    -0.341 A  
HETATM   15  N   UNL     1     -11.721  13.390  64.032  1.00  0.00    -0.417 NA 
HETATM   16  C   UNL     1     -12.339  14.137  64.973  1.00  0.00    -0.440 A  
HETATM   17  C   UNL     1     -12.013  14.116  66.309  1.00  0.00    -0.448 A  
HETATM   18  C   UNL     1     -10.968  13.289  66.727  1.00  0.00    -0.302 A  
ENDBRANCH  12  13
ENDBRANCH   2  12
TORSDOF 2
ENDMDL
MODEL       91
REMARK 921   NORMALIZED FREE ENERGY PREDICTED BY IDOCK:   -3.62 KCAL/MOL
REMARK 922        TOTAL FREE ENERGY PREDICTED BY IDOCK:   -4.28 KCAL/MOL
REMARK 923 INTER-LIGAND FREE ENERGY PREDICTED BY IDOCK:   -4.15 KCAL/MOL
REMARK 924 INTRA-LIGAND FREE ENERGY PREDICTED BY IDOCK:   -0.13 KCAL/MOL
REMARK 927      BINDING AFFINITY PREDICTED BY RF-SCORE:    0.00 PKD
ROOT
HETATM    1  O   UNL     1     -11.383   8.630  69.130  1.00  0.00    -0.371 OA 
HETATM    2  C   UNL     1     -10.816   9.240  70.341  1.00  0.00    -0.254 C  
HETATM    3  H   UNL     1     -12.057   8.019  69.403  1.00  0.00     0.000 HD 
HETATM    4  P   UNL     1     -10.172   7.868  71.364  1.00  0.00    -0.198 P  
HETATM    5  O   UNL     1     -12.865  10.477  69.841  1.00  0.00    -0.153 OA 
HETATM    6  P   UNL     1     -12.100  10.148  71.276  1.00  0.00    -0.369 P  
HETATM    7  O   UNL     1      -9.235   8.944  72.179  1.00  0.00    -0.364 OA 
HETATM    8  O   UNL     1      -9.109   7.549  70.136  1.00  0.00    -0.147 OA 
HETATM    9  O   UNL     1     -12.846   8.682  71.421  1.00  0.00    -0.314 OA 
HETATM   10  O   UNL     1     -13.188  10.916  72.067  1.00  0.00    -0.492 OA 
HETATM   11  O   UNL     1      -9.626   6.706  72.231  1.00  0.00    -0.148 OA 
ENDROOT
BRANCH   2  12
HETATM   12  C   UNL     1      -9.705  10.250  69.890  1.00  0.00    -0.119 C  
BRANCH  12  13
HETATM   13  C   UNL     1      -9.823  10.899  68.526  1.00  0.00    -0.188 A  
HETATM   14  C   UNL     1      -9.151  10.382  67.433  1.00  0.00    -0.135 A  
HETATM   15  N   UNL     1      -9.103  10.978  66.216  1.00  0.00    -0.176 NA 
HETATM   16  C   UNL     1      -9.757  12.153  66.093  1.00  0.00    -0.240 A  
HETATM   17  C   UNL     1     -10.469  12.747  67.109  1.00  0.00    -0.240 A  
HETATM   18  C   UNL     1     -10.509  12.115  68.353  1.00  0.00    -0.242 A  
ENDBRANCH  12  13
ENDBRANCH   2  12
TORSDOF 2
ENDMDL
MODEL       92
REMARK 921   NORMALIZED FREE ENERGY PREDICTED BY IDOCK:   -3.61 KCAL/MOL
REMARK 922        TOTAL FREE ENERGY PREDICTED BY IDOCK:   -4.27 KCAL/MOL
REMARK 923 INTER-LIGAND FREE ENERGY PREDICTED BY IDOCK:   -4.79 KCAL/MOL
REMARK 924 INTRA-LIGAND FREE ENERGY PREDICTED BY IDOCK:    0.52 KCAL/MOL
REMARK 927      BINDING AFFINITY PREDICTED BY RF-SCORE:    0.00 PKD
ROOT
HETATM    1  O   UNL     1     -12.757  14.325  67.419  1.00  0.00    -0.421 OA 
HETATM    2  C   UNL     1     -11.354  14.121  67.031  1.00  0.00    -0.332 C  
HETATM    3  H   UNL     1     -13.127  14.972  66.831  1.00  0.00     0.000 HD 
HETATM    4  P   UNL     1     -10.536  15.753  67.146  1.00  0.00    -0.307 P  
HETATM    5  O   UNL     1     -12.694  12.736  65.526  1.00  0.00    -0.595 OA 
HETATM    6  P   UNL     1     -11.236  13.500  65.314  1.00  0.00    -0.314 P  
HETATM    7  O   UNL     1      -9.079  14.995  67.208  1.00  0.00    -0.186 OA 
HETATM    8  O   UNL     1     -10.862  15.720  68.768  1.00  0.00    -0.246 OA 
HETATM    9  O   UNL     1     -11.960  14.922  64.889  1.00  0.00    -0.365 OA 
HETATM   10  O   UNL     1     -11.137  12.975  63.860  1.00  0.00    -0.400 OA 
HETATM   11  O   UNL     1      -9.844  17.135  67.243  1.00  0.00    -0.253 OA 
ENDROOT
BRANCH   2  12
HETATM   12  C   UNL     1     -10.742  13.053  68.001  1.00  0.00    -0.248 C  
BRANCH  12  13
HETATM   13  C   UNL     1     -10.125  11.802  67.410  1.00  0.00    -0.212 A  
HETATM   14  C   UNL     1     -10.603  10.548  67.744  1.00  0.00    -0.243 A  
HETATM   15  N   UNL     1     -10.024   9.384  67.360  1.00  0.00    -0.186 NA 
HETATM   16  C   UNL     1      -8.906   9.485  66.608  1.00  0.00    -0.135 A  
HETATM   17  C   UNL     1      -8.355  10.679  66.206  1.00  0.00    -0.155 A  
HETATM   18  C   UNL     1      -8.970  11.866  66.609  1.00  0.00    -0.198 A  
ENDBRANCH  12  13
ENDBRANCH   2  12
TORSDOF 2
ENDMDL
MODEL       93
REMARK 921   NORMALIZED FREE ENERGY PREDICTED BY IDOCK:   -3.60 KCAL/MOL
REMARK 922        TOTAL FREE ENERGY PREDICTED BY IDOCK:   -4.26 KCAL/MOL
REMARK 923 INTER-LIGAND FREE ENERGY PREDICTED BY IDOCK:   -4.08 KCAL/MOL
REMARK 924 INTRA-LIGAND FREE ENERGY PREDICTED BY IDOCK:   -0.18 KCAL/MOL
REMARK 927      BINDING AFFINITY PREDICTED BY RF-SCORE:    0.00 PKD
ROOT
HETATM    1  O   UNL     1     -11.051   7.812  69.936  1.00  0.00    -0.366 OA 
HETATM    2  C   UNL     1     -11.009   8.123  71.372  1.00  0.00    -0.237 C  
HETATM    3  H   UNL     1     -11.921   7.489  69.736  1.00  0.00     0.000 HD 
HETATM    4  P   UNL     1     -11.423   6.575  72.254  1.00  0.00    -0.261 P  
HETATM    5  O   UNL     1     -12.035  10.054  70.280  1.00  0.00    -0.249 OA 
HETATM    6  P   UNL     1     -12.235   9.413  71.796  1.00  0.00    -0.366 P  
HETATM    7  O   UNL     1     -10.739   7.192  73.615  1.00  0.00    -0.375 OA 
HETATM    8  O   UNL     1     -10.048   5.923  71.603  1.00  0.00    -0.182 OA 
HETATM    9  O   UNL     1     -13.364   8.329  71.269  1.00  0.00    -0.241 OA 
HETATM   10  O   UNL     1     -13.273  10.505  72.155  1.00  0.00    -0.458 OA 
HETATM   11  O   UNL     1     -11.774   5.264  73.001  1.00  0.00    -0.294 OA 
ENDROOT
BRANCH   2  12
HETATM   12  C   UNL     1      -9.573   8.657  71.702  1.00  0.00    -0.344 C  
BRANCH  12  13
HETATM   13  C   UNL     1      -8.611   8.910  70.560  1.00  0.00    -0.208 A  
HETATM   14  C   UNL     1      -8.736  10.032  69.761  1.00  0.00    -0.179 A  
HETATM   15  N   UNL     1      -7.999  10.260  68.646  1.00  0.00    -0.105 NA 
HETATM   16  C   UNL     1      -7.096   9.312  68.315  1.00  0.00    -0.076 A  
HETATM   17  C   UNL     1      -6.878   8.168  69.046  1.00  0.00    -0.060 A  
HETATM   18  C   UNL     1      -7.645   7.954  70.193  1.00  0.00    -0.083 A  
ENDBRANCH  12  13
ENDBRANCH   2  12
TORSDOF 2
ENDMDL
MODEL       94
REMARK 921   NORMALIZED FREE ENERGY PREDICTED BY IDOCK:   -3.60 KCAL/MOL
REMARK 922        TOTAL FREE ENERGY PREDICTED BY IDOCK:   -4.26 KCAL/MOL
REMARK 923 INTER-LIGAND FREE ENERGY PREDICTED BY IDOCK:   -4.03 KCAL/MOL
REMARK 924 INTRA-LIGAND FREE ENERGY PREDICTED BY IDOCK:   -0.23 KCAL/MOL
REMARK 927      BINDING AFFINITY PREDICTED BY RF-SCORE:    0.00 PKD
ROOT
HETATM    1  O   UNL     1      -8.662   7.032  69.056  1.00  0.00    -0.128 OA 
HETATM    2  C   UNL     1      -9.753   6.877  68.084  1.00  0.00    -0.131 C  
HETATM    3  H   UNL     1      -7.865   7.205  68.570  1.00  0.00     0.000 HD 
HETATM    4  P   UNL     1      -9.273   5.505  66.973  1.00  0.00    -0.124 P  
HETATM    5  O   UNL     1      -9.463   9.281  68.416  1.00  0.00    -0.138 OA 
HETATM    6  P   UNL     1      -9.975   8.406  67.104  1.00  0.00    -0.293 P  
HETATM    7  O   UNL     1     -10.846   5.341  66.529  1.00  0.00    -0.280 OA 
HETATM    8  O   UNL     1      -9.323   4.513  68.297  1.00  0.00    -0.125 OA 
HETATM    9  O   UNL     1      -8.429   8.141  66.585  1.00  0.00    -0.121 OA 
HETATM   10  O   UNL     1     -10.162   9.699  66.274  1.00  0.00    -0.260 OA 
HETATM   11  O   UNL     1      -8.866   4.343  66.033  1.00  0.00    -0.116 OA 
ENDROOT
BRANCH   2  12
HETATM   12  C   UNL     1     -11.069   6.591  68.886  1.00  0.00    -0.371 C  
BRANCH  12  13
HETATM   13  C   UNL     1     -11.068   6.808  70.385  1.00  0.00    -0.357 A  
HETATM   14  C   UNL     1     -11.308   8.059  70.922  1.00  0.00    -0.276 A  
HETATM   15  N   UNL     1     -11.196   8.357  72.241  1.00  0.00    -0.359 NA 
HETATM   16  C   UNL     1     -10.819   7.350  73.058  1.00  0.00    -0.375 A  
HETATM   17  C   UNL     1     -10.572   6.066  72.632  1.00  0.00    -0.251 A  
HETATM   18  C   UNL     1     -10.697   5.779  71.271  1.00  0.00    -0.323 A  
ENDBRANCH  12  13
ENDBRANCH   2  12
TORSDOF 2
ENDMDL
MODEL       95
REMARK 921   NORMALIZED FREE ENERGY PREDICTED BY IDOCK:   -3.57 KCAL/MOL
REMARK 922        TOTAL FREE ENERGY PREDICTED BY IDOCK:   -4.23 KCAL/MOL
REMARK 923 INTER-LIGAND FREE ENERGY PREDICTED BY IDOCK:   -4.70 KCAL/MOL
REMARK 924 INTRA-LIGAND FREE ENERGY PREDICTED BY IDOCK:    0.47 KCAL/MOL
REMARK 927      BINDING AFFINITY PREDICTED BY RF-SCORE:    0.00 PKD
ROOT
HETATM    1  O   UNL     1      -9.925  12.968  65.232  1.00  0.00    -0.419 OA 
HETATM    2  C   UNL     1     -10.295  12.938  66.654  1.00  0.00    -0.251 C  
HETATM    3  H   UNL     1      -9.233  13.610  65.128  1.00  0.00     0.000 HD 
HETATM    4  P   UNL     1     -10.816  14.635  67.095  1.00  0.00    -0.318 P  
HETATM    5  O   UNL     1      -8.313  11.525  66.429  1.00  0.00    -0.172 OA 
HETATM    6  P   UNL     1      -8.868  12.449  67.690  1.00  0.00    -0.200 P  
HETATM    7  O   UNL     1     -11.599  14.031  68.407  1.00  0.00    -0.290 OA 
HETATM    8  O   UNL     1     -12.053  14.459  66.010  1.00  0.00    -0.396 OA 
HETATM    9  O   UNL     1      -8.144  13.813  67.105  1.00  0.00    -0.157 OA 
HETATM   10  O   UNL     1      -7.660  12.036  68.566  1.00  0.00    -0.118 OA 
HETATM   11  O   UNL     1     -11.256  16.073  67.468  1.00  0.00    -0.261 OA 
ENDROOT
BRANCH   2  12
HETATM   12  C   UNL     1     -11.436  11.877  66.827  1.00  0.00    -0.384 C  
BRANCH  12  13
HETATM   13  C   UNL     1     -11.212  10.716  67.773  1.00  0.00    -0.383 A  
HETATM   14  C   UNL     1     -11.432  10.853  69.131  1.00  0.00    -0.303 A  
HETATM   15  N   UNL     1     -11.130   9.904  70.053  1.00  0.00    -0.268 NA 
HETATM   16  C   UNL     1     -10.577   8.764  69.586  1.00  0.00    -0.219 A  
HETATM   17  C   UNL     1     -10.331   8.517  68.256  1.00  0.00    -0.246 A  
HETATM   18  C   UNL     1     -10.652   9.505  67.323  1.00  0.00    -0.317 A  
ENDBRANCH  12  13
ENDBRANCH   2  12
TORSDOF 2
ENDMDL
MODEL       96
REMARK 921   NORMALIZED FREE ENERGY PREDICTED BY IDOCK:   -3.57 KCAL/MOL
REMARK 922        TOTAL FREE ENERGY PREDICTED BY IDOCK:   -4.23 KCAL/MOL
REMARK 923 INTER-LIGAND FREE ENERGY PREDICTED BY IDOCK:   -4.47 KCAL/MOL
REMARK 924 INTRA-LIGAND FREE ENERGY PREDICTED BY IDOCK:    0.24 KCAL/MOL
REMARK 927      BINDING AFFINITY PREDICTED BY RF-SCORE:    0.00 PKD
ROOT
HETATM    1  O   UNL     1     -10.198  13.283  68.807  1.00  0.00    -0.362 OA 
HETATM    2  C   UNL     1     -10.291  14.745  68.690  1.00  0.00    -0.245 C  
HETATM    3  H   UNL     1     -11.028  12.918  68.525  1.00  0.00     0.000 HD 
HETATM    4  P   UNL     1     -11.700  15.265  69.734  1.00  0.00    -0.372 P  
HETATM    5  O   UNL     1      -9.749  13.908  66.458  1.00  0.00    -0.277 OA 
HETATM    6  P   UNL     1     -10.600  15.242  66.957  1.00  0.00    -0.313 P  
HETATM    7  O   UNL     1     -11.094  16.792  69.755  1.00  0.00    -0.243 OA 
HETATM    8  O   UNL     1     -10.856  14.684  71.034  1.00  0.00     0.099 OA 
HETATM    9  O   UNL     1     -12.004  14.384  67.099  1.00  0.00    -0.405 OA 
HETATM   10  O   UNL     1     -10.862  15.662  65.490  1.00  0.00    -0.338 OA 
HETATM   11  O   UNL     1     -12.894  15.705  70.618  1.00  0.00    -0.463 OA 
ENDROOT
BRANCH   2  12
HETATM   12  C   UNL     1      -8.921  15.348  69.156  1.00  0.00    -0.245 C  
BRANCH  12  13
HETATM   13  C   UNL     1      -8.106  16.152  68.164  1.00  0.00    -0.149 A  
HETATM   14  C   UNL     1      -6.990  15.607  67.555  1.00  0.00    -0.189 A  
HETATM   15  N   UNL     1      -6.139  16.303  66.760  1.00  0.00    -0.288 NA 
HETATM   16  C   UNL     1      -6.421  17.611  66.573  1.00  0.00    -0.222 A  
HETATM   17  C   UNL     1      -7.512  18.248  67.117  1.00  0.00    -0.227 A  
HETATM   18  C   UNL     1      -8.377  17.513  67.929  1.00  0.00    -0.229 A  
ENDBRANCH  12  13
ENDBRANCH   2  12
TORSDOF 2
ENDMDL
MODEL       97
REMARK 921   NORMALIZED FREE ENERGY PREDICTED BY IDOCK:   -3.56 KCAL/MOL
REMARK 922        TOTAL FREE ENERGY PREDICTED BY IDOCK:   -4.22 KCAL/MOL
REMARK 923 INTER-LIGAND FREE ENERGY PREDICTED BY IDOCK:   -4.04 KCAL/MOL
REMARK 924 INTRA-LIGAND FREE ENERGY PREDICTED BY IDOCK:   -0.18 KCAL/MOL
REMARK 927      BINDING AFFINITY PREDICTED BY RF-SCORE:    0.00 PKD
ROOT
HETATM    1  O   UNL     1     -10.910   6.109  71.646  1.00  0.00    -0.239 OA 
HETATM    2  C   UNL     1     -10.341   7.462  71.587  1.00  0.00    -0.196 C  
HETATM    3  H   UNL     1     -11.429   6.049  72.439  1.00  0.00     0.000 HD 
HETATM    4  P   UNL     1      -9.354   7.682  73.111  1.00  0.00    -0.285 P  
HETATM    5  O   UNL     1     -12.621   7.636  70.723  1.00  0.00    -0.115 OA 
HETATM    6  P   UNL     1     -11.664   8.725  71.530  1.00  0.00    -0.359 P  
HETATM    7  O   UNL     1      -8.548   8.917  72.387  1.00  0.00    -0.399 OA 
HETATM    8  O   UNL     1      -8.385   6.453  72.573  1.00  0.00    -0.116 OA 
HETATM    9  O   UNL     1     -12.110   8.134  73.006  1.00  0.00    -0.242 OA 
HETATM   10  O   UNL     1     -12.784   9.793  71.482  1.00  0.00    -0.346 OA 
HETATM   11  O   UNL     1      -8.518   7.867  74.403  1.00  0.00    -0.233 OA 
ENDROOT
BRANCH   2  12
HETATM   12  C   UNL     1      -9.485   7.562  70.277  1.00  0.00    -0.165 C  
BRANCH  12  13
HETATM   13  C   UNL     1      -9.827   6.653  69.115  1.00  0.00    -0.155 A  
HETATM   14  C   UNL     1      -9.211   5.423  68.970  1.00  0.00    -0.120 A  
HETATM   15  N   UNL     1      -9.367   4.614  67.893  1.00  0.00    -0.127 NA 
HETATM   16  C   UNL     1     -10.177   5.066  66.911  1.00  0.00    -0.229 A  
HETATM   17  C   UNL     1     -10.850   6.264  66.960  1.00  0.00    -0.458 A  
HETATM   18  C   UNL     1     -10.679   7.080  68.079  1.00  0.00    -0.252 A  
ENDBRANCH  12  13
ENDBRANCH   2  12
TORSDOF 2
ENDMDL
MODEL       98
REMARK 921   NORMALIZED FREE ENERGY PREDICTED BY IDOCK:   -3.56 KCAL/MOL
REMARK 922        TOTAL FREE ENERGY PREDICTED BY IDOCK:   -4.21 KCAL/MOL
REMARK 923 INTER-LIGAND FREE ENERGY PREDICTED BY IDOCK:   -4.18 KCAL/MOL
REMARK 924 INTRA-LIGAND FREE ENERGY PREDICTED BY IDOCK:   -0.03 KCAL/MOL
REMARK 927      BINDING AFFINITY PREDICTED BY RF-SCORE:    0.00 PKD
ROOT
HETATM    1  O   UNL     1     -10.022   9.843  70.890  1.00  0.00    -0.328 OA 
HETATM    2  C   UNL     1     -11.158   9.850  69.958  1.00  0.00    -0.285 C  
HETATM    3  H   UNL     1     -10.174  10.522  71.535  1.00  0.00     0.000 HD 
HETATM    4  P   UNL     1     -11.231  11.528  69.235  1.00  0.00    -0.261 P  
HETATM    5  O   UNL     1     -11.872   8.554  71.904  1.00  0.00    -0.296 OA 
HETATM    6  P   UNL     1     -12.724   9.495  70.836  1.00  0.00    -0.013 P  
HETATM    7  O   UNL     1     -12.133  10.933  67.997  1.00  0.00    -0.563 OA 
HETATM    8  O   UNL     1      -9.743  11.230  68.576  1.00  0.00    -0.187 OA 
HETATM    9  O   UNL     1     -12.407  10.875  71.685  1.00  0.00    -0.284 OA 
HETATM   10  O   UNL     1     -14.048   9.195  71.579  1.00  0.00    -0.320 OA 
HETATM   11  O   UNL     1     -11.293  12.950  68.623  1.00  0.00    -0.249 OA 
ENDROOT
BRANCH   2  12
HETATM   12  C   UNL     1     -10.907   8.728  68.892  1.00  0.00    -0.040 C  
BRANCH  12  13
HETATM   13  C   UNL     1     -10.223   7.450  69.329  1.00  0.00    -0.199 A  
HETATM   14  C   UNL     1      -8.844   7.345  69.328  1.00  0.00    -0.136 A  
HETATM   15  N   UNL     1      -8.166   6.198  69.581  1.00  0.00    -0.115 NA 
HETATM   16  C   UNL     1      -8.911   5.101  69.841  1.00  0.00    -0.103 A  
HETATM   17  C   UNL     1     -10.286   5.097  69.884  1.00  0.00    -0.361 A  
HETATM   18  C   UNL     1     -10.964   6.290  69.625  1.00  0.00    -0.440 A  
ENDBRANCH  12  13
ENDBRANCH   2  12
TORSDOF 2
ENDMDL
MODEL       99
REMARK 921   NORMALIZED FREE ENERGY PREDICTED BY IDOCK:   -3.55 KCAL/MOL
REMARK 922        TOTAL FREE ENERGY PREDICTED BY IDOCK:   -4.20 KCAL/MOL
REMARK 923 INTER-LIGAND FREE ENERGY PREDICTED BY IDOCK:   -4.45 KCAL/MOL
REMARK 924 INTRA-LIGAND FREE ENERGY PREDICTED BY IDOCK:    0.25 KCAL/MOL
REMARK 927      BINDING AFFINITY PREDICTED BY RF-SCORE:    0.00 PKD
ROOT
HETATM    1  O   UNL     1     -11.255   9.026  68.142  1.00  0.00    -0.469 OA 
HETATM    2  C   UNL     1     -10.269  10.039  68.546  1.00  0.00    -0.175 C  
HETATM    3  H   UNL     1     -11.713   8.742  68.924  1.00  0.00     0.000 HD 
HETATM    4  P   UNL     1      -9.172   9.239  69.773  1.00  0.00    -0.211 P  
HETATM    5  O   UNL     1     -12.407  11.205  68.340  1.00  0.00    -0.556 OA 
HETATM    6  P   UNL     1     -11.092  11.482  69.312  1.00  0.00    -0.199 P  
HETATM    7  O   UNL     1      -8.045  10.402  69.492  1.00  0.00    -0.161 OA 
HETATM    8  O   UNL     1      -8.708   8.199  68.572  1.00  0.00    -0.133 OA 
HETATM    9  O   UNL     1     -11.618  10.411  70.453  1.00  0.00    -0.287 OA 
HETATM   10  O   UNL     1     -11.788  12.703  69.961  1.00  0.00    -0.329 OA 
HETATM   11  O   UNL     1      -8.244   8.562  70.812  1.00  0.00    -0.107 OA 
ENDROOT
BRANCH   2  12
HETATM   12  C   UNL     1      -9.513  10.509  67.255  1.00  0.00    -0.179 C  
BRANCH  12  13
HETATM   13  C   UNL     1      -9.758  11.912  66.741  1.00  0.00    -0.218 A  
HETATM   14  C   UNL     1     -10.594  12.138  65.662  1.00  0.00    -0.262 A  
HETATM   15  N   UNL     1     -10.760  13.344  65.066  1.00  0.00    -0.324 NA 
HETATM   16  C   UNL     1     -10.047  14.372  65.574  1.00  0.00    -0.356 A  
HETATM   17  C   UNL     1      -9.201  14.263  66.652  1.00  0.00    -0.276 A  
HETATM   18  C   UNL     1      -9.047  13.013  67.255  1.00  0.00    -0.209 A  
ENDBRANCH  12  13
ENDBRANCH   2  12
TORSDOF 2
ENDMDL
MODEL      100
REMARK 921   NORMALIZED FREE ENERGY PREDICTED BY IDOCK:   -3.52 KCAL/MOL
REMARK 922        TOTAL FREE ENERGY PREDICTED BY IDOCK:   -4.17 KCAL/MOL
REMARK 923 INTER-LIGAND FREE ENERGY PREDICTED BY IDOCK:   -4.44 KCAL/MOL
REMARK 924 INTRA-LIGAND FREE ENERGY PREDICTED BY IDOCK:    0.27 KCAL/MOL
REMARK 927      BINDING AFFINITY PREDICTED BY RF-SCORE:    0.00 PKD
ROOT
HETATM    1  O   UNL     1     -10.118  13.413  65.165  1.00  0.00    -0.437 OA 
HETATM    2  C   UNL     1      -9.923  12.806  66.490  1.00  0.00    -0.253 C  
HETATM    3  H   UNL     1     -10.949  13.103  64.826  1.00  0.00     0.000 HD 
HETATM    4  P   UNL     1      -9.971  10.993  66.247  1.00  0.00    -0.242 P  
HETATM    5  O   UNL     1     -11.371  14.746  66.828  1.00  0.00    -0.340 OA 
HETATM    6  P   UNL     1     -11.258  13.303  67.638  1.00  0.00    -0.313 P  
HETATM    7  O   UNL     1      -9.205  10.801  67.687  1.00  0.00    -0.146 OA 
HETATM    8  O   UNL     1      -8.619  11.157  65.307  1.00  0.00    -0.108 OA 
HETATM    9  O   UNL     1     -12.273  12.545  66.578  1.00  0.00    -0.569 OA 
HETATM   10  O   UNL     1     -12.388  13.723  68.609  1.00  0.00    -0.271 OA 
HETATM   11  O   UNL     1     -10.012   9.459  66.040  1.00  0.00    -0.293 OA 
ENDROOT
BRANCH   2  12
HETATM   12  C   UNL     1      -8.552  13.318  67.051  1.00  0.00    -0.169 C  
BRANCH  12  13
HETATM   13  C   UNL     1      -8.439  14.764  67.485  1.00  0.00    -0.204 A  
HETATM   14  C   UNL     1      -8.378  15.784  66.552  1.00  0.00    -0.278 A  
HETATM   15  N   UNL     1      -8.146  17.085  66.858  1.00  0.00    -0.201 NA 
HETATM   16  C   UNL     1      -7.962  17.374  68.164  1.00  0.00    -0.233 A  
HETATM   17  C   UNL     1      -8.019  16.443  69.174  1.00  0.00    -0.204 A  
HETATM   18  C   UNL     1      -8.262  15.109  68.838  1.00  0.00    -0.181 A  
ENDBRANCH  12  13
ENDBRANCH   2  12
TORSDOF 2
ENDMDL
MODEL      101
REMARK 921   NORMALIZED FREE ENERGY PREDICTED BY IDOCK:   -3.52 KCAL/MOL
REMARK 922        TOTAL FREE ENERGY PREDICTED BY IDOCK:   -4.17 KCAL/MOL
REMARK 923 INTER-LIGAND FREE ENERGY PREDICTED BY IDOCK:   -4.66 KCAL/MOL
REMARK 924 INTRA-LIGAND FREE ENERGY PREDICTED BY IDOCK:    0.49 KCAL/MOL
REMARK 927      BINDING AFFINITY PREDICTED BY RF-SCORE:    0.00 PKD
ROOT
HETATM    1  O   UNL     1     -11.348  14.895  66.841  1.00  0.00    -0.345 OA 
HETATM    2  C   UNL     1     -10.157  15.428  67.518  1.00  0.00    -0.233 C  
HETATM    3  H   UNL     1     -12.009  15.576  66.842  1.00  0.00     0.000 HD 
HETATM    4  P   UNL     1     -10.687  15.917  69.200  1.00  0.00    -0.312 P  
HETATM    5  O   UNL     1     -10.059  16.238  65.214  1.00  0.00    -0.528 OA 
HETATM    6  P   UNL     1      -9.504  16.890  66.635  1.00  0.00    -0.295 P  
HETATM    7  O   UNL     1      -9.117  15.875  69.684  1.00  0.00    -0.226 OA 
HETATM    8  O   UNL     1     -11.036  14.323  69.474  1.00  0.00    -0.245 OA 
HETATM    9  O   UNL     1     -10.965  17.583  66.972  1.00  0.00    -0.126 OA 
HETATM   10  O   UNL     1      -8.952  18.129  65.887  1.00  0.00    -0.503 OA 
HETATM   11  O   UNL     1     -11.136  16.331  70.623  1.00  0.00    -0.341 OA 
ENDROOT
BRANCH   2  12
HETATM   12  C   UNL     1      -9.065  14.303  67.517  1.00  0.00    -0.193 C  
BRANCH  12  13
HETATM   13  C   UNL     1      -9.491  12.877  67.238  1.00  0.00    -0.216 A  
HETATM   14  C   UNL     1     -10.019  12.520  66.010  1.00  0.00    -0.257 A  
HETATM   15  N   UNL     1     -10.541  11.300  65.729  1.00  0.00    -0.260 NA 
HETATM   16  C   UNL     1     -10.536  10.396  66.733  1.00  0.00    -0.205 A  
HETATM   17  C   UNL     1     -10.022  10.640  67.985  1.00  0.00    -0.180 A  
HETATM   18  C   UNL     1      -9.486  11.901  68.252  1.00  0.00    -0.197 A  
ENDBRANCH  12  13
ENDBRANCH   2  12
TORSDOF 2
ENDMDL
MODEL      102
REMARK 921   NORMALIZED FREE ENERGY PREDICTED BY IDOCK:   -3.50 KCAL/MOL
REMARK 922        TOTAL FREE ENERGY PREDICTED BY IDOCK:   -4.15 KCAL/MOL
REMARK 923 INTER-LIGAND FREE ENERGY PREDICTED BY IDOCK:   -4.42 KCAL/MOL
REMARK 924 INTRA-LIGAND FREE ENERGY PREDICTED BY IDOCK:    0.27 KCAL/MOL
REMARK 927      BINDING AFFINITY PREDICTED BY RF-SCORE:    0.00 PKD
ROOT
HETATM    1  O   UNL     1     -10.054  13.383  69.055  1.00  0.00    -0.426 OA 
HETATM    2  C   UNL     1      -9.645  13.760  67.694  1.00  0.00    -0.219 C  
HETATM    3  H   UNL     1      -9.860  12.461  69.170  1.00  0.00     0.000 HD 
HETATM    4  P   UNL     1     -10.576  12.678  66.550  1.00  0.00    -0.263 P  
HETATM    5  O   UNL     1      -7.623  13.830  69.066  1.00  0.00    -0.085 OA 
HETATM    6  P   UNL     1      -7.850  13.496  67.457  1.00  0.00    -0.135 P  
HETATM    7  O   UNL     1     -10.282  13.745  65.336  1.00  0.00    -0.317 OA 
HETATM    8  O   UNL     1     -11.958  13.386  67.123  1.00  0.00    -0.375 OA 
HETATM    9  O   UNL     1      -8.177  11.906  67.758  1.00  0.00    -0.132 OA 
HETATM   10  O   UNL     1      -6.331  13.273  67.257  1.00  0.00    -0.284 OA 
HETATM   11  O   UNL     1     -11.365  11.762  65.581  1.00  0.00    -0.307 OA 
ENDROOT
BRANCH   2  12
HETATM   12  C   UNL     1      -9.965  15.282  67.504  1.00  0.00    -0.226 C  
BRANCH  12  13
HETATM   13  C   UNL     1      -8.815  16.266  67.448  1.00  0.00    -0.198 A  
HETATM   14  C   UNL     1      -8.400  16.939  68.582  1.00  0.00    -0.261 A  
HETATM   15  N   UNL     1      -7.468  17.925  68.585  1.00  0.00    -0.273 NA 
HETATM   16  C   UNL     1      -6.933  18.254  67.390  1.00  0.00    -0.198 A  
HETATM   17  C   UNL     1      -7.261  17.638  66.205  1.00  0.00    -0.352 A  
HETATM   18  C   UNL     1      -8.219  16.622  66.224  1.00  0.00    -0.365 A  
ENDBRANCH  12  13
ENDBRANCH   2  12
TORSDOF 2
ENDMDL
MODEL      103
REMARK 921   NORMALIZED FREE ENERGY PREDICTED BY IDOCK:   -3.50 KCAL/MOL
REMARK 922        TOTAL FREE ENERGY PREDICTED BY IDOCK:   -4.14 KCAL/MOL
REMARK 923 INTER-LIGAND FREE ENERGY PREDICTED BY IDOCK:   -3.96 KCAL/MOL
REMARK 924 INTRA-LIGAND FREE ENERGY PREDICTED BY IDOCK:   -0.18 KCAL/MOL
REMARK 927      BINDING AFFINITY PREDICTED BY RF-SCORE:    0.00 PKD
ROOT
HETATM    1  O   UNL     1      -8.358  12.557  66.259  1.00  0.00    -0.389 OA 
HETATM    2  C   UNL     1      -8.338  12.909  67.685  1.00  0.00    -0.176 C  
HETATM    3  H   UNL     1      -7.543  12.112  66.060  1.00  0.00     0.000 HD 
HETATM    4  P   UNL     1      -6.862  13.959  67.944  1.00  0.00    -0.182 P  
HETATM    5  O   UNL     1      -9.046  10.573  67.564  1.00  0.00    -0.138 OA 
HETATM    6  P   UNL     1      -8.209  11.410  68.726  1.00  0.00     0.006 P  
HETATM    7  O   UNL     1      -7.527  14.514  69.340  1.00  0.00    -0.135 OA 
HETATM    8  O   UNL     1      -7.559  15.061  66.924  1.00  0.00    -0.120 OA 
HETATM    9  O   UNL     1      -6.764  11.165  67.966  1.00  0.00    -0.061 OA 
HETATM   10  O   UNL     1      -8.100  10.141  69.606  1.00  0.00    -0.156 OA 
HETATM   11  O   UNL     1      -5.612  14.848  68.162  1.00  0.00    -0.111 OA 
ENDROOT
BRANCH   2  12
HETATM   12  C   UNL     1      -9.684  13.643  68.014  1.00  0.00    -0.226 C  
BRANCH  12  13
HETATM   13  C   UNL     1     -10.772  13.671  66.961  1.00  0.00    -0.278 A  
HETATM   14  C   UNL     1     -11.547  12.554  66.710  1.00  0.00    -0.382 A  
HETATM   15  N   UNL     1     -12.447  12.462  65.700  1.00  0.00    -0.562 NA 
HETATM   16  C   UNL     1     -12.570  13.543  64.900  1.00  0.00    -0.342 A  
HETATM   17  C   UNL     1     -11.862  14.710  65.070  1.00  0.00    -0.377 A  
HETATM   18  C   UNL     1     -10.943  14.786  66.118  1.00  0.00    -0.332 A  
ENDBRANCH  12  13
ENDBRANCH   2  12
TORSDOF 2
ENDMDL
MODEL      104
REMARK 921   NORMALIZED FREE ENERGY PREDICTED BY IDOCK:   -3.49 KCAL/MOL
REMARK 922        TOTAL FREE ENERGY PREDICTED BY IDOCK:   -4.13 KCAL/MOL
REMARK 923 INTER-LIGAND FREE ENERGY PREDICTED BY IDOCK:   -3.91 KCAL/MOL
REMARK 924 INTRA-LIGAND FREE ENERGY PREDICTED BY IDOCK:   -0.22 KCAL/MOL
REMARK 927      BINDING AFFINITY PREDICTED BY RF-SCORE:    0.00 PKD
ROOT
HETATM    1  O   UNL     1     -11.242   7.425  69.004  1.00  0.00    -0.437 OA 
HETATM    2  C   UNL     1     -10.587   8.100  70.133  1.00  0.00    -0.237 C  
HETATM    3  H   UNL     1     -11.895   8.018  68.652  1.00  0.00     0.000 HD 
HETATM    4  P   UNL     1     -11.906   8.512  71.332  1.00  0.00    -0.319 P  
HETATM    5  O   UNL     1      -9.492   8.925  68.109  1.00  0.00    -0.142 OA 
HETATM    6  P   UNL     1      -9.759   9.636  69.584  1.00  0.00    -0.240 P  
HETATM    7  O   UNL     1     -10.765   8.665  72.504  1.00  0.00    -0.307 OA 
HETATM    8  O   UNL     1     -12.164   6.886  71.497  1.00  0.00    -0.333 OA 
HETATM    9  O   UNL     1     -11.271  10.139  69.149  1.00  0.00    -0.225 OA 
HETATM   10  O   UNL     1      -9.060  10.937  69.119  1.00  0.00    -0.142 OA 
HETATM   11  O   UNL     1     -13.024   8.862  72.346  1.00  0.00    -0.405 OA 
ENDROOT
BRANCH   2  12
HETATM   12  C   UNL     1      -9.509   7.120  70.713  1.00  0.00    -0.164 C  
BRANCH  12  13
HETATM   13  C   UNL     1      -9.098   5.920  69.886  1.00  0.00    -0.156 A  
HETATM   14  C   UNL     1      -8.103   6.023  68.931  1.00  0.00    -0.104 A  
HETATM   15  N   UNL     1      -7.771   5.032  68.066  1.00  0.00    -0.083 NA 
HETATM   16  C   UNL     1      -8.476   3.885  68.163  1.00  0.00    -0.093 A  
HETATM   17  C   UNL     1      -9.473   3.670  69.086  1.00  0.00    -0.235 A  
HETATM   18  C   UNL     1      -9.797   4.701  69.970  1.00  0.00    -0.294 A  
ENDBRANCH  12  13
ENDBRANCH   2  12
TORSDOF 2
ENDMDL
MODEL      105
REMARK 921   NORMALIZED FREE ENERGY PREDICTED BY IDOCK:   -3.48 KCAL/MOL
REMARK 922        TOTAL FREE ENERGY PREDICTED BY IDOCK:   -4.13 KCAL/MOL
REMARK 923 INTER-LIGAND FREE ENERGY PREDICTED BY IDOCK:   -3.82 KCAL/MOL
REMARK 924 INTRA-LIGAND FREE ENERGY PREDICTED BY IDOCK:   -0.31 KCAL/MOL
REMARK 927      BINDING AFFINITY PREDICTED BY RF-SCORE:    0.00 PKD
ROOT
HETATM    1  O   UNL     1      -9.997   6.196  71.351  1.00  0.00    -0.183 OA 
HETATM    2  C   UNL     1     -10.623   7.446  70.898  1.00  0.00    -0.223 C  
HETATM    3  H   UNL     1     -10.448   5.476  70.926  1.00  0.00     0.000 HD 
HETATM    4  P   UNL     1     -12.392   7.338  71.349  1.00  0.00    -0.376 P  
HETATM    5  O   UNL     1      -9.033   6.801  69.156  1.00  0.00    -0.133 OA 
HETATM    6  P   UNL     1     -10.466   7.634  69.084  1.00  0.00    -0.152 P  
HETATM    7  O   UNL     1     -12.505   8.971  71.213  1.00  0.00    -0.309 OA 
HETATM    8  O   UNL     1     -11.910   7.289  72.931  1.00  0.00    -0.102 OA 
HETATM    9  O   UNL     1     -11.353   6.244  68.995  1.00  0.00    -0.390 OA 
HETATM   10  O   UNL     1     -10.333   7.792  67.550  1.00  0.00    -0.220 OA 
HETATM   11  O   UNL     1     -13.891   7.246  71.730  1.00  0.00    -0.365 OA 
ENDROOT
BRANCH   2  12
HETATM   12  C   UNL     1      -9.877   8.633  71.599  1.00  0.00    -0.351 C  
BRANCH  12  13
HETATM   13  C   UNL     1      -8.614   8.338  72.380  1.00  0.00    -0.270 A  
HETATM   14  C   UNL     1      -8.665   8.056  73.733  1.00  0.00    -0.265 A  
HETATM   15  N   UNL     1      -7.572   7.910  74.523  1.00  0.00    -0.178 NA 
HETATM   16  C   UNL     1      -6.370   8.062  73.926  1.00  0.00    -0.103 A  
HETATM   17  C   UNL     1      -6.205   8.327  72.586  1.00  0.00    -0.078 A  
HETATM   18  C   UNL     1      -7.343   8.469  71.789  1.00  0.00    -0.118 A  
ENDBRANCH  12  13
ENDBRANCH   2  12
TORSDOF 2
ENDMDL
MODEL      106
REMARK 921   NORMALIZED FREE ENERGY PREDICTED BY IDOCK:   -3.48 KCAL/MOL
REMARK 922        TOTAL FREE ENERGY PREDICTED BY IDOCK:   -4.13 KCAL/MOL
REMARK 923 INTER-LIGAND FREE ENERGY PREDICTED BY IDOCK:   -3.90 KCAL/MOL
REMARK 924 INTRA-LIGAND FREE ENERGY PREDICTED BY IDOCK:   -0.23 KCAL/MOL
REMARK 927      BINDING AFFINITY PREDICTED BY RF-SCORE:    0.00 PKD
ROOT
HETATM    1  O   UNL     1      -8.707  10.648  66.898  1.00  0.00    -0.130 OA 
HETATM    2  C   UNL     1      -9.951  11.423  66.789  1.00  0.00    -0.208 C  
HETATM    3  H   UNL     1      -7.991  11.213  66.634  1.00  0.00     0.000 HD 
HETATM    4  P   UNL     1     -10.073  11.974  65.049  1.00  0.00    -0.218 P  
HETATM    5  O   UNL     1      -8.952  12.023  68.938  1.00  0.00     0.023 OA 
HETATM    6  P   UNL     1      -9.908  12.883  67.891  1.00  0.00    -0.237 P  
HETATM    7  O   UNL     1     -11.682  12.226  65.264  1.00  0.00    -0.362 OA 
HETATM    8  O   UNL     1     -10.162  10.377  64.626  1.00  0.00    -0.346 OA 
HETATM    9  O   UNL     1      -8.612  13.363  66.987  1.00  0.00    -0.208 OA 
HETATM   10  O   UNL     1      -9.871  14.120  68.822  1.00  0.00    -0.224 OA 
HETATM   11  O   UNL     1     -10.175  12.441  63.576  1.00  0.00    -0.414 OA 
ENDROOT
BRANCH   2  12
HETATM   12  C   UNL     1     -11.133  10.490  67.226  1.00  0.00    -0.284 C  
BRANCH  12  13
HETATM   13  C   UNL     1     -10.808   9.168  67.889  1.00  0.00    -0.147 A  
HETATM   14  C   UNL     1     -10.665   9.077  69.261  1.00  0.00    -0.174 A  
HETATM   15  N   UNL     1     -10.249   7.962  69.912  1.00  0.00    -0.205 NA 
HETATM   16  C   UNL     1      -9.958   6.888  69.146  1.00  0.00    -0.162 A  
HETATM   17  C   UNL     1     -10.082   6.865  67.777  1.00  0.00    -0.199 A  
HETATM   18  C   UNL     1     -10.515   8.021  67.126  1.00  0.00    -0.408 A  
ENDBRANCH  12  13
ENDBRANCH   2  12
TORSDOF 2
ENDMDL
MODEL      107
REMARK 921   NORMALIZED FREE ENERGY PREDICTED BY IDOCK:   -3.44 KCAL/MOL
REMARK 922        TOTAL FREE ENERGY PREDICTED BY IDOCK:   -4.08 KCAL/MOL
REMARK 923 INTER-LIGAND FREE ENERGY PREDICTED BY IDOCK:   -3.90 KCAL/MOL
REMARK 924 INTRA-LIGAND FREE ENERGY PREDICTED BY IDOCK:   -0.18 KCAL/MOL
REMARK 927      BINDING AFFINITY PREDICTED BY RF-SCORE:    0.00 PKD
ROOT
HETATM    1  O   UNL     1     -11.507   9.720  67.086  1.00  0.00    -0.149 OA 
HETATM    2  C   UNL     1     -10.697  10.276  68.179  1.00  0.00    -0.246 C  
HETATM    3  H   UNL     1     -12.382   9.570  67.423  1.00  0.00     0.000 HD 
HETATM    4  P   UNL     1     -10.745   9.055  69.540  1.00  0.00    -0.114 P  
HETATM    5  O   UNL     1     -11.942  12.150  67.223  1.00  0.00    -0.573 OA 
HETATM    6  P   UNL     1     -11.391  11.866  68.762  1.00  0.00    -0.327 P  
HETATM    7  O   UNL     1      -9.399   9.745  70.180  1.00  0.00    -0.234 OA 
HETATM    8  O   UNL     1      -9.979   7.999  68.521  1.00  0.00    -0.180 OA 
HETATM    9  O   UNL     1     -12.731  10.986  69.158  1.00  0.00    -0.277 OA 
HETATM   10  O   UNL     1     -11.979  13.211  69.255  1.00  0.00    -0.311 OA 
HETATM   11  O   UNL     1     -10.787   8.020  70.692  1.00  0.00    -0.226 OA 
ENDROOT
BRANCH   2  12
HETATM   12  C   UNL     1      -9.252  10.525  67.623  1.00  0.00    -0.153 C  
BRANCH  12  13
HETATM   13  C   UNL     1      -8.987  10.275  66.153  1.00  0.00    -0.174 A  
HETATM   14  C   UNL     1      -9.290  11.234  65.204  1.00  0.00    -0.189 A  
HETATM   15  N   UNL     1      -9.203  11.036  63.865  1.00  0.00    -0.191 NA 
HETATM   16  C   UNL     1      -8.796   9.813  63.461  1.00  0.00    -0.241 A  
HETATM   17  C   UNL     1      -8.454   8.794  64.319  1.00  0.00    -0.130 A  
HETATM   18  C   UNL     1      -8.547   9.020  65.693  1.00  0.00    -0.187 A  
ENDBRANCH  12  13
ENDBRANCH   2  12
TORSDOF 2
ENDMDL
MODEL      108
REMARK 921   NORMALIZED FREE ENERGY PREDICTED BY IDOCK:   -3.40 KCAL/MOL
REMARK 922        TOTAL FREE ENERGY PREDICTED BY IDOCK:   -4.03 KCAL/MOL
REMARK 923 INTER-LIGAND FREE ENERGY PREDICTED BY IDOCK:   -4.27 KCAL/MOL
REMARK 924 INTRA-LIGAND FREE ENERGY PREDICTED BY IDOCK:    0.24 KCAL/MOL
REMARK 927      BINDING AFFINITY PREDICTED BY RF-SCORE:    0.00 PKD
ROOT
HETATM    1  O   UNL     1      -8.887   9.538  67.209  1.00  0.00    -0.127 OA 
HETATM    2  C   UNL     1      -9.083  10.934  67.624  1.00  0.00    -0.148 C  
HETATM    3  H   UNL     1      -8.802   9.012  67.995  1.00  0.00     0.000 HD 
HETATM    4  P   UNL     1      -7.629  11.387  68.638  1.00  0.00    -0.120 P  
HETATM    5  O   UNL     1     -11.275   9.861  67.764  1.00  0.00    -0.225 OA 
HETATM    6  P   UNL     1     -10.604  11.110  68.625  1.00  0.00    -0.217 P  
HETATM    7  O   UNL     1      -7.968  12.973  68.378  1.00  0.00    -0.142 OA 
HETATM    8  O   UNL     1      -6.704  11.144  67.287  1.00  0.00    -0.077 OA 
HETATM    9  O   UNL     1      -9.868  10.080  69.686  1.00  0.00    -0.214 OA 
HETATM   10  O   UNL     1     -11.891  11.259  69.473  1.00  0.00    -0.297 OA 
HETATM   11  O   UNL     1      -6.398  11.769  69.497  1.00  0.00    -0.100 OA 
ENDROOT
BRANCH   2  12
HETATM   12  C   UNL     1      -9.225  11.801  66.325  1.00  0.00    -0.227 C  
BRANCH  12  13
HETATM   13  C   UNL     1     -10.532  12.525  66.074  1.00  0.00    -0.282 A  
HETATM   14  C   UNL     1     -11.435  12.057  65.137  1.00  0.00    -0.287 A  
HETATM   15  N   UNL     1     -12.559  12.717  64.765  1.00  0.00    -0.638 NA 
HETATM   16  C   UNL     1     -12.785  13.908  65.360  1.00  0.00    -0.490 A  
HETATM   17  C   UNL     1     -11.963  14.458  66.316  1.00  0.00    -0.391 A  
HETATM   18  C   UNL     1     -10.812  13.761  66.688  1.00  0.00    -0.288 A  
ENDBRANCH  12  13
ENDBRANCH   2  12
TORSDOF 2
ENDMDL
MODEL      109
REMARK 921   NORMALIZED FREE ENERGY PREDICTED BY IDOCK:   -3.39 KCAL/MOL
REMARK 922        TOTAL FREE ENERGY PREDICTED BY IDOCK:   -4.02 KCAL/MOL
REMARK 923 INTER-LIGAND FREE ENERGY PREDICTED BY IDOCK:   -3.81 KCAL/MOL
REMARK 924 INTRA-LIGAND FREE ENERGY PREDICTED BY IDOCK:   -0.21 KCAL/MOL
REMARK 927      BINDING AFFINITY PREDICTED BY RF-SCORE:    0.00 PKD
ROOT
HETATM    1  O   UNL     1     -11.304   7.816  69.548  1.00  0.00    -0.451 OA 
HETATM    2  C   UNL     1     -10.057   8.500  69.178  1.00  0.00    -0.203 C  
HETATM    3  H   UNL     1     -11.923   7.940  68.838  1.00  0.00     0.000 HD 
HETATM    4  P   UNL     1     -10.488  10.255  68.895  1.00  0.00    -0.242 P  
HETATM    5  O   UNL     1     -10.004   6.323  68.067  1.00  0.00    -0.127 OA 
HETATM    6  P   UNL     1      -9.353   7.790  67.646  1.00  0.00    -0.148 P  
HETATM    7  O   UNL     1      -8.906  10.653  69.088  1.00  0.00    -0.164 OA 
HETATM    8  O   UNL     1     -10.922  10.330  70.490  1.00  0.00    -0.307 OA 
HETATM    9  O   UNL     1     -10.755   8.287  66.927  1.00  0.00    -0.299 OA 
HETATM   10  O   UNL     1      -8.758   7.189  66.349  1.00  0.00    -0.127 OA 
HETATM   11  O   UNL     1     -10.853  11.741  68.655  1.00  0.00    -0.201 OA 
ENDROOT
BRANCH   2  12
HETATM   12  C   UNL     1      -9.036   8.295  70.350  1.00  0.00    -0.146 C  
BRANCH  12  13
HETATM   13  C   UNL     1      -9.412   7.370  71.488  1.00  0.00    -0.162 A  
HETATM   14  C   UNL     1      -9.204   6.006  71.393  1.00  0.00    -0.143 A  
HETATM   15  N   UNL     1      -9.631   5.104  72.312  1.00  0.00    -0.148 NA 
HETATM   16  C   UNL     1     -10.305   5.596  73.374  1.00  0.00    -0.222 A  
HETATM   17  C   UNL     1     -10.552   6.934  73.575  1.00  0.00    -0.378 A  
HETATM   18  C   UNL     1     -10.100   7.847  72.620  1.00  0.00    -0.343 A  
ENDBRANCH  12  13
ENDBRANCH   2  12
TORSDOF 2
ENDMDL
MODEL      110
REMARK 921   NORMALIZED FREE ENERGY PREDICTED BY IDOCK:   -3.38 KCAL/MOL
REMARK 922        TOTAL FREE ENERGY PREDICTED BY IDOCK:   -4.02 KCAL/MOL
REMARK 923 INTER-LIGAND FREE ENERGY PREDICTED BY IDOCK:   -5.60 KCAL/MOL
REMARK 924 INTRA-LIGAND FREE ENERGY PREDICTED BY IDOCK:    1.59 KCAL/MOL
REMARK 927      BINDING AFFINITY PREDICTED BY RF-SCORE:    0.00 PKD
ROOT
HETATM    1  O   UNL     1     -12.369  14.338  63.793  1.00  0.00    -0.956 OA 
HETATM    2  C   UNL     1     -11.578  13.880  64.945  1.00  0.00    -0.359 C  
HETATM    3  H   UNL     1     -11.788  14.379  63.043  1.00  0.00     0.000 HD 
HETATM    4  P   UNL     1     -10.215  15.081  65.154  1.00  0.00    -0.223 P  
HETATM    5  O   UNL     1     -12.207  11.872  63.699  1.00  0.00    -0.494 OA 
HETATM    6  P   UNL     1     -10.883  12.215  64.638  1.00  0.00    -0.347 P  
HETATM    7  O   UNL     1     -10.018  14.557  66.699  1.00  0.00    -0.255 OA 
HETATM    8  O   UNL     1     -11.370  16.226  65.464  1.00  0.00     0.040 OA 
HETATM    9  O   UNL     1     -10.083  12.925  63.379  1.00  0.00    -0.169 OA 
HETATM   10  O   UNL     1     -10.294  10.807  64.378  1.00  0.00    -0.353 OA 
HETATM   11  O   UNL     1      -9.061  16.099  65.330  1.00  0.00    -0.248 OA 
ENDROOT
BRANCH   2  12
HETATM   12  C   UNL     1     -12.537  13.810  66.184  1.00  0.00    -0.423 C  
BRANCH  12  13
HETATM   13  C   UNL     1     -12.117  12.984  67.381  1.00  0.00    -0.290 A  
HETATM   14  C   UNL     1     -11.888  11.625  67.262  1.00  0.00    -0.053 A  
HETATM   15  N   UNL     1     -11.639  10.799  68.308  1.00  0.00    -0.460 NA 
HETATM   16  C   UNL     1     -11.624  11.365  69.534  1.00  0.00    -0.331 A  
HETATM   17  C   UNL     1     -11.822  12.707  69.765  1.00  0.00    -0.379 A  
HETATM   18  C   UNL     1     -12.073  13.541  68.674  1.00  0.00    -0.303 A  
ENDBRANCH  12  13
ENDBRANCH   2  12
TORSDOF 2
ENDMDL
MODEL      111
REMARK 921   NORMALIZED FREE ENERGY PREDICTED BY IDOCK:   -3.38 KCAL/MOL
REMARK 922        TOTAL FREE ENERGY PREDICTED BY IDOCK:   -4.01 KCAL/MOL
REMARK 923 INTER-LIGAND FREE ENERGY PREDICTED BY IDOCK:   -4.41 KCAL/MOL
REMARK 924 INTRA-LIGAND FREE ENERGY PREDICTED BY IDOCK:    0.39 KCAL/MOL
REMARK 927      BINDING AFFINITY PREDICTED BY RF-SCORE:    0.00 PKD
ROOT
HETATM    1  O   UNL     1     -10.814   8.409  67.685  1.00  0.00    -0.483 OA 
HETATM    2  C   UNL     1     -10.446   9.758  68.137  1.00  0.00    -0.216 C  
HETATM    3  H   UNL     1     -10.018   7.894  67.634  1.00  0.00     0.000 HD 
HETATM    4  P   UNL     1      -9.244  10.407  66.921  1.00  0.00    -0.153 P  
HETATM    5  O   UNL     1     -10.601   8.376  70.148  1.00  0.00    -0.224 OA 
HETATM    6  P   UNL     1      -9.668   9.701  69.792  1.00  0.00    -0.247 P  
HETATM    7  O   UNL     1      -9.565  11.930  67.447  1.00  0.00    -0.172 OA 
HETATM    8  O   UNL     1     -10.449  10.315  65.790  1.00  0.00    -0.196 OA 
HETATM    9  O   UNL     1      -8.504   8.779  69.070  1.00  0.00    -0.127 OA 
HETATM   10  O   UNL     1      -9.010   9.653  71.193  1.00  0.00    -0.173 OA 
HETATM   11  O   UNL     1      -8.225  10.956  65.891  1.00  0.00    -0.160 OA 
ENDROOT
BRANCH   2  12
HETATM   12  C   UNL     1     -11.760  10.608  68.221  1.00  0.00    -0.136 C  
BRANCH  12  13
HETATM   13  C   UNL     1     -12.158  11.201  69.557  1.00  0.00    -0.396 A  
HETATM   14  C   UNL     1     -12.869  10.456  70.481  1.00  0.00    -0.254 A  
HETATM   15  N   UNL     1     -13.371  10.955  71.638  1.00  0.00    -0.329 NA 
HETATM   16  C   UNL     1     -13.154  12.267  71.875  1.00  0.00    -0.363 A  
HETATM   17  C   UNL     1     -12.447  13.093  71.033  1.00  0.00    -0.406 A  
HETATM   18  C   UNL     1     -11.935  12.560  69.849  1.00  0.00    -0.371 A  
ENDBRANCH  12  13
ENDBRANCH   2  12
TORSDOF 2
ENDMDL
MODEL      112
REMARK 921   NORMALIZED FREE ENERGY PREDICTED BY IDOCK:   -3.37 KCAL/MOL
REMARK 922        TOTAL FREE ENERGY PREDICTED BY IDOCK:   -4.00 KCAL/MOL
REMARK 923 INTER-LIGAND FREE ENERGY PREDICTED BY IDOCK:   -3.69 KCAL/MOL
REMARK 924 INTRA-LIGAND FREE ENERGY PREDICTED BY IDOCK:   -0.31 KCAL/MOL
REMARK 927      BINDING AFFINITY PREDICTED BY RF-SCORE:    0.00 PKD
ROOT
HETATM    1  O   UNL     1     -11.265   7.843  69.125  1.00  0.00    -0.421 OA 
HETATM    2  C   UNL     1     -10.462   8.720  69.989  1.00  0.00    -0.212 C  
HETATM    3  H   UNL     1     -12.173   7.935  69.384  1.00  0.00     0.000 HD 
HETATM    4  P   UNL     1     -10.777   8.187  71.711  1.00  0.00    -0.294 P  
HETATM    5  O   UNL     1     -11.361  10.139  68.214  1.00  0.00    -0.232 OA 
HETATM    6  P   UNL     1     -10.963  10.468  69.790  1.00  0.00    -0.279 P  
HETATM    7  O   UNL     1      -9.394   8.943  72.176  1.00  0.00    -0.348 OA 
HETATM    8  O   UNL     1     -10.099   6.732  71.307  1.00  0.00    -0.187 OA 
HETATM    9  O   UNL     1     -12.438   9.971  70.342  1.00  0.00    -0.216 OA 
HETATM   10  O   UNL     1     -11.388  11.947  69.622  1.00  0.00    -0.252 OA 
HETATM   11  O   UNL     1     -11.045   7.736  73.168  1.00  0.00    -0.409 OA 
ENDROOT
BRANCH   2  12
HETATM   12  C   UNL     1      -8.962   8.568  69.560  1.00  0.00    -0.149 C  
BRANCH  12  13
HETATM   13  C   UNL     1      -8.636   7.737  68.337  1.00  0.00    -0.128 A  
HETATM   14  C   UNL     1      -8.273   6.408  68.456  1.00  0.00    -0.113 A  
HETATM   15  N   UNL     1      -7.843   5.639  67.425  1.00  0.00    -0.101 NA 
HETATM   16  C   UNL     1      -7.771   6.237  66.216  1.00  0.00    -0.099 A  
HETATM   17  C   UNL     1      -8.123   7.546  65.982  1.00  0.00    -0.123 A  
HETATM   18  C   UNL     1      -8.566   8.319  67.056  1.00  0.00    -0.124 A  
ENDBRANCH  12  13
ENDBRANCH   2  12
TORSDOF 2
ENDMDL
MODEL      113
REMARK 921   NORMALIZED FREE ENERGY PREDICTED BY IDOCK:   -3.36 KCAL/MOL
REMARK 922        TOTAL FREE ENERGY PREDICTED BY IDOCK:   -3.99 KCAL/MOL
REMARK 923 INTER-LIGAND FREE ENERGY PREDICTED BY IDOCK:   -3.66 KCAL/MOL
REMARK 924 INTRA-LIGAND FREE ENERGY PREDICTED BY IDOCK:   -0.34 KCAL/MOL
REMARK 927      BINDING AFFINITY PREDICTED BY RF-SCORE:    0.00 PKD
ROOT
HETATM    1  O   UNL     1      -8.951   8.917  69.193  1.00  0.00    -0.138 OA 
HETATM    2  C   UNL     1      -9.608   8.124  68.144  1.00  0.00    -0.149 C  
HETATM    3  H   UNL     1      -8.251   8.389  69.558  1.00  0.00     0.000 HD 
HETATM    4  P   UNL     1     -10.204   6.590  68.944  1.00  0.00    -0.217 P  
HETATM    5  O   UNL     1      -7.626   9.119  67.116  1.00  0.00    -0.090 OA 
HETATM    6  P   UNL     1      -8.427   7.698  66.813  1.00  0.00    -0.137 P  
HETATM    7  O   UNL     1     -11.244   6.366  67.692  1.00  0.00    -0.337 OA 
HETATM    8  O   UNL     1     -11.190   7.544  69.870  1.00  0.00    -0.216 OA 
HETATM    9  O   UNL     1      -7.594   6.892  67.989  1.00  0.00    -0.103 OA 
HETATM   10  O   UNL     1      -7.428   7.338  65.687  1.00  0.00    -0.078 OA 
HETATM   11  O   UNL     1     -10.708   5.292  69.622  1.00  0.00    -0.273 OA 
ENDROOT
BRANCH   2  12
HETATM   12  C   UNL     1     -10.763   8.995  67.541  1.00  0.00    -0.239 C  
BRANCH  12  13
HETATM   13  C   UNL     1     -10.843  10.459  67.920  1.00  0.00    -0.331 A  
HETATM   14  C   UNL     1     -11.662  10.883  68.951  1.00  0.00    -0.306 A  
HETATM   15  N   UNL     1     -11.885  12.184  69.262  1.00  0.00    -0.318 NA 
HETATM   16  C   UNL     1     -11.258  13.104  68.498  1.00  0.00    -0.272 A  
HETATM   17  C   UNL     1     -10.409  12.793  67.461  1.00  0.00    -0.219 A  
HETATM   18  C   UNL     1     -10.190  11.448  67.159  1.00  0.00    -0.234 A  
ENDBRANCH  12  13
ENDBRANCH   2  12
TORSDOF 2
ENDMDL
MODEL      114
REMARK 921   NORMALIZED FREE ENERGY PREDICTED BY IDOCK:   -3.36 KCAL/MOL
REMARK 922        TOTAL FREE ENERGY PREDICTED BY IDOCK:   -3.99 KCAL/MOL
REMARK 923 INTER-LIGAND FREE ENERGY PREDICTED BY IDOCK:   -3.68 KCAL/MOL
REMARK 924 INTRA-LIGAND FREE ENERGY PREDICTED BY IDOCK:   -0.31 KCAL/MOL
REMARK 927      BINDING AFFINITY PREDICTED BY RF-SCORE:    0.00 PKD
ROOT
HETATM    1  O   UNL     1      -7.843   7.982  68.937  1.00  0.00    -0.109 OA 
HETATM    2  C   UNL     1      -9.022   8.060  69.811  1.00  0.00    -0.145 C  
HETATM    3  H   UNL     1      -7.264   7.318  69.293  1.00  0.00     0.000 HD 
HETATM    4  P   UNL     1      -8.406   8.463  71.486  1.00  0.00    -0.175 P  
HETATM    5  O   UNL     1      -9.409   6.179  68.298  1.00  0.00    -0.118 OA 
HETATM    6  P   UNL     1      -9.908   6.460  69.855  1.00  0.00    -0.172 P  
HETATM    7  O   UNL     1      -9.914   8.975  71.894  1.00  0.00    -0.332 OA 
HETATM    8  O   UNL     1      -7.859   9.894  70.861  1.00  0.00    -0.235 OA 
HETATM    9  O   UNL     1      -8.510   5.853  70.490  1.00  0.00    -0.124 OA 
HETATM   10  O   UNL     1     -10.658   5.106  69.893  1.00  0.00    -0.280 OA 
HETATM   11  O   UNL     1      -7.885   8.804  72.904  1.00  0.00    -0.381 OA 
ENDROOT
BRANCH   2  12
HETATM   12  C   UNL     1      -9.978   9.155  69.224  1.00  0.00    -0.187 C  
BRANCH  12  13
HETATM   13  C   UNL     1      -9.632   9.782  67.889  1.00  0.00    -0.158 A  
HETATM   14  C   UNL     1      -9.015  11.019  67.823  1.00  0.00    -0.140 A  
HETATM   15  N   UNL     1      -8.793  11.700  66.672  1.00  0.00    -0.184 NA 
HETATM   16  C   UNL     1      -9.215  11.111  65.532  1.00  0.00    -0.216 A  
HETATM   17  C   UNL     1      -9.823   9.879  65.481  1.00  0.00    -0.381 A  
HETATM   18  C   UNL     1     -10.039   9.193  66.678  1.00  0.00    -0.343 A  
ENDBRANCH  12  13
ENDBRANCH   2  12
TORSDOF 2
ENDMDL
MODEL      115
REMARK 921   NORMALIZED FREE ENERGY PREDICTED BY IDOCK:   -3.32 KCAL/MOL
REMARK 922        TOTAL FREE ENERGY PREDICTED BY IDOCK:   -3.94 KCAL/MOL
REMARK 923 INTER-LIGAND FREE ENERGY PREDICTED BY IDOCK:   -3.65 KCAL/MOL
REMARK 924 INTRA-LIGAND FREE ENERGY PREDICTED BY IDOCK:   -0.29 KCAL/MOL
REMARK 927      BINDING AFFINITY PREDICTED BY RF-SCORE:    0.00 PKD
ROOT
HETATM    1  O   UNL     1     -11.251   7.422  67.680  1.00  0.00    -0.514 OA 
HETATM    2  C   UNL     1      -9.886   7.145  68.151  1.00  0.00    -0.143 C  
HETATM    3  H   UNL     1     -11.823   6.760  68.049  1.00  0.00     0.000 HD 
HETATM    4  P   UNL     1      -9.477   5.449  67.600  1.00  0.00    -0.133 P  
HETATM    5  O   UNL     1     -10.998   8.375  69.946  1.00  0.00    -0.239 OA 
HETATM    6  P   UNL     1      -9.796   7.233  69.976  1.00  0.00    -0.176 P  
HETATM    7  O   UNL     1      -7.883   5.792  67.798  1.00  0.00    -0.096 OA 
HETATM    8  O   UNL     1      -9.621   5.997  66.046  1.00  0.00    -0.109 OA 
HETATM    9  O   UNL     1     -10.880   5.987  69.959  1.00  0.00    -0.294 OA 
HETATM   10  O   UNL     1      -9.720   7.307  71.521  1.00  0.00    -0.161 OA 
HETATM   11  O   UNL     1      -9.132   4.013  67.135  1.00  0.00    -0.127 OA 
ENDROOT
BRANCH   2  12
HETATM   12  C   UNL     1      -8.941   8.237  67.541  1.00  0.00    -0.141 C  
BRANCH  12  13
HETATM   13  C   UNL     1      -9.563   9.456  66.892  1.00  0.00    -0.217 A  
HETATM   14  C   UNL     1      -9.611   9.581  65.515  1.00  0.00    -0.279 A  
HETATM   15  N   UNL     1     -10.032  10.695  64.865  1.00  0.00    -0.295 NA 
HETATM   16  C   UNL     1     -10.417  11.735  65.636  1.00  0.00    -0.265 A  
HETATM   17  C   UNL     1     -10.426  11.711  67.011  1.00  0.00    -0.258 A  
HETATM   18  C   UNL     1      -9.993  10.554  67.661  1.00  0.00    -0.202 A  
ENDBRANCH  12  13
ENDBRANCH   2  12
TORSDOF 2
ENDMDL
MODEL      116
REMARK 921   NORMALIZED FREE ENERGY PREDICTED BY IDOCK:   -3.31 KCAL/MOL
REMARK 922        TOTAL FREE ENERGY PREDICTED BY IDOCK:   -3.93 KCAL/MOL
REMARK 923 INTER-LIGAND FREE ENERGY PREDICTED BY IDOCK:   -4.25 KCAL/MOL
REMARK 924 INTRA-LIGAND FREE ENERGY PREDICTED BY IDOCK:    0.31 KCAL/MOL
REMARK 927      BINDING AFFINITY PREDICTED BY RF-SCORE:    0.00 PKD
ROOT
HETATM    1  O   UNL     1     -10.048  13.946  65.193  1.00  0.00    -0.471 OA 
HETATM    2  C   UNL     1      -9.880  13.820  66.648  1.00  0.00    -0.284 C  
HETATM    3  H   UNL     1     -10.976  13.879  65.003  1.00  0.00     0.000 HD 
HETATM    4  P   UNL     1     -10.597  12.204  67.119  1.00  0.00    -0.240 P  
HETATM    5  O   UNL     1     -10.486  16.150  66.225  1.00  0.00    -0.310 OA 
HETATM    6  P   UNL     1     -10.765  15.159  67.526  1.00  0.00    -0.296 P  
HETATM    7  O   UNL     1      -9.738  12.254  68.518  1.00  0.00    -0.203 OA 
HETATM    8  O   UNL     1      -9.433  11.496  66.180  1.00  0.00    -0.208 OA 
HETATM    9  O   UNL     1     -12.129  14.526  66.843  1.00  0.00    -0.399 OA 
HETATM   10  O   UNL     1     -11.515  16.293  68.268  1.00  0.00    -0.333 OA 
HETATM   11  O   UNL     1     -11.205  10.836  67.517  1.00  0.00    -0.310 OA 
ENDROOT
BRANCH   2  12
HETATM   12  C   UNL     1      -8.348  13.931  66.962  1.00  0.00    -0.113 C  
BRANCH  12  13
HETATM   13  C   UNL     1      -7.813  15.235  67.515  1.00  0.00    -0.198 A  
HETATM   14  C   UNL     1      -7.334  16.222  66.672  1.00  0.00    -0.169 A  
HETATM   15  N   UNL     1      -6.722  17.356  67.096  1.00  0.00    -0.161 NA 
HETATM   16  C   UNL     1      -6.580  17.502  68.431  1.00  0.00    -0.190 A  
HETATM   17  C   UNL     1      -7.033  16.593  69.358  1.00  0.00    -0.194 A  
HETATM   18  C   UNL     1      -7.664  15.434  68.901  1.00  0.00    -0.165 A  
ENDBRANCH  12  13
ENDBRANCH   2  12
TORSDOF 2
ENDMDL
MODEL      117
REMARK 921   NORMALIZED FREE ENERGY PREDICTED BY IDOCK:   -3.30 KCAL/MOL
REMARK 922        TOTAL FREE ENERGY PREDICTED BY IDOCK:   -3.93 KCAL/MOL
REMARK 923 INTER-LIGAND FREE ENERGY PREDICTED BY IDOCK:   -4.02 KCAL/MOL
REMARK 924 INTRA-LIGAND FREE ENERGY PREDICTED BY IDOCK:    0.09 KCAL/MOL
REMARK 927      BINDING AFFINITY PREDICTED BY RF-SCORE:    0.00 PKD
ROOT
HETATM    1  O   UNL     1     -10.828  16.011  67.020  1.00  0.00    -0.309 OA 
HETATM    2  C   UNL     1     -10.695  14.550  66.936  1.00  0.00    -0.288 C  
HETATM    3  H   UNL     1     -11.675  16.203  67.404  1.00  0.00     0.000 HD 
HETATM    4  P   UNL     1     -12.097  13.956  65.920  1.00  0.00    -0.472 P  
HETATM    5  O   UNL     1     -10.095  15.164  69.224  1.00  0.00    -0.229 OA 
HETATM    6  P   UNL     1     -10.781  13.790  68.598  1.00  0.00    -0.237 P  
HETATM    7  O   UNL     1     -11.278  12.559  65.645  1.00  0.00    -0.295 OA 
HETATM    8  O   UNL     1     -11.459  14.826  64.664  1.00  0.00    -0.394 OA 
HETATM    9  O   UNL     1     -12.302  14.430  68.668  1.00  0.00    -0.202 OA 
HETATM   10  O   UNL     1     -10.855  13.147  70.004  1.00  0.00     0.401 OA 
HETATM   11  O   UNL     1     -13.283  13.454  65.061  1.00  0.00    -0.715 OA 
ENDROOT
BRANCH   2  12
HETATM   12  C   UNL     1      -9.296  14.234  66.303  1.00  0.00    -0.236 C  
BRANCH  12  13
HETATM   13  C   UNL     1      -8.073  14.931  66.861  1.00  0.00    -0.119 A  
HETATM   14  C   UNL     1      -7.780  16.238  66.516  1.00  0.00    -0.225 A  
HETATM   15  N   UNL     1      -6.640  16.882  66.869  1.00  0.00    -0.196 NA 
HETATM   16  C   UNL     1      -5.749  16.178  67.599  1.00  0.00    -0.147 A  
HETATM   17  C   UNL     1      -5.947  14.880  68.011  1.00  0.00    -0.158 A  
HETATM   18  C   UNL     1      -7.128  14.236  67.640  1.00  0.00    -0.200 A  
ENDBRANCH  12  13
ENDBRANCH   2  12
TORSDOF 2
ENDMDL
MODEL      118
REMARK 921   NORMALIZED FREE ENERGY PREDICTED BY IDOCK:   -3.29 KCAL/MOL
REMARK 922        TOTAL FREE ENERGY PREDICTED BY IDOCK:   -3.92 KCAL/MOL
REMARK 923 INTER-LIGAND FREE ENERGY PREDICTED BY IDOCK:   -3.69 KCAL/MOL
REMARK 924 INTRA-LIGAND FREE ENERGY PREDICTED BY IDOCK:   -0.23 KCAL/MOL
REMARK 927      BINDING AFFINITY PREDICTED BY RF-SCORE:    0.00 PKD
ROOT
HETATM    1  O   UNL     1      -8.952  14.220  66.300  1.00  0.00    -0.478 OA 
HETATM    2  C   UNL     1      -8.976  14.886  67.610  1.00  0.00    -0.180 C  
HETATM    3  H   UNL     1      -8.455  14.769  65.706  1.00  0.00     0.000 HD 
HETATM    4  P   UNL     1      -9.734  16.530  67.347  1.00  0.00    -0.256 P  
HETATM    5  O   UNL     1      -6.841  13.702  67.479  1.00  0.00    -0.169 OA 
HETATM    6  P   UNL     1      -7.281  15.093  68.268  1.00  0.00    -0.132 P  
HETATM    7  O   UNL     1     -10.053  16.617  68.956  1.00  0.00    -0.262 OA 
HETATM    8  O   UNL     1     -11.117  15.739  66.899  1.00  0.00    -0.260 OA 
HETATM    9  O   UNL     1      -7.016  16.023  66.929  1.00  0.00    -0.201 OA 
HETATM   10  O   UNL     1      -5.847  15.270  68.824  1.00  0.00    -0.087 OA 
HETATM   11  O   UNL     1     -10.375  17.922  67.123  1.00  0.00    -0.344 OA 
ENDROOT
BRANCH   2  12
HETATM   12  C   UNL     1      -9.795  13.978  68.591  1.00  0.00    -0.191 C  
BRANCH  12  13
HETATM   13  C   UNL     1     -10.119  12.560  68.169  1.00  0.00    -0.225 A  
HETATM   14  C   UNL     1      -9.220  11.531  68.385  1.00  0.00    -0.190 A  
HETATM   15  N   UNL     1      -9.383  10.267  67.922  1.00  0.00    -0.138 NA 
HETATM   16  C   UNL     1     -10.500  10.026  67.202  1.00  0.00    -0.244 A  
HETATM   17  C   UNL     1     -11.466  10.971  66.942  1.00  0.00     0.028 A  
HETATM   18  C   UNL     1     -11.281  12.265  67.432  1.00  0.00    -0.358 A  
ENDBRANCH  12  13
ENDBRANCH   2  12
TORSDOF 2
ENDMDL
MODEL      119
REMARK 921   NORMALIZED FREE ENERGY PREDICTED BY IDOCK:   -3.29 KCAL/MOL
REMARK 922        TOTAL FREE ENERGY PREDICTED BY IDOCK:   -3.91 KCAL/MOL
REMARK 923 INTER-LIGAND FREE ENERGY PREDICTED BY IDOCK:   -4.09 KCAL/MOL
REMARK 924 INTRA-LIGAND FREE ENERGY PREDICTED BY IDOCK:    0.18 KCAL/MOL
REMARK 927      BINDING AFFINITY PREDICTED BY RF-SCORE:    0.00 PKD
ROOT
HETATM    1  O   UNL     1      -9.799  10.461  68.020  1.00  0.00    -0.148 OA 
HETATM    2  C   UNL     1      -9.135  10.057  66.772  1.00  0.00    -0.139 C  
HETATM    3  H   UNL     1      -9.242  10.195  68.742  1.00  0.00     0.000 HD 
HETATM    4  P   UNL     1      -8.898   8.246  66.869  1.00  0.00    -0.152 P  
HETATM    5  O   UNL     1      -8.115  12.176  67.440  1.00  0.00    -0.153 OA 
HETATM    6  P   UNL     1      -7.509  10.878  66.603  1.00  0.00    -0.140 P  
HETATM    7  O   UNL     1      -8.717   8.204  65.237  1.00  0.00    -0.147 OA 
HETATM    8  O   UNL     1     -10.546   8.105  66.904  1.00  0.00    -0.329 OA 
HETATM    9  O   UNL     1      -7.108  10.078  67.991  1.00  0.00    -0.079 OA 
HETATM   10  O   UNL     1      -6.132  11.572  66.461  1.00  0.00    -0.145 OA 
HETATM   11  O   UNL     1      -8.696   6.713  66.952  1.00  0.00    -0.113 OA 
ENDROOT
BRANCH   2  12
HETATM   12  C   UNL     1     -10.054  10.497  65.580  1.00  0.00    -0.333 C  
BRANCH  12  13
HETATM   13  C   UNL     1     -10.682  11.875  65.617  1.00  0.00    -0.325 A  
HETATM   14  C   UNL     1     -10.203  12.896  64.818  1.00  0.00    -0.285 A  
HETATM   15  N   UNL     1     -10.626  14.183  64.889  1.00  0.00    -0.411 NA 
HETATM   16  C   UNL     1     -11.573  14.457  65.812  1.00  0.00    -0.353 A  
HETATM   17  C   UNL     1     -12.130  13.515  66.645  1.00  0.00    -0.447 A  
HETATM   18  C   UNL     1     -11.684  12.196  66.553  1.00  0.00    -0.392 A  
ENDBRANCH  12  13
ENDBRANCH   2  12
TORSDOF 2
ENDMDL
MODEL      120
REMARK 921   NORMALIZED FREE ENERGY PREDICTED BY IDOCK:   -3.28 KCAL/MOL
REMARK 922        TOTAL FREE ENERGY PREDICTED BY IDOCK:   -3.90 KCAL/MOL
REMARK 923 INTER-LIGAND FREE ENERGY PREDICTED BY IDOCK:   -3.69 KCAL/MOL
REMARK 924 INTRA-LIGAND FREE ENERGY PREDICTED BY IDOCK:   -0.22 KCAL/MOL
REMARK 927      BINDING AFFINITY PREDICTED BY RF-SCORE:    0.00 PKD
ROOT
HETATM    1  O   UNL     1     -11.149   8.455  67.331  1.00  0.00    -0.441 OA 
HETATM    2  C   UNL     1     -10.188   9.320  68.029  1.00  0.00    -0.209 C  
HETATM    3  H   UNL     1     -11.993   8.889  67.348  1.00  0.00     0.000 HD 
HETATM    4  P   UNL     1     -10.838   9.566  69.721  1.00  0.00    -0.216 P  
HETATM    5  O   UNL     1     -10.365  10.186  65.750  1.00  0.00    -0.234 OA 
HETATM    6  P   UNL     1     -10.041  10.940  67.191  1.00  0.00    -0.215 P  
HETATM    7  O   UNL     1      -9.335  10.013  70.211  1.00  0.00    -0.162 OA 
HETATM    8  O   UNL     1     -10.658   7.936  69.947  1.00  0.00    -0.235 OA 
HETATM    9  O   UNL     1     -11.644  11.120  67.542  1.00  0.00    -0.526 OA 
HETATM   10  O   UNL     1      -9.917  12.311  66.482  1.00  0.00    -0.212 OA 
HETATM   11  O   UNL     1     -11.389   9.774  71.154  1.00  0.00    -0.344 OA 
ENDROOT
BRANCH   2  12
HETATM   12  C   UNL     1      -8.793   8.604  68.000  1.00  0.00    -0.141 C  
BRANCH  12  13
HETATM   13  C   UNL     1      -8.591   7.447  67.045  1.00  0.00    -0.119 A  
HETATM   14  C   UNL     1      -8.198   7.665  65.737  1.00  0.00    -0.133 A  
HETATM   15  N   UNL     1      -8.122   6.695  64.792  1.00  0.00    -0.120 NA 
HETATM   16  C   UNL     1      -8.463   5.447  65.179  1.00  0.00    -0.150 A  
HETATM   17  C   UNL     1      -8.851   5.116  66.456  1.00  0.00    -0.117 A  
HETATM   18  C   UNL     1      -8.919   6.128  67.415  1.00  0.00    -0.112 A  
ENDBRANCH  12  13
ENDBRANCH   2  12
TORSDOF 2
ENDMDL
MODEL      121
REMARK 921   NORMALIZED FREE ENERGY PREDICTED BY IDOCK:   -3.28 KCAL/MOL
REMARK 922        TOTAL FREE ENERGY PREDICTED BY IDOCK:   -3.90 KCAL/MOL
REMARK 923 INTER-LIGAND FREE ENERGY PREDICTED BY IDOCK:   -3.65 KCAL/MOL
REMARK 924 INTRA-LIGAND FREE ENERGY PREDICTED BY IDOCK:   -0.25 KCAL/MOL
REMARK 927      BINDING AFFINITY PREDICTED BY RF-SCORE:    0.00 PKD
ROOT
HETATM    1  O   UNL     1      -8.723  11.339  69.248  1.00  0.00    -0.377 OA 
HETATM    2  C   UNL     1      -9.056  11.065  67.843  1.00  0.00    -0.147 C  
HETATM    3  H   UNL     1      -8.157  10.640  69.552  1.00  0.00     0.000 HD 
HETATM    4  P   UNL     1      -9.859   9.421  67.807  1.00  0.00    -0.191 P  
HETATM    5  O   UNL     1      -6.861  12.140  67.832  1.00  0.00    -0.078 OA 
HETATM    6  P   UNL     1      -7.547  11.029  66.809  1.00  0.00    -0.142 P  
HETATM    7  O   UNL     1     -10.500   9.789  66.340  1.00  0.00    -0.204 OA 
HETATM    8  O   UNL     1     -11.065  10.072  68.735  1.00  0.00    -0.226 OA 
HETATM    9  O   UNL     1      -7.084   9.760  67.760  1.00  0.00    -0.085 OA 
HETATM   10  O   UNL     1      -6.269  10.998  65.935  1.00  0.00    -0.119 OA 
HETATM   11  O   UNL     1     -10.538   8.029  67.778  1.00  0.00    -0.223 OA 
ENDROOT
BRANCH   2  12
HETATM   12  C   UNL     1      -9.990  12.219  67.340  1.00  0.00    -0.205 C  
BRANCH  12  13
HETATM   13  C   UNL     1     -10.319  13.352  68.289  1.00  0.00    -0.251 A  
HETATM   14  C   UNL     1     -11.545  13.411  68.927  1.00  0.00    -0.314 A  
HETATM   15  N   UNL     1     -11.961  14.456  69.685  1.00  0.00    -0.317 NA 
HETATM   16  C   UNL     1     -11.105  15.494  69.803  1.00  0.00    -0.296 A  
HETATM   17  C   UNL     1      -9.857  15.533  69.226  1.00  0.00    -0.270 A  
HETATM   18  C   UNL     1      -9.447  14.445  68.453  1.00  0.00    -0.207 A  
ENDBRANCH  12  13
ENDBRANCH   2  12
TORSDOF 2
ENDMDL
MODEL      122
REMARK 921   NORMALIZED FREE ENERGY PREDICTED BY IDOCK:   -3.26 KCAL/MOL
REMARK 922        TOTAL FREE ENERGY PREDICTED BY IDOCK:   -3.88 KCAL/MOL
REMARK 923 INTER-LIGAND FREE ENERGY PREDICTED BY IDOCK:   -3.57 KCAL/MOL
REMARK 924 INTRA-LIGAND FREE ENERGY PREDICTED BY IDOCK:   -0.31 KCAL/MOL
REMARK 927      BINDING AFFINITY PREDICTED BY RF-SCORE:    0.00 PKD
ROOT
HETATM    1  O   UNL     1      -8.262   9.277  67.971  1.00  0.00    -0.114 OA 
HETATM    2  C   UNL     1      -9.188  10.412  67.854  1.00  0.00    -0.139 C  
HETATM    3  H   UNL     1      -7.581   9.391  67.320  1.00  0.00     0.000 HD 
HETATM    4  P   UNL     1      -9.822  10.394  66.139  1.00  0.00    -0.245 P  
HETATM    5  O   UNL     1      -7.309  11.193  69.209  1.00  0.00    -0.121 OA 
HETATM    6  P   UNL     1      -8.324  11.993  68.169  1.00  0.00    -0.166 P  
HETATM    7  O   UNL     1     -11.086  11.328  66.619  1.00  0.00    -0.289 OA 
HETATM    8  O   UNL     1     -10.501   8.925  66.482  1.00  0.00    -0.238 OA 
HETATM    9  O   UNL     1      -7.405  11.602  66.854  1.00  0.00    -0.143 OA 
HETATM   10  O   UNL     1      -7.592  13.332  68.435  1.00  0.00    -0.124 OA 
HETATM   11  O   UNL     1     -10.359  10.379  64.686  1.00  0.00    -0.314 OA 
ENDROOT
BRANCH   2  12
HETATM   12  C   UNL     1     -10.312  10.223  68.931  1.00  0.00    -0.221 C  
BRANCH  12  13
HETATM   13  C   UNL     1     -10.184   9.085  69.922  1.00  0.00    -0.214 A  
HETATM   14  C   UNL     1     -10.803   7.869  69.692  1.00  0.00    -0.176 A  
HETATM   15  N   UNL     1     -10.843   6.852  70.588  1.00  0.00    -0.236 NA 
HETATM   16  C   UNL     1     -10.236   7.069  71.775  1.00  0.00    -0.192 A  
HETATM   17  C   UNL     1      -9.579   8.232  72.102  1.00  0.00    -0.338 A  
HETATM   18  C   UNL     1      -9.545   9.265  71.163  1.00  0.00    -0.305 A  
ENDBRANCH  12  13
ENDBRANCH   2  12
TORSDOF 2
ENDMDL
MODEL      123
REMARK 921   NORMALIZED FREE ENERGY PREDICTED BY IDOCK:   -3.25 KCAL/MOL
REMARK 922        TOTAL FREE ENERGY PREDICTED BY IDOCK:   -3.86 KCAL/MOL
REMARK 923 INTER-LIGAND FREE ENERGY PREDICTED BY IDOCK:   -4.11 KCAL/MOL
REMARK 924 INTRA-LIGAND FREE ENERGY PREDICTED BY IDOCK:    0.25 KCAL/MOL
REMARK 927      BINDING AFFINITY PREDICTED BY RF-SCORE:    0.00 PKD
ROOT
HETATM    1  O   UNL     1     -10.835  15.886  67.004  1.00  0.00    -0.316 OA 
HETATM    2  C   UNL     1     -10.755  14.418  66.988  1.00  0.00    -0.285 C  
HETATM    3  H   UNL     1     -11.706  16.123  67.298  1.00  0.00     0.000 HD 
HETATM    4  P   UNL     1     -12.078  13.835  65.867  1.00  0.00    -0.472 P  
HETATM    5  O   UNL     1     -10.346  15.104  69.298  1.00  0.00    -0.238 OA 
HETATM    6  P   UNL     1     -11.026  13.731  68.661  1.00  0.00    -0.281 P  
HETATM    7  O   UNL     1     -11.295  12.398  65.724  1.00  0.00    -0.320 OA 
HETATM    8  O   UNL     1     -11.292  14.628  64.645  1.00  0.00    -0.387 OA 
HETATM    9  O   UNL     1     -12.520  14.428  68.563  1.00  0.00    -0.101 OA 
HETATM   10  O   UNL     1     -11.257  13.150  70.078  1.00  0.00     0.008 OA 
HETATM   11  O   UNL     1     -13.199  13.342  64.919  1.00  0.00    -0.703 OA 
ENDROOT
BRANCH   2  12
HETATM   12  C   UNL     1      -9.317  14.025  66.503  1.00  0.00    -0.274 C  
BRANCH  12  13
HETATM   13  C   UNL     1      -8.446  13.188  67.416  1.00  0.00    -0.201 A  
HETATM   14  C   UNL     1      -7.476  13.776  68.208  1.00  0.00    -0.120 A  
HETATM   15  N   UNL     1      -6.575  13.085  68.950  1.00  0.00    -0.090 NA 
HETATM   16  C   UNL     1      -6.649  11.738  68.888  1.00  0.00    -0.082 A  
HETATM   17  C   UNL     1      -7.583  11.051  68.147  1.00  0.00    -0.095 A  
HETATM   18  C   UNL     1      -8.504  11.782  67.394  1.00  0.00    -0.158 A  
ENDBRANCH  12  13
ENDBRANCH   2  12
TORSDOF 2
ENDMDL
MODEL      124
REMARK 921   NORMALIZED FREE ENERGY PREDICTED BY IDOCK:   -3.23 KCAL/MOL
REMARK 922        TOTAL FREE ENERGY PREDICTED BY IDOCK:   -3.84 KCAL/MOL
REMARK 923 INTER-LIGAND FREE ENERGY PREDICTED BY IDOCK:   -3.55 KCAL/MOL
REMARK 924 INTRA-LIGAND FREE ENERGY PREDICTED BY IDOCK:   -0.29 KCAL/MOL
REMARK 927      BINDING AFFINITY PREDICTED BY RF-SCORE:    0.00 PKD
ROOT
HETATM    1  O   UNL     1      -8.073  10.688  67.068  1.00  0.00    -0.116 OA 
HETATM    2  C   UNL     1      -8.783   9.449  66.721  1.00  0.00    -0.127 C  
HETATM    3  H   UNL     1      -7.149  10.482  67.135  1.00  0.00     0.000 HD 
HETATM    4  P   UNL     1      -8.407   8.243  68.045  1.00  0.00    -0.129 P  
HETATM    5  O   UNL     1      -7.905  10.349  64.625  1.00  0.00    -0.145 OA 
HETATM    6  P   UNL     1      -8.203   8.792  65.115  1.00  0.00    -0.162 P  
HETATM    7  O   UNL     1      -9.723   7.369  67.594  1.00  0.00    -0.137 OA 
HETATM    8  O   UNL     1      -9.180   9.264  69.093  1.00  0.00    -0.144 OA 
HETATM    9  O   UNL     1      -6.729   8.664  65.849  1.00  0.00    -0.060 OA 
HETATM   10  O   UNL     1      -7.710   8.236  63.756  1.00  0.00    -0.129 OA 
HETATM   11  O   UNL     1      -8.088   7.223  69.166  1.00  0.00    -0.117 OA 
ENDROOT
BRANCH   2  12
HETATM   12  C   UNL     1     -10.309   9.789  66.610  1.00  0.00    -0.276 C  
BRANCH  12  13
HETATM   13  C   UNL     1     -10.739  11.238  66.696  1.00  0.00    -0.321 A  
HETATM   14  C   UNL     1     -11.329  11.738  67.843  1.00  0.00    -0.292 A  
HETATM   15  N   UNL     1     -11.855  12.984  67.950  1.00  0.00    -0.353 NA 
HETATM   16  C   UNL     1     -11.791  13.762  66.848  1.00  0.00    -0.413 A  
HETATM   17  C   UNL     1     -11.213  13.372  65.662  1.00  0.00    -0.307 A  
HETATM   18  C   UNL     1     -10.673  12.087  65.575  1.00  0.00    -0.318 A  
ENDBRANCH  12  13
ENDBRANCH   2  12
TORSDOF 2
ENDMDL
MODEL      125
REMARK 921   NORMALIZED FREE ENERGY PREDICTED BY IDOCK:   -3.18 KCAL/MOL
REMARK 922        TOTAL FREE ENERGY PREDICTED BY IDOCK:   -3.78 KCAL/MOL
REMARK 923 INTER-LIGAND FREE ENERGY PREDICTED BY IDOCK:   -3.88 KCAL/MOL
REMARK 924 INTRA-LIGAND FREE ENERGY PREDICTED BY IDOCK:    0.10 KCAL/MOL
REMARK 927      BINDING AFFINITY PREDICTED BY RF-SCORE:    0.00 PKD
ROOT
HETATM    1  O   UNL     1      -9.613  11.175  69.536  1.00  0.00    -0.405 OA 
HETATM    2  C   UNL     1      -8.874   9.990  69.076  1.00  0.00    -0.159 C  
HETATM    3  H   UNL     1      -9.495  11.858  68.886  1.00  0.00     0.000 HD 
HETATM    4  P   UNL     1      -7.130  10.505  68.881  1.00  0.00    -0.092 P  
HETATM    5  O   UNL     1     -11.020   9.961  67.906  1.00  0.00    -0.272 OA 
HETATM    6  P   UNL     1      -9.520   9.402  67.469  1.00  0.00    -0.133 P  
HETATM    7  O   UNL     1      -6.679   8.927  68.945  1.00  0.00    -0.052 OA 
HETATM    8  O   UNL     1      -7.110  10.798  70.510  1.00  0.00    -0.158 OA 
HETATM    9  O   UNL     1      -9.058  10.878  66.891  1.00  0.00    -0.151 OA 
HETATM   10  O   UNL     1     -10.067   8.904  66.109  1.00  0.00    -0.291 OA 
HETATM   11  O   UNL     1      -5.653  10.942  68.715  1.00  0.00    -0.041 OA 
ENDROOT
BRANCH   2  12
HETATM   12  C   UNL     1      -9.069   8.863  70.148  1.00  0.00    -0.189 C  
BRANCH  12  13
HETATM   13  C   UNL     1     -10.470   8.563  70.641  1.00  0.00    -0.234 A  
HETATM   14  C   UNL     1     -11.085   9.380  71.572  1.00  0.00    -0.376 A  
HETATM   15  N   UNL     1     -12.278   9.107  72.155  1.00  0.00    -0.360 NA 
HETATM   16  C   UNL     1     -12.880   7.955  71.789  1.00  0.00    -0.328 A  
HETATM   17  C   UNL     1     -12.366   7.080  70.861  1.00  0.00    -0.361 A  
HETATM   18  C   UNL     1     -11.138   7.381  70.269  1.00  0.00    -0.278 A  
ENDBRANCH  12  13
ENDBRANCH   2  12
TORSDOF 2
ENDMDL
MODEL      126
REMARK 921   NORMALIZED FREE ENERGY PREDICTED BY IDOCK:   -3.17 KCAL/MOL
REMARK 922        TOTAL FREE ENERGY PREDICTED BY IDOCK:   -3.78 KCAL/MOL
REMARK 923 INTER-LIGAND FREE ENERGY PREDICTED BY IDOCK:   -3.52 KCAL/MOL
REMARK 924 INTRA-LIGAND FREE ENERGY PREDICTED BY IDOCK:   -0.26 KCAL/MOL
REMARK 927      BINDING AFFINITY PREDICTED BY RF-SCORE:    0.00 PKD
ROOT
HETATM    1  O   UNL     1      -7.712   9.154  67.113  1.00  0.00    -0.097 OA 
HETATM    2  C   UNL     1      -8.590  10.005  66.296  1.00  0.00    -0.129 C  
HETATM    3  H   UNL     1      -6.831   9.500  67.045  1.00  0.00     0.000 HD 
HETATM    4  P   UNL     1      -7.927   9.955  64.592  1.00  0.00    -0.151 P  
HETATM    5  O   UNL     1      -8.320  11.151  68.439  1.00  0.00    -0.134 OA 
HETATM    6  P   UNL     1      -8.577  11.730  66.905  1.00  0.00    -0.164 P  
HETATM    7  O   UNL     1      -9.382  10.473  64.033  1.00  0.00    -0.220 OA 
HETATM    8  O   UNL     1      -8.262   8.334  64.587  1.00  0.00    -0.157 OA 
HETATM    9  O   UNL     1      -6.965  11.706  66.548  1.00  0.00    -0.076 OA 
HETATM   10  O   UNL     1      -8.566  13.190  67.421  1.00  0.00    -0.183 OA 
HETATM   11  O   UNL     1      -7.364   9.913  63.149  1.00  0.00    -0.121 OA 
ENDROOT
BRANCH   2  12
HETATM   12  C   UNL     1     -10.046   9.435  66.410  1.00  0.00    -0.332 C  
BRANCH  12  13
HETATM   13  C   UNL     1     -10.307   8.295  67.372  1.00  0.00    -0.350 A  
HETATM   14  C   UNL     1     -10.548   7.015  66.908  1.00  0.00    -0.301 A  
HETATM   15  N   UNL     1     -10.917   5.975  67.697  1.00  0.00    -0.296 NA 
HETATM   16  C   UNL     1     -11.055   6.236  69.015  1.00  0.00    -0.378 A  
HETATM   17  C   UNL     1     -10.825   7.467  69.583  1.00  0.00    -0.222 A  
HETATM   18  C   UNL     1     -10.442   8.523  68.755  1.00  0.00    -0.208 A  
ENDBRANCH  12  13
ENDBRANCH   2  12
TORSDOF 2
ENDMDL
MODEL      127
REMARK 921   NORMALIZED FREE ENERGY PREDICTED BY IDOCK:   -3.17 KCAL/MOL
REMARK 922        TOTAL FREE ENERGY PREDICTED BY IDOCK:   -3.77 KCAL/MOL
REMARK 923 INTER-LIGAND FREE ENERGY PREDICTED BY IDOCK:   -3.48 KCAL/MOL
REMARK 924 INTRA-LIGAND FREE ENERGY PREDICTED BY IDOCK:   -0.30 KCAL/MOL
REMARK 927      BINDING AFFINITY PREDICTED BY RF-SCORE:    0.00 PKD
ROOT
HETATM    1  O   UNL     1      -9.114  10.023  70.315  1.00  0.00    -0.365 OA 
HETATM    2  C   UNL     1     -10.392   9.768  69.634  1.00  0.00    -0.238 C  
HETATM    3  H   UNL     1      -9.310  10.289  71.205  1.00  0.00     0.000 HD 
HETATM    4  P   UNL     1     -11.352  11.323  69.727  1.00  0.00    -0.204 P  
HETATM    5  O   UNL     1      -9.872   7.743  70.901  1.00  0.00    -0.176 OA 
HETATM    6  P   UNL     1     -11.319   8.428  70.466  1.00  0.00    -0.097 P  
HETATM    7  O   UNL     1     -12.285  10.796  68.481  1.00  0.00    -0.470 OA 
HETATM    8  O   UNL     1     -10.162  12.026  68.817  1.00  0.00    -0.204 OA 
HETATM    9  O   UNL     1     -11.325   9.427  71.781  1.00  0.00    -0.379 OA 
HETATM   10  O   UNL     1     -12.104   7.294  71.171  1.00  0.00    -0.316 OA 
HETATM   11  O   UNL     1     -12.165  12.639  69.806  1.00  0.00    -0.244 OA 
ENDROOT
BRANCH   2  12
HETATM   12  C   UNL     1     -10.069   9.328  68.165  1.00  0.00    -0.222 C  
BRANCH  12  13
HETATM   13  C   UNL     1      -8.621   9.141  67.764  1.00  0.00    -0.121 A  
HETATM   14  C   UNL     1      -7.928  10.145  67.111  1.00  0.00    -0.109 A  
HETATM   15  N   UNL     1      -6.677  10.005  66.608  1.00  0.00    -0.078 NA 
HETATM   16  C   UNL     1      -6.095   8.796  66.762  1.00  0.00    -0.058 A  
HETATM   17  C   UNL     1      -6.686   7.735  67.409  1.00  0.00    -0.068 A  
HETATM   18  C   UNL     1      -7.973   7.901  67.923  1.00  0.00    -0.128 A  
ENDBRANCH  12  13
ENDBRANCH   2  12
TORSDOF 2
ENDMDL
MODEL      128
REMARK 921   NORMALIZED FREE ENERGY PREDICTED BY IDOCK:   -3.16 KCAL/MOL
REMARK 922        TOTAL FREE ENERGY PREDICTED BY IDOCK:   -3.77 KCAL/MOL
REMARK 923 INTER-LIGAND FREE ENERGY PREDICTED BY IDOCK:   -3.76 KCAL/MOL
REMARK 924 INTRA-LIGAND FREE ENERGY PREDICTED BY IDOCK:   -0.01 KCAL/MOL
REMARK 927      BINDING AFFINITY PREDICTED BY RF-SCORE:    0.00 PKD
ROOT
HETATM    1  O   UNL     1     -11.270   9.275  68.044  1.00  0.00    -0.506 OA 
HETATM    2  C   UNL     1      -9.813   9.083  68.054  1.00  0.00    -0.166 C  
HETATM    3  H   UNL     1     -11.525   9.500  67.157  1.00  0.00     0.000 HD 
HETATM    4  P   UNL     1      -9.075  10.650  67.466  1.00  0.00    -0.138 P  
HETATM    5  O   UNL     1     -10.778   6.985  67.253  1.00  0.00    -0.281 OA 
HETATM    6  P   UNL     1      -9.327   7.722  66.933  1.00  0.00    -0.192 P  
HETATM    7  O   UNL     1      -7.646  10.208  68.145  1.00  0.00    -0.086 OA 
HETATM    8  O   UNL     1      -9.729  11.375  68.802  1.00  0.00    -0.197 OA 
HETATM    9  O   UNL     1      -9.979   8.651  65.734  1.00  0.00    -0.072 OA 
HETATM   10  O   UNL     1      -8.916   6.570  65.983  1.00  0.00    -0.157 OA 
HETATM   11  O   UNL     1      -8.450  11.977  66.968  1.00  0.00    -0.172 OA 
ENDROOT
BRANCH   2  12
HETATM   12  C   UNL     1      -9.391   8.712  69.517  1.00  0.00    -0.153 C  
BRANCH  12  13
HETATM   13  C   UNL     1     -10.314   7.837  70.340  1.00  0.00    -0.212 A  
HETATM   14  C   UNL     1     -11.381   8.382  71.031  1.00  0.00    -0.266 A  
HETATM   15  N   UNL     1     -12.169   7.686  71.888  1.00  0.00    -0.296 NA 
HETATM   16  C   UNL     1     -11.867   6.381  72.063  1.00  0.00    -0.333 A  
HETATM   17  C   UNL     1     -10.840   5.736  71.414  1.00  0.00    -0.316 A  
HETATM   18  C   UNL     1     -10.043   6.469  70.533  1.00  0.00    -0.213 A  
ENDBRANCH  12  13
ENDBRANCH   2  12
TORSDOF 2
ENDMDL
MODEL      129
REMARK 921   NORMALIZED FREE ENERGY PREDICTED BY IDOCK:   -3.15 KCAL/MOL
REMARK 922        TOTAL FREE ENERGY PREDICTED BY IDOCK:   -3.76 KCAL/MOL
REMARK 923 INTER-LIGAND FREE ENERGY PREDICTED BY IDOCK:   -4.48 KCAL/MOL
REMARK 924 INTRA-LIGAND FREE ENERGY PREDICTED BY IDOCK:    0.72 KCAL/MOL
REMARK 927      BINDING AFFINITY PREDICTED BY RF-SCORE:    0.00 PKD
ROOT
HETATM    1  O   UNL     1      -9.657  11.817  68.898  1.00  0.00    -0.393 OA 
HETATM    2  C   UNL     1      -9.824  10.416  68.487  1.00  0.00    -0.167 C  
HETATM    3  H   UNL     1      -8.864  12.144  68.490  1.00  0.00     0.000 HD 
HETATM    4  P   UNL     1      -8.317   9.529  69.026  1.00  0.00    -0.140 P  
HETATM    5  O   UNL     1     -10.712  11.778  66.663  1.00  0.00    -0.241 OA 
HETATM    6  P   UNL     1      -9.993  10.284  66.670  1.00  0.00    -0.232 P  
HETATM    7  O   UNL     1      -9.136   8.110  68.910  1.00  0.00    -0.147 OA 
HETATM    8  O   UNL     1      -8.747   9.895  70.582  1.00  0.00    -0.105 OA 
HETATM    9  O   UNL     1      -8.475  10.934  66.614  1.00  0.00    -0.140 OA 
HETATM   10  O   UNL     1     -10.134  10.173  65.132  1.00  0.00    -0.326 OA 
HETATM   11  O   UNL     1      -7.041   8.779  69.482  1.00  0.00    -0.053 OA 
ENDROOT
BRANCH   2  12
HETATM   12  C   UNL     1     -11.133   9.875  69.160  1.00  0.00    -0.197 C  
BRANCH  12  13
HETATM   13  C   UNL     1     -11.940  10.811  70.036  1.00  0.00    -0.427 A  
HETATM   14  C   UNL     1     -11.929  12.176  69.815  1.00  0.00    -0.302 A  
HETATM   15  N   UNL     1     -12.518  13.085  70.632  1.00  0.00    -0.308 NA 
HETATM   16  C   UNL     1     -13.143  12.598  71.726  1.00  0.00    -0.360 A  
HETATM   17  C   UNL     1     -13.229  11.260  72.031  1.00  0.00    -0.437 A  
HETATM   18  C   UNL     1     -12.619  10.341  71.176  1.00  0.00    -0.501 A  
ENDBRANCH  12  13
ENDBRANCH   2  12
TORSDOF 2
ENDMDL
MODEL      130
REMARK 921   NORMALIZED FREE ENERGY PREDICTED BY IDOCK:   -3.15 KCAL/MOL
REMARK 922        TOTAL FREE ENERGY PREDICTED BY IDOCK:   -3.76 KCAL/MOL
REMARK 923 INTER-LIGAND FREE ENERGY PREDICTED BY IDOCK:   -4.09 KCAL/MOL
REMARK 924 INTRA-LIGAND FREE ENERGY PREDICTED BY IDOCK:    0.33 KCAL/MOL
REMARK 927      BINDING AFFINITY PREDICTED BY RF-SCORE:    0.00 PKD
ROOT
HETATM    1  O   UNL     1      -9.295  15.572  66.038  1.00  0.00    -0.316 OA 
HETATM    2  C   UNL     1      -8.830  16.527  67.055  1.00  0.00    -0.195 C  
HETATM    3  H   UNL     1     -10.153  15.264  66.303  1.00  0.00     0.000 HD 
HETATM    4  P   UNL     1      -8.814  15.627  68.648  1.00  0.00    -0.233 P  
HETATM    5  O   UNL     1     -10.307  17.777  65.561  1.00  0.00    -0.623 OA 
HETATM    6  P   UNL     1      -9.966  17.956  67.174  1.00  0.00    -0.361 P  
HETATM    7  O   UNL     1      -7.792  16.762  69.254  1.00  0.00    -0.195 OA 
HETATM    8  O   UNL     1      -7.663  14.635  67.991  1.00  0.00    -0.112 OA 
HETATM    9  O   UNL     1     -11.107  16.847  67.614  1.00  0.00    -0.222 OA 
HETATM   10  O   UNL     1     -10.927  19.166  67.275  1.00  0.00    -0.478 OA 
HETATM   11  O   UNL     1      -8.800  14.864  69.996  1.00  0.00     0.190 OA 
ENDROOT
BRANCH   2  12
HETATM   12  C   UNL     1      -7.414  17.036  66.618  1.00  0.00    -0.300 C  
BRANCH  12  13
HETATM   13  C   UNL     1      -7.192  18.527  66.470  1.00  0.00    -0.254 A  
HETATM   14  C   UNL     1      -7.042  19.103  65.221  1.00  0.00     0.066 A  
HETATM   15  N   UNL     1      -6.712  20.402  65.015  1.00  0.00    -0.304 NA 
HETATM   16  C   UNL     1      -6.519  21.158  66.117  1.00  0.00    -0.153 A  
HETATM   17  C   UNL     1      -6.659  20.692  67.404  1.00  0.00    -0.346 A  
HETATM   18  C   UNL     1      -7.002  19.353  67.594  1.00  0.00    -0.249 A  
ENDBRANCH  12  13
ENDBRANCH   2  12
TORSDOF 2
ENDMDL
MODEL      131
REMARK 921   NORMALIZED FREE ENERGY PREDICTED BY IDOCK:   -3.14 KCAL/MOL
REMARK 922        TOTAL FREE ENERGY PREDICTED BY IDOCK:   -3.75 KCAL/MOL
REMARK 923 INTER-LIGAND FREE ENERGY PREDICTED BY IDOCK:   -3.54 KCAL/MOL
REMARK 924 INTRA-LIGAND FREE ENERGY PREDICTED BY IDOCK:   -0.21 KCAL/MOL
REMARK 927      BINDING AFFINITY PREDICTED BY RF-SCORE:    0.00 PKD
ROOT
HETATM    1  O   UNL     1      -9.132   7.312  69.109  1.00  0.00    -0.138 OA 
HETATM    2  C   UNL     1      -9.212   5.854  68.941  1.00  0.00    -0.119 C  
HETATM    3  H   UNL     1      -8.554   7.648  68.435  1.00  0.00     0.000 HD 
HETATM    4  P   UNL     1      -7.503   5.217  69.075  1.00  0.00    -0.070 P  
HETATM    5  O   UNL     1     -10.793   6.819  67.345  1.00  0.00    -0.287 OA 
HETATM    6  P   UNL     1      -9.897   5.423  67.300  1.00  0.00    -0.192 P  
HETATM    7  O   UNL     1      -8.107   3.722  69.392  1.00  0.00    -0.054 OA 
HETATM    8  O   UNL     1      -7.494   5.777  70.632  1.00  0.00    -0.081 OA 
HETATM    9  O   UNL     1      -8.576   6.204  66.689  1.00  0.00    -0.113 OA 
HETATM   10  O   UNL     1     -10.476   5.059  65.911  1.00  0.00    -0.232 OA 
HETATM   11  O   UNL     1      -6.055   4.678  69.187  1.00  0.00    -0.027 OA 
ENDROOT
BRANCH   2  12
HETATM   12  C   UNL     1     -10.168   5.298  70.053  1.00  0.00    -0.358 C  
BRANCH  12  13
HETATM   13  C   UNL     1     -10.927   6.283  70.917  1.00  0.00    -0.344 A  
HETATM   14  C   UNL     1     -12.099   6.865  70.469  1.00  0.00    -0.261 A  
HETATM   15  N   UNL     1     -12.763   7.847  71.127  1.00  0.00    -0.211 NA 
HETATM   16  C   UNL     1     -12.220   8.269  72.289  1.00  0.00    -0.370 A  
HETATM   17  C   UNL     1     -11.069   7.749  72.834  1.00  0.00    -0.457 A  
HETATM   18  C   UNL     1     -10.403   6.735  72.143  1.00  0.00    -0.221 A  
ENDBRANCH  12  13
ENDBRANCH   2  12
TORSDOF 2
ENDMDL
MODEL      132
REMARK 921   NORMALIZED FREE ENERGY PREDICTED BY IDOCK:   -3.13 KCAL/MOL
REMARK 922        TOTAL FREE ENERGY PREDICTED BY IDOCK:   -3.74 KCAL/MOL
REMARK 923 INTER-LIGAND FREE ENERGY PREDICTED BY IDOCK:   -3.65 KCAL/MOL
REMARK 924 INTRA-LIGAND FREE ENERGY PREDICTED BY IDOCK:   -0.08 KCAL/MOL
REMARK 927      BINDING AFFINITY PREDICTED BY RF-SCORE:    0.00 PKD
ROOT
HETATM    1  O   UNL     1     -11.054   6.421  71.003  1.00  0.00    -0.264 OA 
HETATM    2  C   UNL     1     -11.081   7.692  71.740  1.00  0.00    -0.242 C  
HETATM    3  H   UNL     1     -11.097   6.624  70.076  1.00  0.00     0.000 HD 
HETATM    4  P   UNL     1     -12.628   8.541  71.260  1.00  0.00    -0.098 P  
HETATM    5  O   UNL     1      -8.765   7.355  71.034  1.00  0.00    -0.136 OA 
HETATM    6  P   UNL     1      -9.647   8.736  71.293  1.00  0.00    -0.287 P  
HETATM    7  O   UNL     1     -12.512   9.472  72.609  1.00  0.00    -0.114 OA 
HETATM    8  O   UNL     1     -13.449   7.277  71.944  1.00  0.00    -0.306 OA 
HETATM    9  O   UNL     1     -10.272   8.711  69.764  1.00  0.00    -0.195 OA 
HETATM   10  O   UNL     1      -8.434   9.620  70.914  1.00  0.00    -0.253 OA 
HETATM   11  O   UNL     1     -13.938   9.261  70.853  1.00  0.00    -0.104 OA 
ENDROOT
BRANCH   2  12
HETATM   12  C   UNL     1     -11.009   7.356  73.270  1.00  0.00    -0.367 C  
BRANCH  12  13
HETATM   13  C   UNL     1     -10.457   6.012  73.694  1.00  0.00    -0.282 A  
HETATM   14  C   UNL     1      -9.144   5.881  74.108  1.00  0.00    -0.128 A  
HETATM   15  N   UNL     1      -8.543   4.695  74.377  1.00  0.00    -0.106 NA 
HETATM   16  C   UNL     1      -9.298   3.587  74.217  1.00  0.00    -0.092 A  
HETATM   17  C   UNL     1     -10.616   3.603  73.827  1.00  0.00    -0.287 A  
HETATM   18  C   UNL     1     -11.217   4.834  73.559  1.00  0.00    -0.392 A  
ENDBRANCH  12  13
ENDBRANCH   2  12
TORSDOF 2
ENDMDL
MODEL      133
REMARK 921   NORMALIZED FREE ENERGY PREDICTED BY IDOCK:   -3.11 KCAL/MOL
REMARK 922        TOTAL FREE ENERGY PREDICTED BY IDOCK:   -3.71 KCAL/MOL
REMARK 923 INTER-LIGAND FREE ENERGY PREDICTED BY IDOCK:   -3.46 KCAL/MOL
REMARK 924 INTRA-LIGAND FREE ENERGY PREDICTED BY IDOCK:   -0.25 KCAL/MOL
REMARK 927      BINDING AFFINITY PREDICTED BY RF-SCORE:    0.00 PKD
ROOT
HETATM    1  O   UNL     1     -10.264   4.370  71.112  1.00  0.00    -0.157 OA 
HETATM    2  C   UNL     1      -9.504   5.588  71.424  1.00  0.00    -0.148 C  
HETATM    3  H   UNL     1     -10.605   4.026  71.929  1.00  0.00     0.000 HD 
HETATM    4  P   UNL     1      -8.194   5.100  72.604  1.00  0.00    -0.113 P  
HETATM    5  O   UNL     1     -11.854   6.252  71.316  1.00  0.00    -0.303 OA 
HETATM    6  P   UNL     1     -10.581   6.850  72.196  1.00  0.00    -0.226 P  
HETATM    7  O   UNL     1      -7.367   6.466  72.219  1.00  0.00    -0.089 OA 
HETATM    8  O   UNL     1      -7.578   4.135  71.408  1.00  0.00    -0.060 OA 
HETATM    9  O   UNL     1     -10.796   5.739  73.399  1.00  0.00    -0.259 OA 
HETATM   10  O   UNL     1     -11.493   7.917  72.850  1.00  0.00    -0.403 OA 
HETATM   11  O   UNL     1      -7.085   4.686  73.603  1.00  0.00    -0.068 OA 
ENDROOT
BRANCH   2  12
HETATM   12  C   UNL     1      -8.940   6.156  70.075  1.00  0.00    -0.148 C  
BRANCH  12  13
HETATM   13  C   UNL     1      -9.579   5.712  68.776  1.00  0.00    -0.166 A  
HETATM   14  C   UNL     1      -9.122   4.592  68.106  1.00  0.00    -0.124 A  
HETATM   15  N   UNL     1      -9.554   4.208  66.879  1.00  0.00    -0.198 NA 
HETATM   16  C   UNL     1     -10.488   4.990  66.296  1.00  0.00    -0.303 A  
HETATM   17  C   UNL     1     -11.023   6.115  66.879  1.00  0.00    -0.384 A  
HETATM   18  C   UNL     1     -10.567   6.491  68.144  1.00  0.00    -0.307 A  
ENDBRANCH  12  13
ENDBRANCH   2  12
TORSDOF 2
ENDMDL
MODEL      134
REMARK 921   NORMALIZED FREE ENERGY PREDICTED BY IDOCK:   -3.11 KCAL/MOL
REMARK 922        TOTAL FREE ENERGY PREDICTED BY IDOCK:   -3.71 KCAL/MOL
REMARK 923 INTER-LIGAND FREE ENERGY PREDICTED BY IDOCK:   -3.41 KCAL/MOL
REMARK 924 INTRA-LIGAND FREE ENERGY PREDICTED BY IDOCK:   -0.29 KCAL/MOL
REMARK 927      BINDING AFFINITY PREDICTED BY RF-SCORE:    0.00 PKD
ROOT
HETATM    1  O   UNL     1     -11.237   7.191  67.254  1.00  0.00    -0.591 OA 
HETATM    2  C   UNL     1     -10.158   7.566  68.179  1.00  0.00    -0.183 C  
HETATM    3  H   UNL     1     -11.965   7.781  67.405  1.00  0.00     0.000 HD 
HETATM    4  P   UNL     1     -10.850   7.438  69.868  1.00  0.00    -0.186 P  
HETATM    5  O   UNL     1      -9.990   9.087  66.273  1.00  0.00    -0.280 OA 
HETATM    6  P   UNL     1      -9.605   9.283  67.874  1.00  0.00    -0.150 P  
HETATM    7  O   UNL     1      -9.321   7.364  70.465  1.00  0.00    -0.158 OA 
HETATM    8  O   UNL     1     -11.046   5.820  69.586  1.00  0.00    -0.372 OA 
HETATM    9  O   UNL     1     -11.151   9.712  68.268  1.00  0.00    -0.168 OA 
HETATM   10  O   UNL     1      -9.138  10.737  67.617  1.00  0.00    -0.145 OA 
HETATM   11  O   UNL     1     -11.436   7.331  71.297  1.00  0.00    -0.260 OA 
ENDROOT
BRANCH   2  12
HETATM   12  C   UNL     1      -8.955   6.592  67.928  1.00  0.00    -0.112 C  
BRANCH  12  13
HETATM   13  C   UNL     1      -8.925   5.791  66.644  1.00  0.00    -0.123 A  
HETATM   14  C   UNL     1      -9.350   4.475  66.617  1.00  0.00    -0.149 A  
HETATM   15  N   UNL     1      -9.232   3.657  65.542  1.00  0.00    -0.148 NA 
HETATM   16  C   UNL     1      -8.654   4.185  64.442  1.00  0.00    -0.115 A  
HETATM   17  C   UNL     1      -8.211   5.484  64.355  1.00  0.00    -0.127 A  
HETATM   18  C   UNL     1      -8.346   6.311  65.471  1.00  0.00    -0.147 A  
ENDBRANCH  12  13
ENDBRANCH   2  12
TORSDOF 2
ENDMDL
MODEL      135
REMARK 921   NORMALIZED FREE ENERGY PREDICTED BY IDOCK:   -3.10 KCAL/MOL
REMARK 922        TOTAL FREE ENERGY PREDICTED BY IDOCK:   -3.70 KCAL/MOL
REMARK 923 INTER-LIGAND FREE ENERGY PREDICTED BY IDOCK:   -4.43 KCAL/MOL
REMARK 924 INTRA-LIGAND FREE ENERGY PREDICTED BY IDOCK:    0.74 KCAL/MOL
REMARK 927      BINDING AFFINITY PREDICTED BY RF-SCORE:    0.00 PKD
ROOT
HETATM    1  O   UNL     1     -10.575  13.243  65.930  1.00  0.00    -0.274 OA 
HETATM    2  C   UNL     1     -10.402  13.493  67.368  1.00  0.00    -0.237 C  
HETATM    3  H   UNL     1      -9.711  13.193  65.540  1.00  0.00     0.000 HD 
HETATM    4  P   UNL     1      -9.454  15.050  67.517  1.00  0.00    -0.208 P  
HETATM    5  O   UNL     1     -10.121  11.086  67.049  1.00  0.00    -0.186 OA 
HETATM    6  P   UNL     1      -9.469  12.132  68.159  1.00  0.00    -0.186 P  
HETATM    7  O   UNL     1      -9.980  15.197  69.067  1.00  0.00    -0.221 OA 
HETATM    8  O   UNL     1     -10.730  15.811  66.787  1.00  0.00    -0.315 OA 
HETATM    9  O   UNL     1      -8.240  12.560  67.143  1.00  0.00    -0.180 OA 
HETATM   10  O   UNL     1      -8.679  10.981  68.828  1.00  0.00    -0.157 OA 
HETATM   11  O   UNL     1      -8.651  16.369  67.643  1.00  0.00    -0.172 OA 
ENDROOT
BRANCH   2  12
HETATM   12  C   UNL     1     -11.829  13.573  68.013  1.00  0.00    -0.400 C  
BRANCH  12  13
HETATM   13  C   UNL     1     -12.092  12.811  69.294  1.00  0.00    -0.224 A  
HETATM   14  C   UNL     1     -12.277  11.440  69.280  1.00  0.00    -0.204 A  
HETATM   15  N   UNL     1     -12.643  10.709  70.362  1.00  0.00    -0.340 NA 
HETATM   16  C   UNL     1     -12.838  11.389  71.513  1.00  0.00    -0.403 A  
HETATM   17  C   UNL     1     -12.665  12.748  71.642  1.00  0.00    -0.293 A  
HETATM   18  C   UNL     1     -12.284  13.481  70.517  1.00  0.00    -0.433 A  
ENDBRANCH  12  13
ENDBRANCH   2  12
TORSDOF 2
ENDMDL
MODEL      136
REMARK 921   NORMALIZED FREE ENERGY PREDICTED BY IDOCK:   -3.07 KCAL/MOL
REMARK 922        TOTAL FREE ENERGY PREDICTED BY IDOCK:   -3.67 KCAL/MOL
REMARK 923 INTER-LIGAND FREE ENERGY PREDICTED BY IDOCK:   -4.24 KCAL/MOL
REMARK 924 INTRA-LIGAND FREE ENERGY PREDICTED BY IDOCK:    0.57 KCAL/MOL
REMARK 927      BINDING AFFINITY PREDICTED BY RF-SCORE:    0.00 PKD
ROOT
HETATM    1  O   UNL     1      -8.019   7.346  70.703  1.00  0.00    -0.096 OA 
HETATM    2  C   UNL     1      -9.358   7.947  70.616  1.00  0.00    -0.158 C  
HETATM    3  H   UNL     1      -8.130   6.417  70.865  1.00  0.00     0.000 HD 
HETATM    4  P   UNL     1     -10.196   7.587  72.202  1.00  0.00    -0.219 P  
HETATM    5  O   UNL     1      -8.891   6.985  68.418  1.00  0.00    -0.125 OA 
HETATM    6  P   UNL     1     -10.314   7.213  69.240  1.00  0.00    -0.211 P  
HETATM    7  O   UNL     1     -11.253   8.807  71.896  1.00  0.00    -0.322 OA 
HETATM    8  O   UNL     1      -9.029   8.497  72.942  1.00  0.00    -0.300 OA 
HETATM    9  O   UNL     1     -10.153   5.789  70.061  1.00  0.00    -0.185 OA 
HETATM   10  O   UNL     1     -11.123   6.592  68.075  1.00  0.00    -0.289 OA 
HETATM   11  O   UNL     1     -10.906   7.281  73.544  1.00  0.00    -0.375 OA 
ENDROOT
BRANCH   2  12
HETATM   12  C   UNL     1      -9.175   9.481  70.349  1.00  0.00    -0.305 C  
BRANCH  12  13
HETATM   13  C   UNL     1      -9.857  10.094  69.144  1.00  0.00    -0.225 A  
HETATM   14  C   UNL     1     -11.141  10.600  69.234  1.00  0.00    -0.252 A  
HETATM   15  N   UNL     1     -11.863  11.044  68.175  1.00  0.00    -0.603 NA 
HETATM   16  C   UNL     1     -11.266  10.971  66.965  1.00  0.00    -0.181 A  
HETATM   17  C   UNL     1      -9.989  10.502  66.764  1.00  0.00    -0.252 A  
HETATM   18  C   UNL     1      -9.262  10.054  67.868  1.00  0.00    -0.145 A  
ENDBRANCH  12  13
ENDBRANCH   2  12
TORSDOF 2
ENDMDL
MODEL      137
REMARK 921   NORMALIZED FREE ENERGY PREDICTED BY IDOCK:   -3.06 KCAL/MOL
REMARK 922        TOTAL FREE ENERGY PREDICTED BY IDOCK:   -3.66 KCAL/MOL
REMARK 923 INTER-LIGAND FREE ENERGY PREDICTED BY IDOCK:   -4.01 KCAL/MOL
REMARK 924 INTRA-LIGAND FREE ENERGY PREDICTED BY IDOCK:    0.35 KCAL/MOL
REMARK 927      BINDING AFFINITY PREDICTED BY RF-SCORE:    0.00 PKD
ROOT
HETATM    1  O   UNL     1      -9.079   9.688  69.643  1.00  0.00    -0.179 OA 
HETATM    2  C   UNL     1     -10.514   9.605  69.335  1.00  0.00    -0.220 C  
HETATM    3  H   UNL     1      -8.994   9.939  70.555  1.00  0.00     0.000 HD 
HETATM    4  P   UNL     1     -11.222  11.252  69.699  1.00  0.00    -0.180 P  
HETATM    5  O   UNL     1      -9.914   7.486  70.397  1.00  0.00    -0.184 OA 
HETATM    6  P   UNL     1     -11.333   8.345  70.379  1.00  0.00    -0.026 P  
HETATM    7  O   UNL     1     -12.513  10.882  68.752  1.00  0.00    -0.431 OA 
HETATM    8  O   UNL     1     -10.248  11.854  68.504  1.00  0.00    -0.213 OA 
HETATM    9  O   UNL     1     -10.865   9.285  71.653  1.00  0.00    -0.357 OA 
HETATM   10  O   UNL     1     -12.026   7.279  71.263  1.00  0.00    -0.294 OA 
HETATM   11  O   UNL     1     -11.822  12.647  70.007  1.00  0.00    -0.329 OA 
ENDROOT
BRANCH   2  12
HETATM   12  C   UNL     1     -10.655   9.190  67.830  1.00  0.00    -0.272 C  
BRANCH  12  13
HETATM   13  C   UNL     1     -10.141   7.832  67.400  1.00  0.00    -0.288 A  
HETATM   14  C   UNL     1     -11.016   6.807  67.089  1.00  0.00    -0.388 A  
HETATM   15  N   UNL     1     -10.634   5.533  66.823  1.00  0.00    -0.291 NA 
HETATM   16  C   UNL     1      -9.310   5.275  66.878  1.00  0.00    -0.127 A  
HETATM   17  C   UNL     1      -8.353   6.222  67.161  1.00  0.00    -0.109 A  
HETATM   18  C   UNL     1      -8.767   7.529  67.428  1.00  0.00    -0.124 A  
ENDBRANCH  12  13
ENDBRANCH   2  12
TORSDOF 2
ENDMDL
MODEL      138
REMARK 921   NORMALIZED FREE ENERGY PREDICTED BY IDOCK:   -3.06 KCAL/MOL
REMARK 922        TOTAL FREE ENERGY PREDICTED BY IDOCK:   -3.65 KCAL/MOL
REMARK 923 INTER-LIGAND FREE ENERGY PREDICTED BY IDOCK:   -4.20 KCAL/MOL
REMARK 924 INTRA-LIGAND FREE ENERGY PREDICTED BY IDOCK:    0.55 KCAL/MOL
REMARK 927      BINDING AFFINITY PREDICTED BY RF-SCORE:    0.00 PKD
ROOT
HETATM    1  O   UNL     1     -10.654  13.109  68.496  1.00  0.00    -0.250 OA 
HETATM    2  C   UNL     1     -10.315  11.804  67.911  1.00  0.00    -0.193 C  
HETATM    3  H   UNL     1     -10.090  13.243  69.249  1.00  0.00     0.000 HD 
HETATM    4  P   UNL     1     -10.563  10.560  69.229  1.00  0.00    -0.254 P  
HETATM    5  O   UNL     1      -8.674  13.395  67.044  1.00  0.00    -0.216 OA 
HETATM    6  P   UNL     1      -8.571  11.770  67.361  1.00  0.00    -0.177 P  
HETATM    7  O   UNL     1     -10.642   9.388  68.080  1.00  0.00    -0.230 OA 
HETATM    8  O   UNL     1     -12.165  10.976  69.219  1.00  0.00    -0.369 OA 
HETATM    9  O   UNL     1      -8.201  12.028  68.949  1.00  0.00    -0.024 OA 
HETATM   10  O   UNL     1      -7.094  11.741  66.895  1.00  0.00    -0.140 OA 
HETATM   11  O   UNL     1     -10.773   9.507  70.346  1.00  0.00    -0.239 OA 
ENDROOT
BRANCH   2  12
HETATM   12  C   UNL     1     -11.245  11.582  66.669  1.00  0.00    -0.336 C  
BRANCH  12  13
HETATM   13  C   UNL     1     -10.607  11.328  65.320  1.00  0.00    -0.323 A  
HETATM   14  C   UNL     1      -9.888  10.171  65.080  1.00  0.00    -0.325 A  
HETATM   15  N   UNL     1      -9.182   9.933  63.947  1.00  0.00    -0.263 NA 
HETATM   16  C   UNL     1      -9.196  10.906  63.011  1.00  0.00    -0.319 A  
HETATM   17  C   UNL     1      -9.890  12.087  63.139  1.00  0.00    -0.156 A  
HETATM   18  C   UNL     1     -10.614  12.311  64.312  1.00  0.00    -0.387 A  
ENDBRANCH  12  13
ENDBRANCH   2  12
TORSDOF 2
ENDMDL
MODEL      139
REMARK 921   NORMALIZED FREE ENERGY PREDICTED BY IDOCK:   -3.03 KCAL/MOL
REMARK 922        TOTAL FREE ENERGY PREDICTED BY IDOCK:   -3.62 KCAL/MOL
REMARK 923 INTER-LIGAND FREE ENERGY PREDICTED BY IDOCK:   -3.35 KCAL/MOL
REMARK 924 INTRA-LIGAND FREE ENERGY PREDICTED BY IDOCK:   -0.28 KCAL/MOL
REMARK 927      BINDING AFFINITY PREDICTED BY RF-SCORE:    0.00 PKD
ROOT
HETATM    1  O   UNL     1     -11.034   8.105  69.465  1.00  0.00    -0.399 OA 
HETATM    2  C   UNL     1      -9.834   7.697  68.720  1.00  0.00    -0.164 C  
HETATM    3  H   UNL     1     -11.740   8.210  68.839  1.00  0.00     0.000 HD 
HETATM    4  P   UNL     1      -9.514   9.008  67.485  1.00  0.00    -0.146 P  
HETATM    5  O   UNL     1     -11.145   5.666  69.082  1.00  0.00    -0.244 OA 
HETATM    6  P   UNL     1     -10.110   6.105  67.862  1.00  0.00    -0.195 P  
HETATM    7  O   UNL     1      -7.965   8.475  67.352  1.00  0.00    -0.101 OA 
HETATM    8  O   UNL     1      -9.274  10.043  68.754  1.00  0.00    -0.146 OA 
HETATM    9  O   UNL     1     -11.300   6.904  67.041  1.00  0.00    -0.304 OA 
HETATM   10  O   UNL     1     -10.344   4.758  67.135  1.00  0.00    -0.173 OA 
HETATM   11  O   UNL     1      -9.244  10.118  66.440  1.00  0.00    -0.152 OA 
ENDROOT
BRANCH   2  12
HETATM   12  C   UNL     1      -8.668   7.523  69.753  1.00  0.00    -0.140 C  
BRANCH  12  13
HETATM   13  C   UNL     1      -9.007   7.454  71.228  1.00  0.00    -0.140 A  
HETATM   14  C   UNL     1      -8.789   8.538  72.059  1.00  0.00    -0.216 A  
HETATM   15  N   UNL     1      -8.945   8.509  73.406  1.00  0.00    -0.258 NA 
HETATM   16  C   UNL     1      -9.334   7.333  73.944  1.00  0.00    -0.260 A  
HETATM   17  C   UNL     1      -9.595   6.200  73.210  1.00  0.00    -0.148 A  
HETATM   18  C   UNL     1      -9.432   6.251  71.824  1.00  0.00    -0.158 A  
ENDBRANCH  12  13
ENDBRANCH   2  12
TORSDOF 2
ENDMDL
MODEL      140
REMARK 921   NORMALIZED FREE ENERGY PREDICTED BY IDOCK:   -3.03 KCAL/MOL
REMARK 922        TOTAL FREE ENERGY PREDICTED BY IDOCK:   -3.62 KCAL/MOL
REMARK 923 INTER-LIGAND FREE ENERGY PREDICTED BY IDOCK:   -3.51 KCAL/MOL
REMARK 924 INTRA-LIGAND FREE ENERGY PREDICTED BY IDOCK:   -0.11 KCAL/MOL
REMARK 927      BINDING AFFINITY PREDICTED BY RF-SCORE:    0.00 PKD
ROOT
HETATM    1  O   UNL     1      -8.914  11.663  69.174  1.00  0.00    -0.373 OA 
HETATM    2  C   UNL     1     -10.088  11.296  68.369  1.00  0.00    -0.195 C  
HETATM    3  H   UNL     1      -8.581  10.869  69.576  1.00  0.00     0.000 HD 
HETATM    4  P   UNL     1     -11.281  10.511  69.512  1.00  0.00    -0.298 P  
HETATM    5  O   UNL     1      -8.129  10.809  66.991  1.00  0.00    -0.117 OA 
HETATM    6  P   UNL     1      -9.632  10.110  67.053  1.00  0.00    -0.184 P  
HETATM    7  O   UNL     1     -12.480  10.802  68.427  1.00  0.00    -0.179 OA 
HETATM    8  O   UNL     1     -11.360  11.959  70.309  1.00  0.00    -0.073 OA 
HETATM    9  O   UNL     1      -9.195   9.107  68.291  1.00  0.00    -0.132 OA 
HETATM   10  O   UNL     1      -9.246   9.105  65.940  1.00  0.00    -0.193 OA 
HETATM   11  O   UNL     1     -12.291   9.845  70.480  1.00  0.00    -0.241 OA 
ENDROOT
BRANCH   2  12
HETATM   12  C   UNL     1     -10.639  12.606  67.705  1.00  0.00    -0.233 C  
BRANCH  12  13
HETATM   13  C   UNL     1      -9.909  13.909  67.956  1.00  0.00    -0.234 A  
HETATM   14  C   UNL     1      -8.862  14.304  67.144  1.00  0.00    -0.229 A  
HETATM   15  N   UNL     1      -8.080  15.387  67.380  1.00  0.00    -0.164 NA 
HETATM   16  C   UNL     1      -8.361  16.104  68.490  1.00  0.00    -0.195 A  
HETATM   17  C   UNL     1      -9.389  15.810  69.356  1.00  0.00    -0.269 A  
HETATM   18  C   UNL     1     -10.184  14.693  69.092  1.00  0.00    -0.199 A  
ENDBRANCH  12  13
ENDBRANCH   2  12
TORSDOF 2
ENDMDL
MODEL      141
REMARK 921   NORMALIZED FREE ENERGY PREDICTED BY IDOCK:   -3.03 KCAL/MOL
REMARK 922        TOTAL FREE ENERGY PREDICTED BY IDOCK:   -3.62 KCAL/MOL
REMARK 923 INTER-LIGAND FREE ENERGY PREDICTED BY IDOCK:   -3.64 KCAL/MOL
REMARK 924 INTRA-LIGAND FREE ENERGY PREDICTED BY IDOCK:    0.02 KCAL/MOL
REMARK 927      BINDING AFFINITY PREDICTED BY RF-SCORE:    0.00 PKD
ROOT
HETATM    1  O   UNL     1      -8.351  12.082  66.235  1.00  0.00    -0.387 OA 
HETATM    2  C   UNL     1      -9.752  11.639  66.239  1.00  0.00    -0.218 C  
HETATM    3  H   UNL     1      -8.168  12.469  67.082  1.00  0.00     0.000 HD 
HETATM    4  P   UNL     1     -10.768  13.120  66.589  1.00  0.00    -0.285 P  
HETATM    5  O   UNL     1      -8.469   9.875  67.342  1.00  0.00    -0.118 OA 
HETATM    6  P   UNL     1     -10.035  10.384  67.540  1.00  0.00    -0.199 P  
HETATM    7  O   UNL     1     -12.076  12.345  65.968  1.00  0.00    -0.600 OA 
HETATM    8  O   UNL     1     -10.202  13.753  65.169  1.00  0.00    -0.351 OA 
HETATM    9  O   UNL     1      -9.592  11.572  68.599  1.00  0.00    -0.193 OA 
HETATM   10  O   UNL     1     -10.275   9.323  68.642  1.00  0.00    -0.187 OA 
HETATM   11  O   UNL     1     -11.627  14.374  66.886  1.00  0.00    -0.357 OA 
ENDROOT
BRANCH   2  12
HETATM   12  C   UNL     1     -10.055  10.999  64.840  1.00  0.00    -0.359 C  
BRANCH  12  13
HETATM   13  C   UNL     1      -8.925  10.323  64.092  1.00  0.00    -0.263 A  
HETATM   14  C   UNL     1      -8.684   8.969  64.241  1.00  0.00    -0.108 A  
HETATM   15  N   UNL     1      -7.618   8.321  63.708  1.00  0.00    -0.125 NA 
HETATM   16  C   UNL     1      -6.750   9.072  62.995  1.00  0.00    -0.090 A  
HETATM   17  C   UNL     1      -6.903  10.420  62.771  1.00  0.00    -0.118 A  
HETATM   18  C   UNL     1      -8.009  11.067  63.325  1.00  0.00     0.313 A  
ENDBRANCH  12  13
ENDBRANCH   2  12
TORSDOF 2
ENDMDL
MODEL      142
REMARK 921   NORMALIZED FREE ENERGY PREDICTED BY IDOCK:   -3.01 KCAL/MOL
REMARK 922        TOTAL FREE ENERGY PREDICTED BY IDOCK:   -3.60 KCAL/MOL
REMARK 923 INTER-LIGAND FREE ENERGY PREDICTED BY IDOCK:   -3.76 KCAL/MOL
REMARK 924 INTRA-LIGAND FREE ENERGY PREDICTED BY IDOCK:    0.15 KCAL/MOL
REMARK 927      BINDING AFFINITY PREDICTED BY RF-SCORE:    0.00 PKD
ROOT
HETATM    1  O   UNL     1     -11.084   8.580  67.488  1.00  0.00    -0.459 OA 
HETATM    2  C   UNL     1     -10.104   9.671  67.581  1.00  0.00    -0.194 C  
HETATM    3  H   UNL     1     -11.391   8.544  66.590  1.00  0.00     0.000 HD 
HETATM    4  P   UNL     1     -10.965  11.195  67.051  1.00  0.00    -0.214 P  
HETATM    5  O   UNL     1      -8.897   7.733  66.706  1.00  0.00    -0.128 OA 
HETATM    6  P   UNL     1      -8.677   9.362  66.478  1.00  0.00    -0.141 P  
HETATM    7  O   UNL     1      -9.811  12.086  67.809  1.00  0.00    -0.182 OA 
HETATM    8  O   UNL     1     -11.967  10.994  68.353  1.00  0.00    -0.565 OA 
HETATM    9  O   UNL     1      -9.782   9.413  65.252  1.00  0.00    -0.263 OA 
HETATM   10  O   UNL     1      -7.470   9.100  65.544  1.00  0.00    -0.088 OA 
HETATM   11  O   UNL     1     -11.695  12.485  66.602  1.00  0.00    -0.370 OA 
ENDROOT
BRANCH   2  12
HETATM   12  C   UNL     1      -9.597   9.730  69.064  1.00  0.00    -0.177 C  
BRANCH  12  13
HETATM   13  C   UNL     1      -9.365   8.431  69.805  1.00  0.00    -0.158 A  
HETATM   14  C   UNL     1      -8.084   7.963  70.036  1.00  0.00    -0.117 A  
HETATM   15  N   UNL     1      -7.800   6.751  70.574  1.00  0.00    -0.104 NA 
HETATM   16  C   UNL     1      -8.855   5.969  70.891  1.00  0.00    -0.135 A  
HETATM   17  C   UNL     1     -10.168   6.342  70.720  1.00  0.00    -0.238 A  
HETATM   18  C   UNL     1     -10.439   7.595  70.168  1.00  0.00    -0.227 A  
ENDBRANCH  12  13
ENDBRANCH   2  12
TORSDOF 2
ENDMDL
MODEL      143
REMARK 921   NORMALIZED FREE ENERGY PREDICTED BY IDOCK:   -3.00 KCAL/MOL
REMARK 922        TOTAL FREE ENERGY PREDICTED BY IDOCK:   -3.59 KCAL/MOL
REMARK 923 INTER-LIGAND FREE ENERGY PREDICTED BY IDOCK:   -3.90 KCAL/MOL
REMARK 924 INTRA-LIGAND FREE ENERGY PREDICTED BY IDOCK:    0.31 KCAL/MOL
REMARK 927      BINDING AFFINITY PREDICTED BY RF-SCORE:    0.00 PKD
ROOT
HETATM    1  O   UNL     1      -9.897  16.881  69.112  1.00  0.00    -0.256 OA 
HETATM    2  C   UNL     1      -9.393  16.394  67.819  1.00  0.00    -0.213 C  
HETATM    3  H   UNL     1     -10.845  16.849  69.083  1.00  0.00     0.000 HD 
HETATM    4  P   UNL     1     -10.113  17.481  66.535  1.00  0.00    -0.325 P  
HETATM    5  O   UNL     1      -9.880  14.410  69.161  1.00  0.00    -0.155 OA 
HETATM    6  P   UNL     1      -9.921  14.668  67.523  1.00  0.00    -0.224 P  
HETATM    7  O   UNL     1      -8.940  16.991  65.494  1.00  0.00    -0.344 OA 
HETATM    8  O   UNL     1      -9.275  18.729  67.227  1.00  0.00    -0.282 OA 
HETATM    9  O   UNL     1     -11.459  15.266  67.582  1.00  0.00    -0.331 OA 
HETATM   10  O   UNL     1     -10.368  13.207  67.272  1.00  0.00    -0.240 OA 
HETATM   11  O   UNL     1     -10.722  18.401  65.449  1.00  0.00    -0.594 OA 
ENDROOT
BRANCH   2  12
HETATM   12  C   UNL     1      -7.827  16.447  67.867  1.00  0.00    -0.161 C  
BRANCH  12  13
HETATM   13  C   UNL     1      -7.080  15.282  68.482  1.00  0.00    -0.110 A  
HETATM   14  C   UNL     1      -6.915  15.187  69.852  1.00  0.00    -0.140 A  
HETATM   15  N   UNL     1      -6.151  14.249  70.465  1.00  0.00    -0.183 NA 
HETATM   16  C   UNL     1      -5.517  13.367  69.662  1.00  0.00    -0.093 A  
HETATM   17  C   UNL     1      -5.625  13.361  68.291  1.00  0.00    -0.098 A  
HETATM   18  C   UNL     1      -6.420  14.332  67.679  1.00  0.00    -0.151 A  
ENDBRANCH  12  13
ENDBRANCH   2  12
TORSDOF 2
ENDMDL
MODEL      144
REMARK 921   NORMALIZED FREE ENERGY PREDICTED BY IDOCK:   -2.99 KCAL/MOL
REMARK 922        TOTAL FREE ENERGY PREDICTED BY IDOCK:   -3.57 KCAL/MOL
REMARK 923 INTER-LIGAND FREE ENERGY PREDICTED BY IDOCK:   -3.34 KCAL/MOL
REMARK 924 INTRA-LIGAND FREE ENERGY PREDICTED BY IDOCK:   -0.23 KCAL/MOL
REMARK 927      BINDING AFFINITY PREDICTED BY RF-SCORE:    0.00 PKD
ROOT
HETATM    1  O   UNL     1     -11.279   5.864  70.144  1.00  0.00    -0.353 OA 
HETATM    2  C   UNL     1     -10.570   6.480  71.275  1.00  0.00    -0.227 C  
HETATM    3  H   UNL     1     -12.206   5.869  70.348  1.00  0.00     0.000 HD 
HETATM    4  P   UNL     1     -10.989   5.491  72.756  1.00  0.00    -0.304 P  
HETATM    5  O   UNL     1     -11.388   8.320  69.890  1.00  0.00    -0.105 OA 
HETATM    6  P   UNL     1     -11.115   8.209  71.522  1.00  0.00    -0.283 P  
HETATM    7  O   UNL     1      -9.670   6.108  73.516  1.00  0.00    -0.153 OA 
HETATM    8  O   UNL     1     -10.235   4.212  72.025  1.00  0.00    -0.179 OA 
HETATM    9  O   UNL     1     -12.609   7.560  71.801  1.00  0.00    -0.317 OA 
HETATM   10  O   UNL     1     -11.578   9.672  71.732  1.00  0.00    -0.378 OA 
HETATM   11  O   UNL     1     -11.345   4.653  74.010  1.00  0.00    -0.232 OA 
ENDROOT
BRANCH   2  12
HETATM   12  C   UNL     1      -9.039   6.472  70.940  1.00  0.00    -0.154 C  
BRANCH  12  13
HETATM   13  C   UNL     1      -8.607   6.156  69.523  1.00  0.00    -0.127 A  
HETATM   14  C   UNL     1      -8.552   7.146  68.559  1.00  0.00    -0.124 A  
HETATM   15  N   UNL     1      -8.302   6.918  67.246  1.00  0.00    -0.121 NA 
HETATM   16  C   UNL     1      -8.103   5.633  66.883  1.00  0.00    -0.102 A  
HETATM   17  C   UNL     1      -8.118   4.574  67.761  1.00  0.00    -0.099 A  
HETATM   18  C   UNL     1      -8.374   4.830  69.110  1.00  0.00    -0.084 A  
ENDBRANCH  12  13
ENDBRANCH   2  12
TORSDOF 2
ENDMDL
MODEL      145
REMARK 921   NORMALIZED FREE ENERGY PREDICTED BY IDOCK:   -2.98 KCAL/MOL
REMARK 922        TOTAL FREE ENERGY PREDICTED BY IDOCK:   -3.56 KCAL/MOL
REMARK 923 INTER-LIGAND FREE ENERGY PREDICTED BY IDOCK:   -4.35 KCAL/MOL
REMARK 924 INTRA-LIGAND FREE ENERGY PREDICTED BY IDOCK:    0.78 KCAL/MOL
REMARK 927      BINDING AFFINITY PREDICTED BY RF-SCORE:    0.00 PKD
ROOT
HETATM    1  O   UNL     1      -8.592  13.226  66.082  1.00  0.00    -0.249 OA 
HETATM    2  C   UNL     1      -9.818  12.994  66.858  1.00  0.00    -0.240 C  
HETATM    3  H   UNL     1      -8.768  12.978  65.183  1.00  0.00     0.000 HD 
HETATM    4  P   UNL     1     -10.229  11.222  66.668  1.00  0.00    -0.246 P  
HETATM    5  O   UNL     1     -10.093  15.166  65.771  1.00  0.00    -0.297 OA 
HETATM    6  P   UNL     1     -11.197  14.012  66.219  1.00  0.00    -0.338 P  
HETATM    7  O   UNL     1     -11.170  11.317  68.011  1.00  0.00    -0.240 OA 
HETATM    8  O   UNL     1      -8.801  10.883  67.432  1.00  0.00    -0.133 OA 
HETATM    9  O   UNL     1     -10.996  13.169  64.813  1.00  0.00    -0.305 OA 
HETATM   10  O   UNL     1     -12.365  14.874  65.677  1.00  0.00    -0.075 OA 
HETATM   11  O   UNL     1     -10.577   9.721  66.505  1.00  0.00    -0.175 OA 
ENDROOT
BRANCH   2  12
HETATM   12  C   UNL     1      -9.528  13.405  68.343  1.00  0.00    -0.176 C  
BRANCH  12  13
HETATM   13  C   UNL     1     -10.622  14.090  69.135  1.00  0.00    -0.149 A  
HETATM   14  C   UNL     1     -10.624  15.462  69.305  1.00  0.00    -0.252 A  
HETATM   15  N   UNL     1     -11.492  16.131  70.104  1.00  0.00    -0.336 NA 
HETATM   16  C   UNL     1     -12.399  15.383  70.769  1.00  0.00    -0.396 A  
HETATM   17  C   UNL     1     -12.496  14.015  70.660  1.00  0.00    -0.435 A  
HETATM   18  C   UNL     1     -11.596  13.347  69.829  1.00  0.00    -0.305 A  
ENDBRANCH  12  13
ENDBRANCH   2  12
TORSDOF 2
ENDMDL
MODEL      146
REMARK 921   NORMALIZED FREE ENERGY PREDICTED BY IDOCK:   -2.97 KCAL/MOL
REMARK 922        TOTAL FREE ENERGY PREDICTED BY IDOCK:   -3.55 KCAL/MOL
REMARK 923 INTER-LIGAND FREE ENERGY PREDICTED BY IDOCK:   -3.39 KCAL/MOL
REMARK 924 INTRA-LIGAND FREE ENERGY PREDICTED BY IDOCK:   -0.16 KCAL/MOL
REMARK 927      BINDING AFFINITY PREDICTED BY RF-SCORE:    0.00 PKD
ROOT
HETATM    1  O   UNL     1      -9.241   9.980  68.033  1.00  0.00    -0.134 OA 
HETATM    2  C   UNL     1      -9.006  10.212  66.601  1.00  0.00    -0.140 C  
HETATM    3  H   UNL     1      -9.189  10.820  68.474  1.00  0.00     0.000 HD 
HETATM    4  P   UNL     1      -7.360  10.998  66.461  1.00  0.00    -0.092 P  
HETATM    5  O   UNL     1     -11.362  10.725  67.005  1.00  0.00    -0.341 OA 
HETATM    6  P   UNL     1     -10.277  11.328  65.904  1.00  0.00    -0.266 P  
HETATM    7  O   UNL     1      -7.305  10.553  64.881  1.00  0.00    -0.095 OA 
HETATM    8  O   UNL     1      -6.724   9.608  67.095  1.00  0.00    -0.073 OA 
HETATM    9  O   UNL     1      -9.698  12.443  66.976  1.00  0.00    -0.203 OA 
HETATM   10  O   UNL     1     -11.352  12.274  65.314  1.00  0.00    -0.318 OA 
HETATM   11  O   UNL     1      -5.967  11.664  66.343  1.00  0.00    -0.142 OA 
ENDROOT
BRANCH   2  12
HETATM   12  C   UNL     1      -9.093   8.825  65.874  1.00  0.00    -0.271 C  
BRANCH  12  13
HETATM   13  C   UNL     1      -9.328   7.582  66.706  1.00  0.00    -0.209 A  
HETATM   14  C   UNL     1      -8.279   6.749  67.051  1.00  0.00    -0.113 A  
HETATM   15  N   UNL     1      -8.428   5.556  67.680  1.00  0.00    -0.103 NA 
HETATM   16  C   UNL     1      -9.692   5.180  67.970  1.00  0.00    -0.146 A  
HETATM   17  C   UNL     1     -10.804   5.938  67.687  1.00  0.00    -0.331 A  
HETATM   18  C   UNL     1     -10.630   7.165  67.044  1.00  0.00    -0.413 A  
ENDBRANCH  12  13
ENDBRANCH   2  12
TORSDOF 2
ENDMDL
MODEL      147
REMARK 921   NORMALIZED FREE ENERGY PREDICTED BY IDOCK:   -2.91 KCAL/MOL
REMARK 922        TOTAL FREE ENERGY PREDICTED BY IDOCK:   -3.49 KCAL/MOL
REMARK 923 INTER-LIGAND FREE ENERGY PREDICTED BY IDOCK:   -4.54 KCAL/MOL
REMARK 924 INTRA-LIGAND FREE ENERGY PREDICTED BY IDOCK:    1.05 KCAL/MOL
REMARK 927      BINDING AFFINITY PREDICTED BY RF-SCORE:    0.00 PKD
ROOT
HETATM    1  O   UNL     1      -7.765  14.651  66.595  1.00  0.00    -0.222 OA 
HETATM    2  C   UNL     1      -8.142  15.674  67.581  1.00  0.00    -0.150 C  
HETATM    3  H   UNL     1      -6.875  14.832  66.318  1.00  0.00     0.000 HD 
HETATM    4  P   UNL     1      -7.960  17.294  66.750  1.00  0.00    -0.292 P  
HETATM    5  O   UNL     1      -6.872  13.978  68.799  1.00  0.00    -0.091 OA 
HETATM    6  P   UNL     1      -7.041  15.610  69.040  1.00  0.00    -0.179 P  
HETATM    7  O   UNL     1      -8.941  17.963  67.886  1.00  0.00    -0.254 OA 
HETATM    8  O   UNL     1      -9.148  16.808  65.704  1.00  0.00    -0.489 OA 
HETATM    9  O   UNL     1      -5.828  15.966  67.977  1.00  0.00    -0.109 OA 
HETATM   10  O   UNL     1      -6.108  15.557  70.275  1.00  0.00    -0.151 OA 
HETATM   11  O   UNL     1      -7.806  18.665  66.046  1.00  0.00    -0.411 OA 
ENDROOT
BRANCH   2  12
HETATM   12  C   UNL     1      -9.611  15.376  68.038  1.00  0.00    -0.206 C  
BRANCH  12  13
HETATM   13  C   UNL     1     -10.380  14.274  67.340  1.00  0.00    -0.259 A  
HETATM   14  C   UNL     1     -11.468  13.672  67.946  1.00  0.00    -0.314 A  
HETATM   15  N   UNL     1     -12.124  12.597  67.442  1.00  0.00    -0.435 NA 
HETATM   16  C   UNL     1     -11.660  12.099  66.276  1.00  0.00    -0.360 A  
HETATM   17  C   UNL     1     -10.598  12.630  65.581  1.00  0.00    -0.299 A  
HETATM   18  C   UNL     1      -9.939  13.739  66.115  1.00  0.00    -0.318 A  
ENDBRANCH  12  13
ENDBRANCH   2  12
TORSDOF 2
ENDMDL
MODEL      148
REMARK 921   NORMALIZED FREE ENERGY PREDICTED BY IDOCK:   -2.88 KCAL/MOL
REMARK 922        TOTAL FREE ENERGY PREDICTED BY IDOCK:   -3.46 KCAL/MOL
REMARK 923 INTER-LIGAND FREE ENERGY PREDICTED BY IDOCK:   -3.60 KCAL/MOL
REMARK 924 INTRA-LIGAND FREE ENERGY PREDICTED BY IDOCK:    0.15 KCAL/MOL
REMARK 927      BINDING AFFINITY PREDICTED BY RF-SCORE:    0.00 PKD
ROOT
HETATM    1  O   UNL     1     -10.125   5.139  70.565  1.00  0.00    -0.220 OA 
HETATM    2  C   UNL     1     -10.048   6.384  71.343  1.00  0.00    -0.189 C  
HETATM    3  H   UNL     1     -10.667   4.529  71.051  1.00  0.00     0.000 HD 
HETATM    4  P   UNL     1      -9.348   5.939  72.974  1.00  0.00    -0.138 P  
HETATM    5  O   UNL     1     -12.155   6.474  70.107  1.00  0.00    -0.323 OA 
HETATM    6  P   UNL     1     -11.709   7.115  71.571  1.00  0.00    -0.330 P  
HETATM    7  O   UNL     1      -8.945   7.515  73.207  1.00  0.00    -0.145 OA 
HETATM    8  O   UNL     1      -7.971   5.484  72.177  1.00  0.00    -0.105 OA 
HETATM    9  O   UNL     1     -12.070   5.718  72.374  1.00  0.00    -0.249 OA 
HETATM   10  O   UNL     1     -13.116   7.733  71.764  1.00  0.00    -0.326 OA 
HETATM   11  O   UNL     1      -8.756   5.562  74.355  1.00  0.00    -0.117 OA 
ENDROOT
BRANCH   2  12
HETATM   12  C   UNL     1      -9.154   7.392  70.541  1.00  0.00    -0.157 C  
BRANCH  12  13
HETATM   13  C   UNL     1      -9.612   7.835  69.168  1.00  0.00    -0.155 A  
HETATM   14  C   UNL     1      -9.407   7.036  68.057  1.00  0.00    -0.127 A  
HETATM   15  N   UNL     1      -9.670   7.419  66.783  1.00  0.00    -0.197 NA 
HETATM   16  C   UNL     1     -10.157   8.667  66.616  1.00  0.00    -0.294 A  
HETATM   17  C   UNL     1     -10.414   9.538  67.650  1.00  0.00    -0.321 A  
HETATM   18  C   UNL     1     -10.140   9.123  68.954  1.00  0.00    -0.209 A  
ENDBRANCH  12  13
ENDBRANCH   2  12
TORSDOF 2
ENDMDL
MODEL      149
REMARK 921   NORMALIZED FREE ENERGY PREDICTED BY IDOCK:   -2.88 KCAL/MOL
REMARK 922        TOTAL FREE ENERGY PREDICTED BY IDOCK:   -3.45 KCAL/MOL
REMARK 923 INTER-LIGAND FREE ENERGY PREDICTED BY IDOCK:   -3.72 KCAL/MOL
REMARK 924 INTRA-LIGAND FREE ENERGY PREDICTED BY IDOCK:    0.26 KCAL/MOL
REMARK 927      BINDING AFFINITY PREDICTED BY RF-SCORE:    0.00 PKD
ROOT
HETATM    1  O   UNL     1      -8.500  10.099  70.237  1.00  0.00    -0.335 OA 
HETATM    2  C   UNL     1      -9.456   9.116  69.708  1.00  0.00    -0.182 C  
HETATM    3  H   UNL     1      -8.989  10.873  70.487  1.00  0.00     0.000 HD 
HETATM    4  P   UNL     1     -10.305   9.918  68.300  1.00  0.00    -0.226 P  
HETATM    5  O   UNL     1      -9.532   8.910  72.143  1.00  0.00    -0.327 OA 
HETATM    6  P   UNL     1     -10.688   8.655  70.980  1.00  0.00    -0.268 P  
HETATM    7  O   UNL     1     -10.751   8.435  67.751  1.00  0.00    -0.196 OA 
HETATM    8  O   UNL     1      -8.832   9.988  67.548  1.00  0.00    -0.128 OA 
HETATM    9  O   UNL     1     -11.117  10.250  70.954  1.00  0.00    -0.315 OA 
HETATM   10  O   UNL     1     -11.730   8.266  72.057  1.00  0.00    -0.300 OA 
HETATM   11  O   UNL     1     -11.023  10.598  67.108  1.00  0.00    -0.285 OA 
ENDROOT
BRANCH   2  12
HETATM   12  C   UNL     1      -8.648   7.838  69.296  1.00  0.00    -0.138 C  
BRANCH  12  13
HETATM   13  C   UNL     1      -8.803   6.581  70.126  1.00  0.00    -0.144 A  
HETATM   14  C   UNL     1      -7.829   6.203  71.033  1.00  0.00    -0.114 A  
HETATM   15  N   UNL     1      -7.835   5.030  71.714  1.00  0.00    -0.106 NA 
HETATM   16  C   UNL     1      -8.867   4.194  71.468  1.00  0.00    -0.112 A  
HETATM   17  C   UNL     1      -9.896   4.477  70.599  1.00  0.00    -0.292 A  
HETATM   18  C   UNL     1      -9.873   5.691  69.911  1.00  0.00    -0.250 A  
ENDBRANCH  12  13
ENDBRANCH   2  12
TORSDOF 2
ENDMDL
MODEL      150
REMARK 921   NORMALIZED FREE ENERGY PREDICTED BY IDOCK:   -2.84 KCAL/MOL
REMARK 922        TOTAL FREE ENERGY PREDICTED BY IDOCK:   -3.41 KCAL/MOL
REMARK 923 INTER-LIGAND FREE ENERGY PREDICTED BY IDOCK:   -4.31 KCAL/MOL
REMARK 924 INTRA-LIGAND FREE ENERGY PREDICTED BY IDOCK:    0.90 KCAL/MOL
REMARK 927      BINDING AFFINITY PREDICTED BY RF-SCORE:    0.00 PKD
ROOT
HETATM    1  O   UNL     1      -8.206  11.612  65.975  1.00  0.00    -0.374 OA 
HETATM    2  C   UNL     1      -9.274  10.848  66.636  1.00  0.00    -0.168 C  
HETATM    3  H   UNL     1      -8.330  11.529  65.037  1.00  0.00     0.000 HD 
HETATM    4  P   UNL     1      -9.130   9.125  66.040  1.00  0.00    -0.229 P  
HETATM    5  O   UNL     1     -10.238  13.017  66.052  1.00  0.00    -0.276 OA 
HETATM    6  P   UNL     1     -10.920  11.512  66.192  1.00  0.00    -0.174 P  
HETATM    7  O   UNL     1     -10.006   8.625  67.337  1.00  0.00    -0.177 OA 
HETATM    8  O   UNL     1      -7.641   9.078  66.759  1.00  0.00    -0.089 OA 
HETATM    9  O   UNL     1     -10.521  11.107  64.642  1.00  0.00    -0.309 OA 
HETATM   10  O   UNL     1     -12.314  12.073  65.816  1.00  0.00    -0.469 OA 
HETATM   11  O   UNL     1      -9.008   7.666  65.534  1.00  0.00    -0.061 OA 
ENDROOT
BRANCH   2  12
HETATM   12  C   UNL     1      -9.070  10.986  68.184  1.00  0.00    -0.155 C  
BRANCH  12  13
HETATM   13  C   UNL     1     -10.286  11.204  69.061  1.00  0.00    -0.194 A  
HETATM   14  C   UNL     1     -10.942  12.421  69.075  1.00  0.00    -0.197 A  
HETATM   15  N   UNL     1     -11.953  12.732  69.925  1.00  0.00    -0.325 NA 
HETATM   16  C   UNL     1     -12.317  11.775  70.806  1.00  0.00    -0.337 A  
HETATM   17  C   UNL     1     -11.743  10.527  70.867  1.00  0.00    -0.431 A  
HETATM   18  C   UNL     1     -10.707  10.225  69.981  1.00  0.00    -0.345 A  
ENDBRANCH  12  13
ENDBRANCH   2  12
TORSDOF 2
ENDMDL
MODEL      151
REMARK 921   NORMALIZED FREE ENERGY PREDICTED BY IDOCK:   -2.82 KCAL/MOL
REMARK 922        TOTAL FREE ENERGY PREDICTED BY IDOCK:   -3.39 KCAL/MOL
REMARK 923 INTER-LIGAND FREE ENERGY PREDICTED BY IDOCK:   -3.52 KCAL/MOL
REMARK 924 INTRA-LIGAND FREE ENERGY PREDICTED BY IDOCK:    0.13 KCAL/MOL
REMARK 927      BINDING AFFINITY PREDICTED BY RF-SCORE:    0.00 PKD
ROOT
HETATM    1  O   UNL     1     -10.126  13.495  66.509  1.00  0.00    -0.268 OA 
HETATM    2  C   UNL     1     -10.992  13.051  65.408  1.00  0.00    -0.275 C  
HETATM    3  H   UNL     1      -9.544  14.163  66.168  1.00  0.00     0.000 HD 
HETATM    4  P   UNL     1      -9.885  12.436  64.088  1.00  0.00     0.110 P  
HETATM    5  O   UNL     1     -11.993  15.101  66.288  1.00  0.00    -0.037 OA 
HETATM    6  P   UNL     1     -11.995  14.441  64.766  1.00  0.00    -0.453 P  
HETATM    7  O   UNL     1     -11.150  11.611  63.441  1.00  0.00    -0.396 OA 
HETATM    8  O   UNL     1      -9.389  11.268  65.149  1.00  0.00    -0.219 OA 
HETATM    9  O   UNL     1     -10.546  15.137  64.383  1.00  0.00    -0.092 OA 
HETATM   10  O   UNL     1     -12.842  15.617  64.222  1.00  0.00    -0.304 OA 
HETATM   11  O   UNL     1      -8.948  11.916  62.970  1.00  0.00    -0.124 OA 
ENDROOT
BRANCH   2  12
HETATM   12  C   UNL     1     -11.953  11.949  65.972  1.00  0.00     0.038 C  
BRANCH  12  13
HETATM   13  C   UNL     1     -11.730  11.443  67.382  1.00  0.00    -0.172 A  
HETATM   14  C   UNL     1     -12.022  12.236  68.476  1.00  0.00    -0.219 A  
HETATM   15  N   UNL     1     -11.730  11.904  69.759  1.00  0.00    -0.327 NA 
HETATM   16  C   UNL     1     -11.109  10.720  69.949  1.00  0.00    -0.271 A  
HETATM   17  C   UNL     1     -10.788   9.848  68.935  1.00  0.00    -0.239 A  
HETATM   18  C   UNL     1     -11.101  10.206  67.623  1.00  0.00    -0.275 A  
ENDBRANCH  12  13
ENDBRANCH   2  12
TORSDOF 2
ENDMDL
MODEL      152
REMARK 921   NORMALIZED FREE ENERGY PREDICTED BY IDOCK:   -2.81 KCAL/MOL
REMARK 922        TOTAL FREE ENERGY PREDICTED BY IDOCK:   -3.38 KCAL/MOL
REMARK 923 INTER-LIGAND FREE ENERGY PREDICTED BY IDOCK:   -3.45 KCAL/MOL
REMARK 924 INTRA-LIGAND FREE ENERGY PREDICTED BY IDOCK:    0.08 KCAL/MOL
REMARK 927      BINDING AFFINITY PREDICTED BY RF-SCORE:    0.00 PKD
ROOT
HETATM    1  O   UNL     1      -9.987   9.955  71.281  1.00  0.00    -0.169 OA 
HETATM    2  C   UNL     1     -11.245   9.417  70.744  1.00  0.00    -0.302 C  
HETATM    3  H   UNL     1     -10.007   9.848  72.224  1.00  0.00     0.000 HD 
HETATM    4  P   UNL     1     -12.597  10.351  71.547  1.00  0.00    -0.405 P  
HETATM    5  O   UNL     1      -9.763   7.502  71.073  1.00  0.00    -0.168 OA 
HETATM    6  P   UNL     1     -11.415   7.639  71.137  1.00  0.00    -0.282 P  
HETATM    7  O   UNL     1     -13.610   9.881  70.342  1.00  0.00     0.016 OA 
HETATM    8  O   UNL     1     -12.002  11.707  70.807  1.00  0.00    -0.334 OA 
HETATM    9  O   UNL     1     -11.387   8.119  72.717  1.00  0.00    -0.397 OA 
HETATM   10  O   UNL     1     -11.558   6.133  71.471  1.00  0.00    -0.295 OA 
HETATM   11  O   UNL     1     -13.742  11.142  72.228  1.00  0.00    -0.128 OA 
ENDROOT
BRANCH   2  12
HETATM   12  C   UNL     1     -11.212   9.593  69.187  1.00  0.00    -0.056 C  
BRANCH  12  13
HETATM   13  C   UNL     1     -10.055  10.345  68.565  1.00  0.00    -0.186 A  
HETATM   14  C   UNL     1      -8.794   9.780  68.497  1.00  0.00    -0.121 A  
HETATM   15  N   UNL     1      -7.685  10.437  68.075  1.00  0.00    -0.092 NA 
HETATM   16  C   UNL     1      -7.850  11.726  67.709  1.00  0.00    -0.135 A  
HETATM   17  C   UNL     1      -9.060  12.381  67.721  1.00  0.00    -0.193 A  
HETATM   18  C   UNL     1     -10.190  11.685  68.155  1.00  0.00    -0.206 A  
ENDBRANCH  12  13
ENDBRANCH   2  12
TORSDOF 2
ENDMDL
MODEL      153
REMARK 921   NORMALIZED FREE ENERGY PREDICTED BY IDOCK:   -2.80 KCAL/MOL
REMARK 922        TOTAL FREE ENERGY PREDICTED BY IDOCK:   -3.37 KCAL/MOL
REMARK 923 INTER-LIGAND FREE ENERGY PREDICTED BY IDOCK:   -3.03 KCAL/MOL
REMARK 924 INTRA-LIGAND FREE ENERGY PREDICTED BY IDOCK:   -0.34 KCAL/MOL
REMARK 927      BINDING AFFINITY PREDICTED BY RF-SCORE:    0.00 PKD
ROOT
HETATM    1  O   UNL     1      -9.283   7.339  69.332  1.00  0.00    -0.149 OA 
HETATM    2  C   UNL     1      -9.473   7.128  70.774  1.00  0.00    -0.164 C  
HETATM    3  H   UNL     1      -9.354   8.271  69.165  1.00  0.00     0.000 HD 
HETATM    4  P   UNL     1     -11.118   7.811  71.190  1.00  0.00    -0.256 P  
HETATM    5  O   UNL     1      -7.134   7.775  70.476  1.00  0.00    -0.046 OA 
HETATM    6  P   UNL     1      -8.187   8.005  71.737  1.00  0.00    -0.146 P  
HETATM    7  O   UNL     1     -11.120   6.914  72.566  1.00  0.00    -0.246 OA 
HETATM    8  O   UNL     1     -11.766   6.665  70.188  1.00  0.00    -0.394 OA 
HETATM    9  O   UNL     1      -8.807   9.380  71.064  1.00  0.00    -0.250 OA 
HETATM   10  O   UNL     1      -7.099   8.748  72.551  1.00  0.00    -0.299 OA 
HETATM   11  O   UNL     1     -12.511   8.391  71.541  1.00  0.00    -0.301 OA 
ENDROOT
BRANCH   2  12
HETATM   12  C   UNL     1      -9.355   5.590  71.051  1.00  0.00    -0.186 C  
BRANCH  12  13
HETATM   13  C   UNL     1      -8.870   4.686  69.936  1.00  0.00    -0.129 A  
HETATM   14  C   UNL     1      -9.766   3.989  69.146  1.00  0.00    -0.107 A  
HETATM   15  N   UNL     1      -9.408   3.066  68.219  1.00  0.00    -0.199 NA 
HETATM   16  C   UNL     1      -8.086   2.828  68.084  1.00  0.00    -0.061 A  
HETATM   17  C   UNL     1      -7.110   3.476  68.805  1.00  0.00    -0.050 A  
HETATM   18  C   UNL     1      -7.499   4.425  69.751  1.00  0.00    -0.050 A  
ENDBRANCH  12  13
ENDBRANCH   2  12
TORSDOF 2
ENDMDL
MODEL      154
REMARK 921   NORMALIZED FREE ENERGY PREDICTED BY IDOCK:   -2.78 KCAL/MOL
REMARK 922        TOTAL FREE ENERGY PREDICTED BY IDOCK:   -3.34 KCAL/MOL
REMARK 923 INTER-LIGAND FREE ENERGY PREDICTED BY IDOCK:   -3.80 KCAL/MOL
REMARK 924 INTRA-LIGAND FREE ENERGY PREDICTED BY IDOCK:    0.46 KCAL/MOL
REMARK 927      BINDING AFFINITY PREDICTED BY RF-SCORE:    0.00 PKD
ROOT
HETATM    1  O   UNL     1      -7.861   6.037  71.297  1.00  0.00    -0.107 OA 
HETATM    2  C   UNL     1      -9.181   5.402  71.415  1.00  0.00    -0.146 C  
HETATM    3  H   UNL     1      -7.414   5.639  70.560  1.00  0.00     0.000 HD 
HETATM    4  P   UNL     1      -8.882   3.611  71.635  1.00  0.00    -0.108 P  
HETATM    5  O   UNL     1      -9.397   7.126  69.695  1.00  0.00    -0.150 OA 
HETATM    6  P   UNL     1     -10.173   5.674  69.902  1.00  0.00    -0.300 P  
HETATM    7  O   UNL     1     -10.398   3.454  72.247  1.00  0.00    -0.142 OA 
HETATM    8  O   UNL     1      -8.118   3.987  73.054  1.00  0.00    -0.086 OA 
HETATM    9  O   UNL     1      -8.977   4.841  69.126  1.00  0.00    -0.090 OA 
HETATM   10  O   UNL     1     -11.012   5.904  68.621  1.00  0.00    -0.287 OA 
HETATM   11  O   UNL     1      -8.628   2.094  71.820  1.00  0.00    -0.058 OA 
ENDROOT
BRANCH   2  12
HETATM   12  C   UNL     1      -9.919   6.059  72.632  1.00  0.00    -0.192 C  
BRANCH  12  13
HETATM   13  C   UNL     1     -11.041   7.038  72.359  1.00  0.00    -0.294 A  
HETATM   14  C   UNL     1     -12.320   6.593  72.076  1.00  0.00    -0.272 A  
HETATM   15  N   UNL     1     -13.341   7.400  71.695  1.00  0.00    -0.372 NA 
HETATM   16  C   UNL     1     -13.063   8.717  71.588  1.00  0.00    -0.346 A  
HETATM   17  C   UNL     1     -11.833   9.268  71.862  1.00  0.00    -0.426 A  
HETATM   18  C   UNL     1     -10.796   8.421  72.256  1.00  0.00    -0.422 A  
ENDBRANCH  12  13
ENDBRANCH   2  12
TORSDOF 2
ENDMDL
MODEL      155
REMARK 921   NORMALIZED FREE ENERGY PREDICTED BY IDOCK:   -2.76 KCAL/MOL
REMARK 922        TOTAL FREE ENERGY PREDICTED BY IDOCK:   -3.32 KCAL/MOL
REMARK 923 INTER-LIGAND FREE ENERGY PREDICTED BY IDOCK:   -3.10 KCAL/MOL
REMARK 924 INTRA-LIGAND FREE ENERGY PREDICTED BY IDOCK:   -0.22 KCAL/MOL
REMARK 927      BINDING AFFINITY PREDICTED BY RF-SCORE:    0.00 PKD
ROOT
HETATM    1  O   UNL     1     -10.276   5.020  70.690  1.00  0.00    -0.238 OA 
HETATM    2  C   UNL     1     -10.395   6.483  70.759  1.00  0.00    -0.204 C  
HETATM    3  H   UNL     1     -10.864   4.714  70.010  1.00  0.00     0.000 HD 
HETATM    4  P   UNL     1     -12.153   6.848  71.109  1.00  0.00    -0.337 P  
HETATM    5  O   UNL     1      -8.852   6.004  68.925  1.00  0.00    -0.120 OA 
HETATM    6  P   UNL     1      -9.917   7.252  69.170  1.00  0.00    -0.179 P  
HETATM    7  O   UNL     1     -11.718   8.344  71.628  1.00  0.00    -0.268 OA 
HETATM    8  O   UNL     1     -11.955   6.058  72.550  1.00  0.00    -0.258 OA 
HETATM    9  O   UNL     1     -11.177   6.400  68.528  1.00  0.00    -0.328 OA 
HETATM   10  O   UNL     1      -9.513   7.903  67.824  1.00  0.00    -0.142 OA 
HETATM   11  O   UNL     1     -13.642   7.156  71.405  1.00  0.00    -0.375 OA 
ENDROOT
BRANCH   2  12
HETATM   12  C   UNL     1      -9.424   6.987  71.882  1.00  0.00    -0.148 C  
BRANCH  12  13
HETATM   13  C   UNL     1      -8.458   6.001  72.505  1.00  0.00    -0.119 A  
HETATM   14  C   UNL     1      -7.256   5.699  71.891  1.00  0.00    -0.091 A  
HETATM   15  N   UNL     1      -6.403   4.735  72.318  1.00  0.00    -0.032 NA 
HETATM   16  C   UNL     1      -6.779   4.037  73.411  1.00  0.00    -0.048 A  
HETATM   17  C   UNL     1      -7.943   4.266  74.107  1.00  0.00    -0.092 A  
HETATM   18  C   UNL     1      -8.806   5.266  73.654  1.00  0.00    -0.122 A  
ENDBRANCH  12  13
ENDBRANCH   2  12
TORSDOF 2
ENDMDL
MODEL      156
REMARK 921   NORMALIZED FREE ENERGY PREDICTED BY IDOCK:   -2.70 KCAL/MOL
REMARK 922        TOTAL FREE ENERGY PREDICTED BY IDOCK:   -3.25 KCAL/MOL
REMARK 923 INTER-LIGAND FREE ENERGY PREDICTED BY IDOCK:   -3.48 KCAL/MOL
REMARK 924 INTRA-LIGAND FREE ENERGY PREDICTED BY IDOCK:    0.23 KCAL/MOL
REMARK 927      BINDING AFFINITY PREDICTED BY RF-SCORE:    0.00 PKD
ROOT
HETATM    1  O   UNL     1     -10.967   8.343  67.336  1.00  0.00    -0.482 OA 
HETATM    2  C   UNL     1     -10.005   9.304  67.895  1.00  0.00    -0.187 C  
HETATM    3  H   UNL     1     -11.836   8.710  67.442  1.00  0.00     0.000 HD 
HETATM    4  P   UNL     1     -10.473   9.554  69.645  1.00  0.00    -0.250 P  
HETATM    5  O   UNL     1     -10.514  10.076  65.632  1.00  0.00    -0.168 OA 
HETATM    6  P   UNL     1     -10.088  10.901  67.007  1.00  0.00    -0.222 P  
HETATM    7  O   UNL     1      -8.965  10.134  69.944  1.00  0.00    -0.185 OA 
HETATM    8  O   UNL     1     -10.136   7.952  69.888  1.00  0.00    -0.190 OA 
HETATM    9  O   UNL     1     -11.650  10.967  67.540  1.00  0.00    -0.526 OA 
HETATM   10  O   UNL     1     -10.159  12.254  66.255  1.00  0.00    -0.224 OA 
HETATM   11  O   UNL     1     -10.870   9.766  71.128  1.00  0.00    -0.334 OA 
ENDROOT
BRANCH   2  12
HETATM   12  C   UNL     1      -8.570   8.698  67.719  1.00  0.00    -0.136 C  
BRANCH  12  13
HETATM   13  C   UNL     1      -7.581   9.419  66.827  1.00  0.00    -0.097 A  
HETATM   14  C   UNL     1      -7.406   9.040  65.508  1.00  0.00    -0.085 A  
HETATM   15  N   UNL     1      -6.452   9.549  64.689  1.00  0.00    -0.084 NA 
HETATM   16  C   UNL     1      -5.632  10.479  65.222  1.00  0.00    -0.139 A  
HETATM   17  C   UNL     1      -5.728  10.940  66.515  1.00  0.00    -0.101 A  
HETATM   18  C   UNL     1      -6.719  10.407  67.341  1.00  0.00    -0.072 A  
ENDBRANCH  12  13
ENDBRANCH   2  12
TORSDOF 2
ENDMDL
MODEL      157
REMARK 921   NORMALIZED FREE ENERGY PREDICTED BY IDOCK:   -2.68 KCAL/MOL
REMARK 922        TOTAL FREE ENERGY PREDICTED BY IDOCK:   -3.23 KCAL/MOL
REMARK 923 INTER-LIGAND FREE ENERGY PREDICTED BY IDOCK:   -3.54 KCAL/MOL
REMARK 924 INTRA-LIGAND FREE ENERGY PREDICTED BY IDOCK:    0.32 KCAL/MOL
REMARK 927      BINDING AFFINITY PREDICTED BY RF-SCORE:    0.00 PKD
ROOT
HETATM    1  O   UNL     1     -11.100   8.602  67.873  1.00  0.00    -0.481 OA 
HETATM    2  C   UNL     1      -9.675   8.424  68.188  1.00  0.00    -0.155 C  
HETATM    3  H   UNL     1     -11.456   7.749  67.656  1.00  0.00     0.000 HD 
HETATM    4  P   UNL     1      -8.903   7.677  66.707  1.00  0.00    -0.149 P  
HETATM    5  O   UNL     1     -10.906   7.849  70.220  1.00  0.00    -0.238 OA 
HETATM    6  P   UNL     1      -9.458   7.306  69.619  1.00  0.00    -0.153 P  
HETATM    7  O   UNL     1      -7.434   8.176  67.248  1.00  0.00    -0.087 OA 
HETATM    8  O   UNL     1      -9.308   9.057  65.889  1.00  0.00    -0.212 OA 
HETATM    9  O   UNL     1     -10.193   6.168  68.675  1.00  0.00    -0.152 OA 
HETATM   10  O   UNL     1      -9.274   6.359  70.831  1.00  0.00    -0.156 OA 
HETATM   11  O   UNL     1      -8.249   7.044  65.454  1.00  0.00    -0.129 OA 
ENDROOT
BRANCH   2  12
HETATM   12  C   UNL     1      -9.087   9.832  68.548  1.00  0.00    -0.128 C  
BRANCH  12  13
HETATM   13  C   UNL     1      -9.948  11.058  68.323  1.00  0.00    -0.190 A  
HETATM   14  C   UNL     1     -11.189  11.175  68.924  1.00  0.00    -0.256 A  
HETATM   15  N   UNL     1     -12.067  12.176  68.670  1.00  0.00    -0.283 NA 
HETATM   16  C   UNL     1     -11.683  13.101  67.764  1.00  0.00    -0.358 A  
HETATM   17  C   UNL     1     -10.467  13.090  67.121  1.00  0.00    -0.243 A  
HETATM   18  C   UNL     1      -9.575  12.053  67.400  1.00  0.00    -0.176 A  
ENDBRANCH  12  13
ENDBRANCH   2  12
TORSDOF 2
ENDMDL
MODEL      158
REMARK 921   NORMALIZED FREE ENERGY PREDICTED BY IDOCK:   -2.66 KCAL/MOL
REMARK 922        TOTAL FREE ENERGY PREDICTED BY IDOCK:   -3.21 KCAL/MOL
REMARK 923 INTER-LIGAND FREE ENERGY PREDICTED BY IDOCK:   -3.45 KCAL/MOL
REMARK 924 INTRA-LIGAND FREE ENERGY PREDICTED BY IDOCK:    0.24 KCAL/MOL
REMARK 927      BINDING AFFINITY PREDICTED BY RF-SCORE:    0.00 PKD
ROOT
HETATM    1  O   UNL     1      -9.033   9.405  71.271  1.00  0.00    -0.282 OA 
HETATM    2  C   UNL     1      -9.509   8.111  70.759  1.00  0.00    -0.162 C  
HETATM    3  H   UNL     1      -9.508  10.088  70.813  1.00  0.00     0.000 HD 
HETATM    4  P   UNL     1      -9.201   8.118  68.956  1.00  0.00    -0.146 P  
HETATM    5  O   UNL     1     -11.132   8.825  72.442  1.00  0.00    -0.327 OA 
HETATM    6  P   UNL     1     -11.299   7.904  71.072  1.00  0.00    -0.273 P  
HETATM    7  O   UNL     1      -9.311   6.478  68.953  1.00  0.00    -0.132 OA 
HETATM    8  O   UNL     1      -7.587   8.221  69.306  1.00  0.00    -0.089 OA 
HETATM    9  O   UNL     1     -11.487   9.236  70.113  1.00  0.00    -0.216 OA 
HETATM   10  O   UNL     1     -12.815   7.730  71.336  1.00  0.00    -0.328 OA 
HETATM   11  O   UNL     1      -8.941   8.124  67.429  1.00  0.00    -0.135 OA 
ENDROOT
BRANCH   2  12
HETATM   12  C   UNL     1      -8.726   6.983  71.516  1.00  0.00    -0.121 C  
BRANCH  12  13
HETATM   13  C   UNL     1      -9.507   5.998  72.361  1.00  0.00    -0.153 A  
HETATM   14  C   UNL     1      -9.648   6.186  73.724  1.00  0.00    -0.161 A  
HETATM   15  N   UNL     1     -10.218   5.286  74.563  1.00  0.00    -0.262 NA 
HETATM   16  C   UNL     1     -10.664   4.139  74.005  1.00  0.00    -0.243 A  
HETATM   17  C   UNL     1     -10.590   3.857  72.661  1.00  0.00    -0.170 A  
HETATM   18  C   UNL     1     -10.003   4.799  71.814  1.00  0.00    -0.255 A  
ENDBRANCH  12  13
ENDBRANCH   2  12
TORSDOF 2
ENDMDL
MODEL      159
REMARK 921   NORMALIZED FREE ENERGY PREDICTED BY IDOCK:   -2.66 KCAL/MOL
REMARK 922        TOTAL FREE ENERGY PREDICTED BY IDOCK:   -3.21 KCAL/MOL
REMARK 923 INTER-LIGAND FREE ENERGY PREDICTED BY IDOCK:   -3.58 KCAL/MOL
REMARK 924 INTRA-LIGAND FREE ENERGY PREDICTED BY IDOCK:    0.37 KCAL/MOL
REMARK 927      BINDING AFFINITY PREDICTED BY RF-SCORE:    0.00 PKD
ROOT
HETATM    1  O   UNL     1      -8.052  16.127  65.646  1.00  0.00     0.210 OA 
HETATM    2  C   UNL     1      -8.568  16.257  67.017  1.00  0.00    -0.200 C  
HETATM    3  H   UNL     1      -7.120  15.953  65.704  1.00  0.00     0.000 HD 
HETATM    4  P   UNL     1      -7.629  17.617  67.801  1.00  0.00    -0.214 P  
HETATM    5  O   UNL     1      -8.463  13.861  66.546  1.00  0.00     0.046 OA 
HETATM    6  P   UNL     1      -8.308  14.712  67.961  1.00  0.00    -0.170 P  
HETATM    7  O   UNL     1      -8.816  17.760  68.927  1.00  0.00    -0.235 OA 
HETATM    8  O   UNL     1      -8.288  18.628  66.669  1.00  0.00    -0.268 OA 
HETATM    9  O   UNL     1      -6.699  14.982  67.708  1.00  0.00    -0.140 OA 
HETATM   10  O   UNL     1      -8.087  13.404  68.761  1.00  0.00    -0.081 OA 
HETATM   11  O   UNL     1      -6.833  18.768  68.465  1.00  0.00    -0.246 OA 
ENDROOT
BRANCH   2  12
HETATM   12  C   UNL     1     -10.106  16.543  66.921  1.00  0.00    -0.281 C  
BRANCH  12  13
HETATM   13  C   UNL     1     -11.024  15.433  66.455  1.00  0.00    -0.271 A  
HETATM   14  C   UNL     1     -11.443  15.363  65.139  1.00  0.00    -0.208 A  
HETATM   15  N   UNL     1     -12.363  14.479  64.678  1.00  0.00    -0.553 NA 
HETATM   16  C   UNL     1     -12.891  13.629  65.584  1.00  0.00    -0.371 A  
HETATM   17  C   UNL     1     -12.534  13.601  66.912  1.00  0.00    -0.189 A  
HETATM   18  C   UNL     1     -11.582  14.516  67.366  1.00  0.00    -0.406 A  
ENDBRANCH  12  13
ENDBRANCH   2  12
TORSDOF 2
ENDMDL
MODEL      160
REMARK 921   NORMALIZED FREE ENERGY PREDICTED BY IDOCK:   -2.60 KCAL/MOL
REMARK 922        TOTAL FREE ENERGY PREDICTED BY IDOCK:   -3.14 KCAL/MOL
REMARK 923 INTER-LIGAND FREE ENERGY PREDICTED BY IDOCK:   -3.50 KCAL/MOL
REMARK 924 INTRA-LIGAND FREE ENERGY PREDICTED BY IDOCK:    0.36 KCAL/MOL
REMARK 927      BINDING AFFINITY PREDICTED BY RF-SCORE:    0.00 PKD
ROOT
HETATM    1  O   UNL     1      -9.103   6.613  65.118  1.00  0.00    -0.350 OA 
HETATM    2  C   UNL     1      -8.854   7.543  66.229  1.00  0.00    -0.160 C  
HETATM    3  H   UNL     1      -8.261   6.371  64.750  1.00  0.00     0.000 HD 
HETATM    4  P   UNL     1      -7.939   8.963  65.528  1.00  0.00    -0.119 P  
HETATM    5  O   UNL     1      -8.530   5.293  67.128  1.00  0.00    -0.108 OA 
HETATM    6  P   UNL     1      -7.843   6.748  67.530  1.00  0.00    -0.113 P  
HETATM    7  O   UNL     1      -8.378   9.863  66.830  1.00  0.00    -0.123 OA 
HETATM    8  O   UNL     1      -9.273   9.270  64.598  1.00  0.00    -0.190 OA 
HETATM    9  O   UNL     1      -6.685   6.607  66.361  1.00  0.00    -0.050 OA 
HETATM   10  O   UNL     1      -6.987   6.075  68.631  1.00  0.00    -0.070 OA 
HETATM   11  O   UNL     1      -7.163  10.165  64.934  1.00  0.00    -0.133 OA 
ENDROOT
BRANCH   2  12
HETATM   12  C   UNL     1     -10.243   7.942  66.837  1.00  0.00    -0.380 C  
BRANCH  12  13
HETATM   13  C   UNL     1     -10.508   7.649  68.298  1.00  0.00    -0.219 A  
HETATM   14  C   UNL     1     -11.003   6.421  68.699  1.00  0.00    -0.330 A  
HETATM   15  N   UNL     1     -11.386   6.130  69.967  1.00  0.00    -0.404 NA 
HETATM   16  C   UNL     1     -11.271   7.123  70.875  1.00  0.00    -0.276 A  
HETATM   17  C   UNL     1     -10.777   8.374  70.589  1.00  0.00    -0.245 A  
HETATM   18  C   UNL     1     -10.384   8.652  69.279  1.00  0.00    -0.228 A  
ENDBRANCH  12  13
ENDBRANCH   2  12
TORSDOF 2
ENDMDL
MODEL      161
REMARK 921   NORMALIZED FREE ENERGY PREDICTED BY IDOCK:   -2.59 KCAL/MOL
REMARK 922        TOTAL FREE ENERGY PREDICTED BY IDOCK:   -3.13 KCAL/MOL
REMARK 923 INTER-LIGAND FREE ENERGY PREDICTED BY IDOCK:   -2.79 KCAL/MOL
REMARK 924 INTRA-LIGAND FREE ENERGY PREDICTED BY IDOCK:   -0.34 KCAL/MOL
REMARK 927      BINDING AFFINITY PREDICTED BY RF-SCORE:    0.00 PKD
ROOT
HETATM    1  O   UNL     1      -8.368   6.870  69.981  1.00  0.00    -0.134 OA 
HETATM    2  C   UNL     1      -8.433   7.732  71.169  1.00  0.00    -0.112 C  
HETATM    3  H   UNL     1      -8.271   5.974  70.279  1.00  0.00     0.000 HD 
HETATM    4  P   UNL     1      -6.887   7.448  72.106  1.00  0.00    -0.061 P  
HETATM    5  O   UNL     1     -10.684   6.837  70.845  1.00  0.00    -0.224 OA 
HETATM    6  P   UNL     1      -9.869   7.295  72.215  1.00  0.00    -0.162 P  
HETATM    7  O   UNL     1      -7.124   8.873  72.888  1.00  0.00    -0.335 OA 
HETATM    8  O   UNL     1      -6.071   8.056  70.801  1.00  0.00    -0.033 OA 
HETATM    9  O   UNL     1      -9.143   5.818  72.365  1.00  0.00    -0.141 OA 
HETATM   10  O   UNL     1     -11.084   6.923  73.100  1.00  0.00    -0.268 OA 
HETATM   11  O   UNL     1      -5.578   7.207  72.899  1.00  0.00    -0.038 OA 
ENDROOT
BRANCH   2  12
HETATM   12  C   UNL     1      -8.594   9.212  70.677  1.00  0.00    -0.266 C  
BRANCH  12  13
HETATM   13  C   UNL     1      -8.871   9.463  69.209  1.00  0.00    -0.150 A  
HETATM   14  C   UNL     1      -7.843   9.755  68.331  1.00  0.00    -0.081 A  
HETATM   15  N   UNL     1      -8.025  10.117  67.037  1.00  0.00    -0.109 NA 
HETATM   16  C   UNL     1      -9.303  10.195  66.606  1.00  0.00    -0.162 A  
HETATM   17  C   UNL     1     -10.397   9.911  67.388  1.00  0.00    -0.301 A  
HETATM   18  C   UNL     1     -10.188   9.535  68.717  1.00  0.00    -0.215 A  
ENDBRANCH  12  13
ENDBRANCH   2  12
TORSDOF 2
ENDMDL
MODEL      162
REMARK 921   NORMALIZED FREE ENERGY PREDICTED BY IDOCK:   -2.57 KCAL/MOL
REMARK 922        TOTAL FREE ENERGY PREDICTED BY IDOCK:   -3.11 KCAL/MOL
REMARK 923 INTER-LIGAND FREE ENERGY PREDICTED BY IDOCK:   -3.70 KCAL/MOL
REMARK 924 INTRA-LIGAND FREE ENERGY PREDICTED BY IDOCK:    0.59 KCAL/MOL
REMARK 927      BINDING AFFINITY PREDICTED BY RF-SCORE:    0.00 PKD
ROOT
HETATM    1  O   UNL     1      -8.920   6.527  70.410  1.00  0.00    -0.150 OA 
HETATM    2  C   UNL     1      -9.546   7.480  69.482  1.00  0.00    -0.156 C  
HETATM    3  H   UNL     1      -8.007   6.442  70.163  1.00  0.00     0.000 HD 
HETATM    4  P   UNL     1      -9.314   6.801  67.799  1.00  0.00    -0.115 P  
HETATM    5  O   UNL     1      -8.427   8.819  71.194  1.00  0.00    -0.155 OA 
HETATM    6  P   UNL     1      -8.745   9.121  69.594  1.00  0.00    -0.171 P  
HETATM    7  O   UNL     1     -10.536   7.760  67.266  1.00  0.00    -0.295 OA 
HETATM    8  O   UNL     1     -10.242   5.514  68.270  1.00  0.00    -0.166 OA 
HETATM    9  O   UNL     1      -7.376   8.341  69.099  1.00  0.00    -0.077 OA 
HETATM   10  O   UNL     1      -8.067  10.510  69.688  1.00  0.00    -0.139 OA 
HETATM   11  O   UNL     1      -9.116   6.226  66.375  1.00  0.00    -0.146 OA 
ENDROOT
BRANCH   2  12
HETATM   12  C   UNL     1     -11.053   7.620  69.889  1.00  0.00    -0.160 C  
BRANCH  12  13
HETATM   13  C   UNL     1     -11.529   8.934  70.473  1.00  0.00    -0.231 A  
HETATM   14  C   UNL     1     -12.099   8.987  71.732  1.00  0.00    -0.368 A  
HETATM   15  N   UNL     1     -12.664  10.098  72.267  1.00  0.00    -0.226 NA 
HETATM   16  C   UNL     1     -12.661  11.207  71.497  1.00  0.00    -0.394 A  
HETATM   17  C   UNL     1     -12.107  11.269  70.239  1.00  0.00    -0.459 A  
HETATM   18  C   UNL     1     -11.527  10.116  69.709  1.00  0.00    -0.288 A  
ENDBRANCH  12  13
ENDBRANCH   2  12
TORSDOF 2
ENDMDL
MODEL      163
REMARK 921   NORMALIZED FREE ENERGY PREDICTED BY IDOCK:   -2.56 KCAL/MOL
REMARK 922        TOTAL FREE ENERGY PREDICTED BY IDOCK:   -3.09 KCAL/MOL
REMARK 923 INTER-LIGAND FREE ENERGY PREDICTED BY IDOCK:   -2.76 KCAL/MOL
REMARK 924 INTRA-LIGAND FREE ENERGY PREDICTED BY IDOCK:   -0.34 KCAL/MOL
REMARK 927      BINDING AFFINITY PREDICTED BY RF-SCORE:    0.00 PKD
ROOT
HETATM    1  O   UNL     1      -9.834   4.739  67.919  1.00  0.00    -0.158 OA 
HETATM    2  C   UNL     1      -9.602   6.092  68.445  1.00  0.00    -0.120 C  
HETATM    3  H   UNL     1     -10.700   4.725  67.531  1.00  0.00     0.000 HD 
HETATM    4  P   UNL     1     -10.937   6.420  69.652  1.00  0.00    -0.410 P  
HETATM    5  O   UNL     1      -9.094   6.186  66.056  1.00  0.00    -0.156 OA 
HETATM    6  P   UNL     1      -9.672   7.334  67.104  1.00  0.00    -0.199 P  
HETATM    7  O   UNL     1     -10.021   7.614  70.310  1.00  0.00    -0.187 OA 
HETATM    8  O   UNL     1     -10.333   5.169  70.550  1.00  0.00    -0.256 OA 
HETATM    9  O   UNL     1     -11.234   6.836  66.903  1.00  0.00    -0.375 OA 
HETATM   10  O   UNL     1      -9.733   8.385  65.969  1.00  0.00    -0.195 OA 
HETATM   11  O   UNL     1     -12.069   6.697  70.672  1.00  0.00    -0.394 OA 
ENDROOT
BRANCH   2  12
HETATM   12  C   UNL     1      -8.171   6.115  69.086  1.00  0.00    -0.113 C  
BRANCH  12  13
HETATM   13  C   UNL     1      -7.245   4.943  68.838  1.00  0.00    -0.053 A  
HETATM   14  C   UNL     1      -7.131   3.919  69.760  1.00  0.00    -0.042 A  
HETATM   15  N   UNL     1      -6.232   2.907  69.671  1.00  0.00    -0.027 NA 
HETATM   16  C   UNL     1      -5.404   2.929  68.604  1.00  0.00    -0.013 A  
HETATM   17  C   UNL     1      -5.441   3.889  67.620  1.00  0.00    -0.017 A  
HETATM   18  C   UNL     1      -6.377   4.920  67.729  1.00  0.00    -0.040 A  
ENDBRANCH  12  13
ENDBRANCH   2  12
TORSDOF 2
ENDMDL
MODEL      164
REMARK 921   NORMALIZED FREE ENERGY PREDICTED BY IDOCK:   -2.54 KCAL/MOL
REMARK 922        TOTAL FREE ENERGY PREDICTED BY IDOCK:   -3.08 KCAL/MOL
REMARK 923 INTER-LIGAND FREE ENERGY PREDICTED BY IDOCK:   -3.83 KCAL/MOL
REMARK 924 INTRA-LIGAND FREE ENERGY PREDICTED BY IDOCK:    0.76 KCAL/MOL
REMARK 927      BINDING AFFINITY PREDICTED BY RF-SCORE:    0.00 PKD
ROOT
HETATM    1  O   UNL     1     -12.079   9.107  70.438  1.00  0.00    -0.474 OA 
HETATM    2  C   UNL     1     -10.734   8.525  70.560  1.00  0.00    -0.221 C  
HETATM    3  H   UNL     1     -12.462   8.780  69.633  1.00  0.00     0.000 HD 
HETATM    4  P   UNL     1      -9.809   9.028  69.064  1.00  0.00    -0.186 P  
HETATM    5  O   UNL     1     -12.294   6.834  71.386  1.00  0.00    -0.354 OA 
HETATM    6  P   UNL     1     -10.819   6.699  70.640  1.00  0.00    -0.292 P  
HETATM    7  O   UNL     1      -8.403   8.704  69.850  1.00  0.00    -0.116 OA 
HETATM    8  O   UNL     1      -9.981  10.593  69.573  1.00  0.00    -0.197 OA 
HETATM    9  O   UNL     1     -11.490   6.795  69.134  1.00  0.00    -0.173 OA 
HETATM   10  O   UNL     1     -10.891   5.154  70.707  1.00  0.00    -0.132 OA 
HETATM   11  O   UNL     1      -9.026   9.454  67.797  1.00  0.00    -0.123 OA 
ENDROOT
BRANCH   2  12
HETATM   12  C   UNL     1     -10.101   9.064  71.889  1.00  0.00    -0.323 C  
BRANCH  12  13
HETATM   13  C   UNL     1      -9.278   8.117  72.738  1.00  0.00    -0.341 A  
HETATM   14  C   UNL     1      -9.884   7.268  73.646  1.00  0.00    -0.307 A  
HETATM   15  N   UNL     1      -9.211   6.490  74.529  1.00  0.00    -0.192 NA 
HETATM   16  C   UNL     1      -7.863   6.573  74.501  1.00  0.00    -0.111 A  
HETATM   17  C   UNL     1      -7.159   7.370  73.629  1.00  0.00    -0.095 A  
HETATM   18  C   UNL     1      -7.871   8.161  72.726  1.00  0.00    -0.197 A  
ENDBRANCH  12  13
ENDBRANCH   2  12
TORSDOF 2
ENDMDL
MODEL      165
REMARK 921   NORMALIZED FREE ENERGY PREDICTED BY IDOCK:   -2.51 KCAL/MOL
REMARK 922        TOTAL FREE ENERGY PREDICTED BY IDOCK:   -3.04 KCAL/MOL
REMARK 923 INTER-LIGAND FREE ENERGY PREDICTED BY IDOCK:   -2.79 KCAL/MOL
REMARK 924 INTRA-LIGAND FREE ENERGY PREDICTED BY IDOCK:   -0.24 KCAL/MOL
REMARK 927      BINDING AFFINITY PREDICTED BY RF-SCORE:    0.00 PKD
ROOT
HETATM    1  O   UNL     1      -7.640  11.313  65.895  1.00  0.00    -0.359 OA 
HETATM    2  C   UNL     1      -8.694  10.743  66.745  1.00  0.00    -0.143 C  
HETATM    3  H   UNL     1      -7.816  11.049  65.000  1.00  0.00     0.000 HD 
HETATM    4  P   UNL     1      -8.635   8.930  66.505  1.00  0.00    -0.133 P  
HETATM    5  O   UNL     1      -9.621  12.788  65.779  1.00  0.00    -0.207 OA 
HETATM    6  P   UNL     1     -10.341  11.370  66.253  1.00  0.00    -0.259 P  
HETATM    7  O   UNL     1      -9.456   8.738  67.915  1.00  0.00    -0.140 OA 
HETATM    8  O   UNL     1      -7.112   8.968  67.150  1.00  0.00    -0.077 OA 
HETATM    9  O   UNL     1     -10.037  10.646  64.800  1.00  0.00    -0.304 OA 
HETATM   10  O   UNL     1     -11.734  11.901  65.835  1.00  0.00    -0.424 OA 
HETATM   11  O   UNL     1      -8.586   7.395  66.300  1.00  0.00    -0.128 OA 
ENDROOT
BRANCH   2  12
HETATM   12  C   UNL     1      -8.404  11.180  68.223  1.00  0.00    -0.143 C  
BRANCH  12  13
HETATM   13  C   UNL     1      -7.498  12.369  68.464  1.00  0.00    -0.112 A  
HETATM   14  C   UNL     1      -6.129  12.209  68.573  1.00  0.00    -0.051 A  
HETATM   15  N   UNL     1      -5.270  13.202  68.917  1.00  0.00    -0.068 NA 
HETATM   16  C   UNL     1      -5.815  14.412  69.167  1.00  0.00    -0.093 A  
HETATM   17  C   UNL     1      -7.160  14.685  69.071  1.00  0.00    -0.128 A  
HETATM   18  C   UNL     1      -8.026  13.651  68.713  1.00  0.00    -0.022 A  
ENDBRANCH  12  13
ENDBRANCH   2  12
TORSDOF 2
ENDMDL
MODEL      166
REMARK 921   NORMALIZED FREE ENERGY PREDICTED BY IDOCK:   -2.47 KCAL/MOL
REMARK 922        TOTAL FREE ENERGY PREDICTED BY IDOCK:   -3.00 KCAL/MOL
REMARK 923 INTER-LIGAND FREE ENERGY PREDICTED BY IDOCK:   -2.77 KCAL/MOL
REMARK 924 INTRA-LIGAND FREE ENERGY PREDICTED BY IDOCK:   -0.22 KCAL/MOL
REMARK 927      BINDING AFFINITY PREDICTED BY RF-SCORE:    0.00 PKD
ROOT
HETATM    1  O   UNL     1      -8.287   7.287  69.289  1.00  0.00    -0.129 OA 
HETATM    2  C   UNL     1      -8.963   7.431  70.586  1.00  0.00    -0.155 C  
HETATM    3  H   UNL     1      -8.336   6.373  69.038  1.00  0.00     0.000 HD 
HETATM    4  P   UNL     1      -8.099   6.317  71.752  1.00  0.00    -0.101 P  
HETATM    5  O   UNL     1     -10.721   7.458  68.888  1.00  0.00    -0.200 OA 
HETATM    6  P   UNL     1     -10.721   6.941  70.464  1.00  0.00    -0.260 P  
HETATM    7  O   UNL     1      -8.729   7.173  73.005  1.00  0.00    -0.122 OA 
HETATM    8  O   UNL     1      -6.747   7.243  71.520  1.00  0.00    -0.050 OA 
HETATM    9  O   UNL     1     -10.141   5.450  70.051  1.00  0.00    -0.209 OA 
HETATM   10  O   UNL     1     -12.209   6.525  70.361  1.00  0.00    -0.306 OA 
HETATM   11  O   UNL     1      -7.367   5.373  72.738  1.00  0.00    -0.091 OA 
ENDROOT
BRANCH   2  12
HETATM   12  C   UNL     1      -8.883   8.941  71.000  1.00  0.00    -0.285 C  
BRANCH  12  13
HETATM   13  C   UNL     1      -8.459   9.958  69.961  1.00  0.00    -0.191 A  
HETATM   14  C   UNL     1      -9.374  10.482  69.065  1.00  0.00    -0.196 A  
HETATM   15  N   UNL     1      -9.047  11.294  68.029  1.00  0.00    -0.150 NA 
HETATM   16  C   UNL     1      -7.737  11.588  67.883  1.00  0.00    -0.120 A  
HETATM   17  C   UNL     1      -6.748  11.135  68.724  1.00  0.00    -0.067 A  
HETATM   18  C   UNL     1      -7.106  10.304  69.788  1.00  0.00    -0.140 A  
ENDBRANCH  12  13
ENDBRANCH   2  12
TORSDOF 2
ENDMDL
MODEL      167
REMARK 921   NORMALIZED FREE ENERGY PREDICTED BY IDOCK:   -2.45 KCAL/MOL
REMARK 922        TOTAL FREE ENERGY PREDICTED BY IDOCK:   -2.98 KCAL/MOL
REMARK 923 INTER-LIGAND FREE ENERGY PREDICTED BY IDOCK:   -2.64 KCAL/MOL
REMARK 924 INTRA-LIGAND FREE ENERGY PREDICTED BY IDOCK:   -0.34 KCAL/MOL
REMARK 927      BINDING AFFINITY PREDICTED BY RF-SCORE:    0.00 PKD
ROOT
HETATM    1  O   UNL     1      -9.408   7.778  65.658  1.00  0.00    -0.399 OA 
HETATM    2  C   UNL     1      -8.894   6.808  66.635  1.00  0.00    -0.137 C  
HETATM    3  H   UNL     1     -10.168   7.392  65.240  1.00  0.00     0.000 HD 
HETATM    4  P   UNL     1      -8.506   5.283  65.702  1.00  0.00    -0.144 P  
HETATM    5  O   UNL     1     -10.735   7.981  67.735  1.00  0.00    -0.198 OA 
HETATM    6  P   UNL     1     -10.151   6.439  67.912  1.00  0.00    -0.188 P  
HETATM    7  O   UNL     1      -7.536   4.799  66.936  1.00  0.00    -0.084 OA 
HETATM    8  O   UNL     1      -7.374   6.164  64.876  1.00  0.00    -0.067 OA 
HETATM    9  O   UNL     1     -11.066   5.870  66.659  1.00  0.00    -0.246 OA 
HETATM   10  O   UNL     1     -11.216   6.126  68.992  1.00  0.00    -0.383 OA 
HETATM   11  O   UNL     1      -8.178   3.992  64.911  1.00  0.00    -0.096 OA 
ENDROOT
BRANCH   2  12
HETATM   12  C   UNL     1      -7.639   7.446  67.325  1.00  0.00    -0.108 C  
BRANCH  12  13
HETATM   13  C   UNL     1      -7.362   8.919  67.110  1.00  0.00    -0.084 A  
HETATM   14  C   UNL     1      -6.468   9.340  66.143  1.00  0.00    -0.069 A  
HETATM   15  N   UNL     1      -6.071  10.626  65.979  1.00  0.00    -0.119 NA 
HETATM   16  C   UNL     1      -6.595  11.533  66.832  1.00  0.00    -0.138 A  
HETATM   17  C   UNL     1      -7.503  11.226  67.818  1.00  0.00    -0.095 A  
HETATM   18  C   UNL     1      -7.901   9.896  67.968  1.00  0.00    -0.086 A  
ENDBRANCH  12  13
ENDBRANCH   2  12
TORSDOF 2
ENDMDL
MODEL      168
REMARK 921   NORMALIZED FREE ENERGY PREDICTED BY IDOCK:   -2.43 KCAL/MOL
REMARK 922        TOTAL FREE ENERGY PREDICTED BY IDOCK:   -2.95 KCAL/MOL
REMARK 923 INTER-LIGAND FREE ENERGY PREDICTED BY IDOCK:   -3.70 KCAL/MOL
REMARK 924 INTRA-LIGAND FREE ENERGY PREDICTED BY IDOCK:    0.76 KCAL/MOL
REMARK 927      BINDING AFFINITY PREDICTED BY RF-SCORE:    0.00 PKD
ROOT
HETATM    1  O   UNL     1      -9.735  12.921  69.310  1.00  0.00    -0.173 OA 
HETATM    2  C   UNL     1     -10.813  12.168  68.652  1.00  0.00    -0.235 C  
HETATM    3  H   UNL     1      -8.947  12.394  69.266  1.00  0.00     0.000 HD 
HETATM    4  P   UNL     1     -10.959  10.578  69.544  1.00  0.00    -0.292 P  
HETATM    5  O   UNL     1      -9.556  13.271  66.869  1.00  0.00    -0.234 OA 
HETATM    6  P   UNL     1     -10.407  11.847  66.897  1.00  0.00    -0.222 P  
HETATM    7  O   UNL     1     -12.469  10.393  68.924  1.00  0.00    -0.053 OA 
HETATM    8  O   UNL     1     -11.386  11.452  70.883  1.00  0.00     0.351 OA 
HETATM    9  O   UNL     1      -9.116  11.002  67.486  1.00  0.00    -0.137 OA 
HETATM   10  O   UNL     1     -10.062  11.576  65.412  1.00  0.00    -0.237 OA 
HETATM   11  O   UNL     1     -11.083   9.231  70.300  1.00  0.00    -0.243 OA 
ENDROOT
BRANCH   2  12
HETATM   12  C   UNL     1     -12.114  13.039  68.722  1.00  0.00    -0.197 C  
BRANCH  12  13
HETATM   13  C   UNL     1     -12.156  14.207  69.685  1.00  0.00    -0.400 A  
HETATM   14  C   UNL     1     -11.042  15.001  69.888  1.00  0.00    -0.274 A  
HETATM   15  N   UNL     1     -10.963  15.978  70.825  1.00  0.00    -0.276 NA 
HETATM   16  C   UNL     1     -12.054  16.163  71.598  1.00  0.00    -0.418 A  
HETATM   17  C   UNL     1     -13.219  15.443  71.471  1.00  0.00    -0.572 A  
HETATM   18  C   UNL     1     -13.281  14.443  70.498  1.00  0.00    -0.094 A  
ENDBRANCH  12  13
ENDBRANCH   2  12
TORSDOF 2
ENDMDL
MODEL      169
REMARK 921   NORMALIZED FREE ENERGY PREDICTED BY IDOCK:   -2.42 KCAL/MOL
REMARK 922        TOTAL FREE ENERGY PREDICTED BY IDOCK:   -2.94 KCAL/MOL
REMARK 923 INTER-LIGAND FREE ENERGY PREDICTED BY IDOCK:   -2.96 KCAL/MOL
REMARK 924 INTRA-LIGAND FREE ENERGY PREDICTED BY IDOCK:    0.02 KCAL/MOL
REMARK 927      BINDING AFFINITY PREDICTED BY RF-SCORE:    0.00 PKD
ROOT
HETATM    1  O   UNL     1     -13.027  14.362  68.723  1.00  0.00     0.141 OA 
HETATM    2  C   UNL     1     -11.979  13.815  69.596  1.00  0.00    -0.342 C  
HETATM    3  H   UNL     1     -13.842  14.352  69.210  1.00  0.00     0.000 HD 
HETATM    4  P   UNL     1     -12.517  12.131  70.066  1.00  0.00     0.224 P  
HETATM    5  O   UNL     1     -12.234  16.166  70.216  1.00  0.00    -0.190 OA 
HETATM    6  P   UNL     1     -11.785  14.837  71.101  1.00  0.00    -0.212 P  
HETATM    7  O   UNL     1     -10.965  11.770  70.467  1.00  0.00     0.736 OA 
HETATM    8  O   UNL     1     -12.420  11.732  68.463  1.00  0.00    -0.205 OA 
HETATM    9  O   UNL     1     -13.354  14.429  71.421  1.00  0.00    -0.329 OA 
HETATM   10  O   UNL     1     -11.622  15.701  72.376  1.00  0.00    -0.428 OA 
HETATM   11  O   UNL     1     -12.973  10.706  70.465  1.00  0.00    -0.323 OA 
ENDROOT
BRANCH   2  12
HETATM   12  C   UNL     1     -10.633  13.832  68.793  1.00  0.00    -0.253 C  
BRANCH  12  13
HETATM   13  C   UNL     1     -10.644  14.342  67.367  1.00  0.00    -0.276 A  
HETATM   14  C   UNL     1     -11.086  13.542  66.329  1.00  0.00    -0.300 A  
HETATM   15  N   UNL     1     -11.005  13.879  65.018  1.00  0.00    -0.347 NA 
HETATM   16  C   UNL     1     -10.447  15.076  64.736  1.00  0.00    -0.234 A  
HETATM   17  C   UNL     1      -9.990  15.956  65.689  1.00  0.00    -0.368 A  
HETATM   18  C   UNL     1     -10.087  15.591  67.034  1.00  0.00    -0.254 A  
ENDBRANCH  12  13
ENDBRANCH   2  12
TORSDOF 2
ENDMDL
MODEL      170
REMARK 921   NORMALIZED FREE ENERGY PREDICTED BY IDOCK:   -2.39 KCAL/MOL
REMARK 922        TOTAL FREE ENERGY PREDICTED BY IDOCK:   -2.91 KCAL/MOL
REMARK 923 INTER-LIGAND FREE ENERGY PREDICTED BY IDOCK:   -2.57 KCAL/MOL
REMARK 924 INTRA-LIGAND FREE ENERGY PREDICTED BY IDOCK:   -0.34 KCAL/MOL
REMARK 927      BINDING AFFINITY PREDICTED BY RF-SCORE:    0.00 PKD
ROOT
HETATM    1  O   UNL     1     -10.474   4.926  67.105  1.00  0.00    -0.170 OA 
HETATM    2  C   UNL     1      -9.557   5.514  68.091  1.00  0.00    -0.119 C  
HETATM    3  H   UNL     1     -11.330   4.860  67.510  1.00  0.00     0.000 HD 
HETATM    4  P   UNL     1      -9.580   4.410  69.550  1.00  0.00    -0.187 P  
HETATM    5  O   UNL     1     -10.756   7.382  67.066  1.00  0.00    -0.340 OA 
HETATM    6  P   UNL     1     -10.113   7.187  68.583  1.00  0.00    -0.183 P  
HETATM    7  O   UNL     1      -8.153   5.061  70.039  1.00  0.00    -0.073 OA 
HETATM    8  O   UNL     1      -8.952   3.230  68.574  1.00  0.00    -0.106 OA 
HETATM    9  O   UNL     1     -11.471   6.428  69.140  1.00  0.00    -0.364 OA 
HETATM   10  O   UNL     1     -10.585   8.601  69.000  1.00  0.00    -0.217 OA 
HETATM   11  O   UNL     1      -9.601   3.475  70.784  1.00  0.00    -0.163 OA 
ENDROOT
BRANCH   2  12
HETATM   12  C   UNL     1      -8.144   5.625  67.422  1.00  0.00    -0.102 C  
BRANCH  12  13
HETATM   13  C   UNL     1      -8.024   5.375  65.933  1.00  0.00    -0.106 A  
HETATM   14  C   UNL     1      -7.651   4.134  65.448  1.00  0.00    -0.085 A  
HETATM   15  N   UNL     1      -7.397   3.870  64.143  1.00  0.00    -0.058 NA 
HETATM   16  C   UNL     1      -7.518   4.905  63.283  1.00  0.00    -0.054 A  
HETATM   17  C   UNL     1      -7.898   6.173  63.655  1.00  0.00    -0.112 A  
HETATM   18  C   UNL     1      -8.159   6.423  65.003  1.00  0.00    -0.135 A  
ENDBRANCH  12  13
ENDBRANCH   2  12
TORSDOF 2
ENDMDL
MODEL      171
REMARK 921   NORMALIZED FREE ENERGY PREDICTED BY IDOCK:   -2.39 KCAL/MOL
REMARK 922        TOTAL FREE ENERGY PREDICTED BY IDOCK:   -2.91 KCAL/MOL
REMARK 923 INTER-LIGAND FREE ENERGY PREDICTED BY IDOCK:   -3.20 KCAL/MOL
REMARK 924 INTRA-LIGAND FREE ENERGY PREDICTED BY IDOCK:    0.29 KCAL/MOL
REMARK 927      BINDING AFFINITY PREDICTED BY RF-SCORE:    0.00 PKD
ROOT
HETATM    1  O   UNL     1     -11.056   5.595  66.126  1.00  0.00    -0.743 OA 
HETATM    2  C   UNL     1      -9.777   5.661  66.848  1.00  0.00    -0.148 C  
HETATM    3  H   UNL     1     -11.732   5.378  66.756  1.00  0.00     0.000 HD 
HETATM    4  P   UNL     1      -9.535   4.027  67.633  1.00  0.00    -0.131 P  
HETATM    5  O   UNL     1     -10.872   7.821  67.186  1.00  0.00    -0.313 OA 
HETATM    6  P   UNL     1      -9.824   6.958  68.139  1.00  0.00    -0.146 P  
HETATM    7  O   UNL     1      -7.931   4.357  67.775  1.00  0.00    -0.087 OA 
HETATM    8  O   UNL     1      -9.485   3.384  66.109  1.00  0.00    -0.170 OA 
HETATM    9  O   UNL     1     -11.046   6.067  68.803  1.00  0.00    -0.336 OA 
HETATM   10  O   UNL     1      -9.864   8.054  69.231  1.00  0.00    -0.172 OA 
HETATM   11  O   UNL     1      -9.330   2.643  68.298  1.00  0.00    -0.187 OA 
ENDROOT
BRANCH   2  12
HETATM   12  C   UNL     1      -8.660   6.019  65.808  1.00  0.00    -0.155 C  
BRANCH  12  13
HETATM   13  C   UNL     1      -8.091   7.422  65.807  1.00  0.00    -0.129 A  
HETATM   14  C   UNL     1      -8.604   8.397  64.970  1.00  0.00    -0.106 A  
HETATM   15  N   UNL     1      -8.066   9.633  64.819  1.00  0.00    -0.130 NA 
HETATM   16  C   UNL     1      -6.955   9.900  65.540  1.00  0.00    -0.110 A  
HETATM   17  C   UNL     1      -6.372   9.011  66.412  1.00  0.00    -0.065 A  
HETATM   18  C   UNL     1      -6.944   7.746  66.556  1.00  0.00    -0.067 A  
ENDBRANCH  12  13
ENDBRANCH   2  12
TORSDOF 2
ENDMDL
MODEL      172
REMARK 921   NORMALIZED FREE ENERGY PREDICTED BY IDOCK:   -2.36 KCAL/MOL
REMARK 922        TOTAL FREE ENERGY PREDICTED BY IDOCK:   -2.87 KCAL/MOL
REMARK 923 INTER-LIGAND FREE ENERGY PREDICTED BY IDOCK:   -3.29 KCAL/MOL
REMARK 924 INTRA-LIGAND FREE ENERGY PREDICTED BY IDOCK:    0.42 KCAL/MOL
REMARK 927      BINDING AFFINITY PREDICTED BY RF-SCORE:    0.00 PKD
ROOT
HETATM    1  O   UNL     1      -9.421  12.652  67.616  1.00  0.00    -0.179 OA 
HETATM    2  C   UNL     1      -9.508  11.185  67.588  1.00  0.00    -0.166 C  
HETATM    3  H   UNL     1      -9.015  12.902  68.437  1.00  0.00     0.000 HD 
HETATM    4  P   UNL     1     -10.485  10.692  69.054  1.00  0.00    -0.236 P  
HETATM    5  O   UNL     1      -7.237  11.753  66.885  1.00  0.00    -0.144 OA 
HETATM    6  P   UNL     1      -7.844  10.431  67.681  1.00  0.00    -0.105 P  
HETATM    7  O   UNL     1     -10.781   9.241  68.342  1.00  0.00    -0.211 OA 
HETATM    8  O   UNL     1     -11.758  11.517  68.392  1.00  0.00    -0.327 OA 
HETATM    9  O   UNL     1      -7.733  11.175  69.152  1.00  0.00    -0.129 OA 
HETATM   10  O   UNL     1      -6.435   9.793  67.761  1.00  0.00    -0.056 OA 
HETATM   11  O   UNL     1     -11.312  10.275  70.295  1.00  0.00    -0.277 OA 
ENDROOT
BRANCH   2  12
HETATM   12  C   UNL     1     -10.178  10.774  66.232  1.00  0.00    -0.301 C  
BRANCH  12  13
HETATM   13  C   UNL     1      -9.339  10.056  65.195  1.00  0.00    -0.302 A  
HETATM   14  C   UNL     1      -9.061  10.644  63.975  1.00  0.00    -0.224 A  
HETATM   15  N   UNL     1      -8.430  10.016  62.951  1.00  0.00    -0.159 NA 
HETATM   16  C   UNL     1      -8.066   8.733  63.163  1.00  0.00    -0.176 A  
HETATM   17  C   UNL     1      -8.279   8.058  64.342  1.00  0.00    -0.085 A  
HETATM   18  C   UNL     1      -8.926   8.724  65.385  1.00  0.00    -0.211 A  
ENDBRANCH  12  13
ENDBRANCH   2  12
TORSDOF 2
ENDMDL
MODEL      173
REMARK 921   NORMALIZED FREE ENERGY PREDICTED BY IDOCK:   -2.35 KCAL/MOL
REMARK 922        TOTAL FREE ENERGY PREDICTED BY IDOCK:   -2.86 KCAL/MOL
REMARK 923 INTER-LIGAND FREE ENERGY PREDICTED BY IDOCK:   -4.49 KCAL/MOL
REMARK 924 INTRA-LIGAND FREE ENERGY PREDICTED BY IDOCK:    1.63 KCAL/MOL
REMARK 927      BINDING AFFINITY PREDICTED BY RF-SCORE:    0.00 PKD
ROOT
HETATM    1  O   UNL     1     -12.381  13.924  66.732  1.00  0.00    -0.422 OA 
HETATM    2  C   UNL     1     -11.248  13.997  65.799  1.00  0.00    -0.303 C  
HETATM    3  H   UNL     1     -13.175  14.076  66.234  1.00  0.00     0.000 HD 
HETATM    4  P   UNL     1     -11.310  15.655  65.029  1.00  0.00    -0.108 P  
HETATM    5  O   UNL     1     -12.164  11.739  65.596  1.00  0.00    -0.289 OA 
HETATM    6  P   UNL     1     -11.389  12.715  64.501  1.00  0.00    -0.386 P  
HETATM    7  O   UNL     1      -9.731  15.493  64.604  1.00  0.00     0.084 OA 
HETATM    8  O   UNL     1     -11.060  16.285  66.539  1.00  0.00    -0.084 OA 
HETATM    9  O   UNL     1     -12.790  13.481  64.081  1.00  0.00    -0.626 OA 
HETATM   10  O   UNL     1     -11.509  11.631  63.402  1.00  0.00    -0.393 OA 
HETATM   11  O   UNL     1     -11.363  17.059  64.376  1.00  0.00    -1.140 OA 
ENDROOT
BRANCH   2  12
HETATM   12  C   UNL     1      -9.937  13.746  66.622  1.00  0.00    -0.279 C  
BRANCH  12  13
HETATM   13  C   UNL     1      -9.742  14.495  67.924  1.00  0.00    -0.218 A  
HETATM   14  C   UNL     1     -10.774  14.615  68.837  1.00  0.00    -0.248 A  
HETATM   15  N   UNL     1     -10.716  15.375  69.958  1.00  0.00    -0.293 NA 
HETATM   16  C   UNL     1      -9.567  16.052  70.169  1.00  0.00     0.521 A  
HETATM   17  C   UNL     1      -8.474  15.992  69.337  1.00  0.00    -0.146 A  
HETATM   18  C   UNL     1      -8.552  15.200  68.190  1.00  0.00    -0.158 A  
ENDBRANCH  12  13
ENDBRANCH   2  12
TORSDOF 2
ENDMDL
MODEL      174
REMARK 921   NORMALIZED FREE ENERGY PREDICTED BY IDOCK:   -2.35 KCAL/MOL
REMARK 922        TOTAL FREE ENERGY PREDICTED BY IDOCK:   -2.86 KCAL/MOL
REMARK 923 INTER-LIGAND FREE ENERGY PREDICTED BY IDOCK:   -5.01 KCAL/MOL
REMARK 924 INTRA-LIGAND FREE ENERGY PREDICTED BY IDOCK:    2.16 KCAL/MOL
REMARK 927      BINDING AFFINITY PREDICTED BY RF-SCORE:    0.00 PKD
ROOT
HETATM    1  O   UNL     1      -9.335  13.272  66.380  1.00  0.00    -0.351 OA 
HETATM    2  C   UNL     1      -9.868  14.591  66.751  1.00  0.00    -0.265 C  
HETATM    3  H   UNL     1     -10.061  12.661  66.368  1.00  0.00     0.000 HD 
HETATM    4  P   UNL     1     -10.669  14.391  68.383  1.00  0.00    -0.260 P  
HETATM    5  O   UNL     1     -10.278  14.330  64.355  1.00  0.00    -0.227 OA 
HETATM    6  P   UNL     1     -11.105  15.161  65.529  1.00  0.00    -0.301 P  
HETATM    7  O   UNL     1     -10.573  16.016  68.606  1.00  0.00    -0.241 OA 
HETATM    8  O   UNL     1      -9.177  14.006  68.987  1.00  0.00    -0.023 OA 
HETATM    9  O   UNL     1     -11.965  13.823  65.972  1.00  0.00    -0.369 OA 
HETATM   10  O   UNL     1     -12.153  15.642  64.496  1.00  0.00    -0.231 OA 
HETATM   11  O   UNL     1     -11.348  14.222  69.765  1.00  0.00    -0.257 OA 
ENDROOT
BRANCH   2  12
HETATM   12  C   UNL     1      -8.669  15.601  66.770  1.00  0.00    -0.306 C  
BRANCH  12  13
HETATM   13  C   UNL     1      -8.942  17.059  66.464  1.00  0.00    -0.298 A  
HETATM   14  C   UNL     1      -7.907  17.932  66.183  1.00  0.00    -0.222 A  
HETATM   15  N   UNL     1      -8.059  19.271  66.028  1.00  0.00    -0.433 NA 
HETATM   16  C   UNL     1      -9.312  19.756  66.168  1.00  0.00    -0.363 A  
HETATM   17  C   UNL     1     -10.414  18.976  66.430  1.00  0.00    -0.524 A  
HETATM   18  C   UNL     1     -10.237  17.600  66.582  1.00  0.00    -0.341 A  
ENDBRANCH  12  13
ENDBRANCH   2  12
TORSDOF 2
ENDMDL
MODEL      175
REMARK 921   NORMALIZED FREE ENERGY PREDICTED BY IDOCK:   -2.34 KCAL/MOL
REMARK 922        TOTAL FREE ENERGY PREDICTED BY IDOCK:   -2.85 KCAL/MOL
REMARK 923 INTER-LIGAND FREE ENERGY PREDICTED BY IDOCK:   -2.51 KCAL/MOL
REMARK 924 INTRA-LIGAND FREE ENERGY PREDICTED BY IDOCK:   -0.33 KCAL/MOL
REMARK 927      BINDING AFFINITY PREDICTED BY RF-SCORE:    0.00 PKD
ROOT
HETATM    1  O   UNL     1      -8.063   7.583  67.744  1.00  0.00    -0.116 OA 
HETATM    2  C   UNL     1      -9.513   7.602  67.981  1.00  0.00    -0.143 C  
HETATM    3  H   UNL     1      -7.921   7.696  66.812  1.00  0.00     0.000 HD 
HETATM    4  P   UNL     1     -10.224   6.249  66.977  1.00  0.00    -0.251 P  
HETATM    5  O   UNL     1      -8.807   9.939  67.848  1.00  0.00    -0.128 OA 
HETATM    6  P   UNL     1     -10.239   9.198  67.458  1.00  0.00    -0.276 P  
HETATM    7  O   UNL     1     -11.569   6.283  67.921  1.00  0.00     0.094 OA 
HETATM    8  O   UNL     1      -9.342   5.197  67.901  1.00  0.00    -0.113 OA 
HETATM    9  O   UNL     1      -9.704   8.796  65.948  1.00  0.00    -0.237 OA 
HETATM   10  O   UNL     1     -10.853  10.548  67.014  1.00  0.00    -0.268 OA 
HETATM   11  O   UNL     1     -10.826   5.104  66.125  1.00  0.00    -0.282 OA 
ENDROOT
BRANCH   2  12
HETATM   12  C   UNL     1      -9.746   7.417  69.521  1.00  0.00    -0.159 C  
BRANCH  12  13
HETATM   13  C   UNL     1      -8.549   7.457  70.447  1.00  0.00    -0.144 A  
HETATM   14  C   UNL     1      -7.954   6.289  70.890  1.00  0.00    -0.112 A  
HETATM   15  N   UNL     1      -6.966   6.241  71.818  1.00  0.00    -0.075 NA 
HETATM   16  C   UNL     1      -6.561   7.423  72.329  1.00  0.00    -0.051 A  
HETATM   17  C   UNL     1      -7.071   8.642  71.949  1.00  0.00    -0.090 A  
HETATM   18  C   UNL     1      -8.084   8.670  70.989  1.00  0.00    -0.164 A  
ENDBRANCH  12  13
ENDBRANCH   2  12
TORSDOF 2
ENDMDL
MODEL      176
REMARK 921   NORMALIZED FREE ENERGY PREDICTED BY IDOCK:   -2.30 KCAL/MOL
REMARK 922        TOTAL FREE ENERGY PREDICTED BY IDOCK:   -2.80 KCAL/MOL
REMARK 923 INTER-LIGAND FREE ENERGY PREDICTED BY IDOCK:   -3.07 KCAL/MOL
REMARK 924 INTRA-LIGAND FREE ENERGY PREDICTED BY IDOCK:    0.27 KCAL/MOL
REMARK 927      BINDING AFFINITY PREDICTED BY RF-SCORE:    0.00 PKD
ROOT
HETATM    1  O   UNL     1      -8.404   8.381  68.455  1.00  0.00    -0.128 OA 
HETATM    2  C   UNL     1      -9.632   8.821  69.133  1.00  0.00    -0.162 C  
HETATM    3  H   UNL     1      -8.658   7.962  67.642  1.00  0.00     0.000 HD 
HETATM    4  P   UNL     1     -10.656   7.325  69.382  1.00  0.00    -0.189 P  
HETATM    5  O   UNL     1      -9.103  10.544  67.481  1.00  0.00    -0.138 OA 
HETATM    6  P   UNL     1     -10.550  10.024  68.104  1.00  0.00    -0.243 P  
HETATM    7  O   UNL     1     -11.499   8.122  70.545  1.00  0.00    -0.259 OA 
HETATM    8  O   UNL     1      -9.447   6.749  70.353  1.00  0.00    -0.165 OA 
HETATM    9  O   UNL     1     -10.666   8.797  67.005  1.00  0.00    -0.262 OA 
HETATM   10  O   UNL     1     -11.327  11.042  67.233  1.00  0.00    -0.408 OA 
HETATM   11  O   UNL     1     -11.523   6.059  69.592  1.00  0.00    -0.394 OA 
ENDROOT
BRANCH   2  12
HETATM   12  C   UNL     1      -9.213   9.514  70.475  1.00  0.00    -0.284 C  
BRANCH  12  13
HETATM   13  C   UNL     1      -7.774   9.403  70.932  1.00  0.00    -0.089 A  
HETATM   14  C   UNL     1      -6.750   9.981  70.202  1.00  0.00    -0.128 A  
HETATM   15  N   UNL     1      -5.432   9.816  70.475  1.00  0.00    -0.043 NA 
HETATM   16  C   UNL     1      -5.128   9.027  71.528  1.00  0.00    -0.038 A  
HETATM   17  C   UNL     1      -6.065   8.418  72.330  1.00  0.00    -0.065 A  
HETATM   18  C   UNL     1      -7.417   8.604  72.035  1.00  0.00    -0.078 A  
ENDBRANCH  12  13
ENDBRANCH   2  12
TORSDOF 2
ENDMDL
MODEL      177
REMARK 921   NORMALIZED FREE ENERGY PREDICTED BY IDOCK:   -2.24 KCAL/MOL
REMARK 922        TOTAL FREE ENERGY PREDICTED BY IDOCK:   -2.73 KCAL/MOL
REMARK 923 INTER-LIGAND FREE ENERGY PREDICTED BY IDOCK:   -3.18 KCAL/MOL
REMARK 924 INTRA-LIGAND FREE ENERGY PREDICTED BY IDOCK:    0.44 KCAL/MOL
REMARK 927      BINDING AFFINITY PREDICTED BY RF-SCORE:    0.00 PKD
ROOT
HETATM    1  O   UNL     1     -10.261   5.180  70.742  1.00  0.00    -0.223 OA 
HETATM    2  C   UNL     1     -10.380   6.643  70.659  1.00  0.00    -0.202 C  
HETATM    3  H   UNL     1     -10.877   4.805  70.124  1.00  0.00     0.000 HD 
HETATM    4  P   UNL     1     -12.123   7.048  71.041  1.00  0.00    -0.307 P  
HETATM    5  O   UNL     1      -8.914   5.966  68.824  1.00  0.00    -0.117 OA 
HETATM    6  P   UNL     1      -9.970   7.236  68.978  1.00  0.00    -0.186 P  
HETATM    7  O   UNL     1     -11.669   8.591  71.378  1.00  0.00    -0.273 OA 
HETATM    8  O   UNL     1     -11.863   6.416  72.548  1.00  0.00    -0.236 OA 
HETATM    9  O   UNL     1     -11.255   6.323  68.484  1.00  0.00    -0.352 OA 
HETATM   10  O   UNL     1      -9.624   7.738  67.555  1.00  0.00    -0.140 OA 
HETATM   11  O   UNL     1     -13.599   7.390  71.364  1.00  0.00    -0.379 OA 
ENDROOT
BRANCH   2  12
HETATM   12  C   UNL     1      -9.364   7.262  71.680  1.00  0.00    -0.160 C  
BRANCH  12  13
HETATM   13  C   UNL     1      -8.184   8.046  71.145  1.00  0.00    -0.111 A  
HETATM   14  C   UNL     1      -8.306   9.388  70.830  1.00  0.00    -0.131 A  
HETATM   15  N   UNL     1      -7.337  10.121  70.228  1.00  0.00    -0.230 NA 
HETATM   16  C   UNL     1      -6.192   9.473  69.923  1.00  0.00    -0.045 A  
HETATM   17  C   UNL     1      -5.959   8.147  70.206  1.00  0.00    -0.028 A  
HETATM   18  C   UNL     1      -6.968   7.411  70.830  1.00  0.00    -0.055 A  
ENDBRANCH  12  13
ENDBRANCH   2  12
TORSDOF 2
ENDMDL
MODEL      178
REMARK 921   NORMALIZED FREE ENERGY PREDICTED BY IDOCK:   -1.93 KCAL/MOL
REMARK 922        TOTAL FREE ENERGY PREDICTED BY IDOCK:   -2.39 KCAL/MOL
REMARK 923 INTER-LIGAND FREE ENERGY PREDICTED BY IDOCK:   -2.52 KCAL/MOL
REMARK 924 INTRA-LIGAND FREE ENERGY PREDICTED BY IDOCK:    0.12 KCAL/MOL
REMARK 927      BINDING AFFINITY PREDICTED BY RF-SCORE:    0.00 PKD
ROOT
HETATM    1  O   UNL     1      -7.842   8.307  66.093  1.00  0.00    -0.094 OA 
HETATM    2  C   UNL     1      -8.751   8.238  67.247  1.00  0.00    -0.123 C  
HETATM    3  H   UNL     1      -7.200   8.983  66.272  1.00  0.00     0.000 HD 
HETATM    4  P   UNL     1      -9.488   9.902  67.431  1.00  0.00    -0.155 P  
HETATM    5  O   UNL     1      -6.778   6.925  67.845  1.00  0.00    -0.059 OA 
HETATM    6  P   UNL     1      -7.838   7.803  68.771  1.00  0.00    -0.126 P  
HETATM    7  O   UNL     1     -10.702   9.243  68.321  1.00  0.00    -0.209 OA 
HETATM    8  O   UNL     1     -10.174   9.683  65.941  1.00  0.00    -0.259 OA 
HETATM    9  O   UNL     1      -7.008   9.208  68.519  1.00  0.00    -0.066 OA 
HETATM   10  O   UNL     1      -7.065   7.435  70.062  1.00  0.00    -0.062 OA 
HETATM   11  O   UNL     1     -10.112  11.312  67.587  1.00  0.00    -0.176 OA 
ENDROOT
BRANCH   2  12
HETATM   12  C   UNL     1      -9.811   7.122  66.952  1.00  0.00    -0.271 C  
BRANCH  12  13
HETATM   13  C   UNL     1      -9.325   5.723  66.634  1.00  0.00    -0.155 A  
HETATM   14  C   UNL     1      -8.838   5.408  65.378  1.00  0.00    -0.143 A  
HETATM   15  N   UNL     1      -8.508   4.154  64.981  1.00  0.00    -0.113 NA 
HETATM   16  C   UNL     1      -8.680   3.168  65.889  1.00  0.00    -0.129 A  
HETATM   17  C   UNL     1      -9.140   3.373  67.168  1.00  0.00    -0.196 A  
HETATM   18  C   UNL     1      -9.471   4.672  67.559  1.00  0.00    -0.182 A  
ENDBRANCH  12  13
ENDBRANCH   2  12
TORSDOF 2
ENDMDL
MODEL      179
REMARK 921   NORMALIZED FREE ENERGY PREDICTED BY IDOCK:   -1.89 KCAL/MOL
REMARK 922        TOTAL FREE ENERGY PREDICTED BY IDOCK:   -2.35 KCAL/MOL
REMARK 923 INTER-LIGAND FREE ENERGY PREDICTED BY IDOCK:   -4.16 KCAL/MOL
REMARK 924 INTRA-LIGAND FREE ENERGY PREDICTED BY IDOCK:    1.81 KCAL/MOL
REMARK 927      BINDING AFFINITY PREDICTED BY RF-SCORE:    0.00 PKD
ROOT
HETATM    1  O   UNL     1     -12.492  13.642  66.967  1.00  0.00    -0.350 OA 
HETATM    2  C   UNL     1     -11.229  13.371  67.667  1.00  0.00    -0.276 C  
HETATM    3  H   UNL     1     -13.113  13.968  67.607  1.00  0.00     0.000 HD 
HETATM    4  P   UNL     1     -11.610  12.160  68.984  1.00  0.00    -0.338 P  
HETATM    5  O   UNL     1     -11.250  15.768  67.186  1.00  0.00    -0.246 OA 
HETATM    6  P   UNL     1     -10.560  14.899  68.420  1.00  0.00    -0.259 P  
HETATM    7  O   UNL     1     -10.015  11.774  69.061  1.00  0.00    -0.096 OA 
HETATM    8  O   UNL     1     -12.027  11.098  67.784  1.00  0.00    -0.630 OA 
HETATM    9  O   UNL     1     -11.953  14.915  69.307  1.00  0.00    -0.306 OA 
HETATM   10  O   UNL     1      -9.995  16.193  69.057  1.00  0.00    -0.218 OA 
HETATM   11  O   UNL     1     -11.933  11.134  70.099  1.00  0.00    -0.303 OA 
ENDROOT
BRANCH   2  12
HETATM   12  C   UNL     1     -10.204  12.834  66.610  1.00  0.00    -0.246 C  
BRANCH  12  13
HETATM   13  C   UNL     1      -8.728  12.858  66.951  1.00  0.00    -0.164 A  
HETATM   14  C   UNL     1      -8.022  11.683  67.134  1.00  0.00    -0.163 A  
HETATM   15  N   UNL     1      -6.737  11.624  67.566  1.00  0.00    -0.086 NA 
HETATM   16  C   UNL     1      -6.136  12.804  67.833  1.00  0.00    -0.116 A  
HETATM   17  C   UNL     1      -6.739  14.029  67.671  1.00  0.00    -0.188 A  
HETATM   18  C   UNL     1      -8.060  14.068  67.221  1.00  0.00    -0.174 A  
ENDBRANCH  12  13
ENDBRANCH   2  12
TORSDOF 2
ENDMDL
MODEL      180
REMARK 921   NORMALIZED FREE ENERGY PREDICTED BY IDOCK:   -1.88 KCAL/MOL
REMARK 922        TOTAL FREE ENERGY PREDICTED BY IDOCK:   -2.33 KCAL/MOL
REMARK 923 INTER-LIGAND FREE ENERGY PREDICTED BY IDOCK:   -4.01 KCAL/MOL
REMARK 924 INTRA-LIGAND FREE ENERGY PREDICTED BY IDOCK:    1.67 KCAL/MOL
REMARK 927      BINDING AFFINITY PREDICTED BY RF-SCORE:    0.00 PKD
ROOT
HETATM    1  O   UNL     1      -9.538  13.563  65.061  1.00  0.00    -0.541 OA 
HETATM    2  C   UNL     1     -10.344  12.525  65.719  1.00  0.00    -0.265 C  
HETATM    3  H   UNL     1      -9.550  13.390  64.127  1.00  0.00     0.000 HD 
HETATM    4  P   UNL     1      -9.591  10.919  65.274  1.00  0.00    -0.263 P  
HETATM    5  O   UNL     1     -11.919  14.208  64.906  1.00  0.00    -0.375 OA 
HETATM    6  P   UNL     1     -12.075  12.572  65.128  1.00  0.00    -0.345 P  
HETATM    7  O   UNL     1     -10.355  10.229  66.554  1.00  0.00    -0.232 OA 
HETATM    8  O   UNL     1      -8.233  11.415  66.080  1.00  0.00    -0.107 OA 
HETATM    9  O   UNL     1     -11.439  12.236  63.641  1.00  0.00    -0.416 OA 
HETATM   10  O   UNL     1     -13.540  12.611  64.627  1.00  0.00    -0.329 OA 
HETATM   11  O   UNL     1      -8.953   9.558  64.896  1.00  0.00    -0.197 OA 
ENDROOT
BRANCH   2  12
HETATM   12  C   UNL     1     -10.324  12.811  67.260  1.00  0.00    -0.235 C  
BRANCH  12  13
HETATM   13  C   UNL     1      -8.998  13.111  67.926  1.00  0.00    -0.200 A  
HETATM   14  C   UNL     1      -8.226  12.096  68.462  1.00  0.00    -0.104 A  
HETATM   15  N   UNL     1      -7.096  12.297  69.185  1.00  0.00    -0.053 NA 
HETATM   16  C   UNL     1      -6.727  13.581  69.384  1.00  0.00    -0.051 A  
HETATM   17  C   UNL     1      -7.411  14.664  68.883  1.00  0.00    -0.128 A  
HETATM   18  C   UNL     1      -8.569  14.435  68.138  1.00  0.00    -0.166 A  
ENDBRANCH  12  13
ENDBRANCH   2  12
TORSDOF 2
ENDMDL
MODEL      181
REMARK 921   NORMALIZED FREE ENERGY PREDICTED BY IDOCK:   -1.59 KCAL/MOL
REMARK 922        TOTAL FREE ENERGY PREDICTED BY IDOCK:   -2.01 KCAL/MOL
REMARK 923 INTER-LIGAND FREE ENERGY PREDICTED BY IDOCK:   -4.15 KCAL/MOL
REMARK 924 INTRA-LIGAND FREE ENERGY PREDICTED BY IDOCK:    2.14 KCAL/MOL
REMARK 927      BINDING AFFINITY PREDICTED BY RF-SCORE:    0.00 PKD
ROOT
HETATM    1  O   UNL     1      -7.908  12.514  66.857  1.00  0.00    -0.355 OA 
HETATM    2  C   UNL     1      -9.040  11.605  67.085  1.00  0.00    -0.171 C  
HETATM    3  H   UNL     1      -8.199  13.194  66.261  1.00  0.00     0.000 HD 
HETATM    4  P   UNL     1      -9.533  10.963  65.444  1.00  0.00    -0.239 P  
HETATM    5  O   UNL     1      -9.366  13.502  68.592  1.00  0.00    -0.151 OA 
HETATM    6  P   UNL     1     -10.449  12.495  67.840  1.00  0.00    -0.230 P  
HETATM    7  O   UNL     1     -10.303   9.716  66.187  1.00  0.00    -0.230 OA 
HETATM    8  O   UNL     1      -8.037  10.263  65.350  1.00  0.00    -0.138 OA 
HETATM    9  O   UNL     1     -10.446  13.403  66.460  1.00  0.00    -0.276 OA 
HETATM   10  O   UNL     1     -11.641  13.249  68.479  1.00  0.00    -0.287 OA 
HETATM   11  O   UNL     1      -9.951  10.420  64.055  1.00  0.00    -0.323 OA 
ENDROOT
BRANCH   2  12
HETATM   12  C   UNL     1      -8.561  10.483  68.069  1.00  0.00    -0.121 C  
BRANCH  12  13
HETATM   13  C   UNL     1      -9.462  10.093  69.221  1.00  0.00    -0.231 A  
HETATM   14  C   UNL     1     -10.806  10.423  69.216  1.00  0.00    -0.241 A  
HETATM   15  N   UNL     1     -11.644  10.224  70.263  1.00  0.00    -0.294 NA 
HETATM   16  C   UNL     1     -11.105   9.672  71.372  1.00  0.00    -0.326 A  
HETATM   17  C   UNL     1      -9.787   9.292  71.479  1.00  0.00    -0.245 A  
HETATM   18  C   UNL     1      -8.942   9.502  70.388  1.00  0.00    -0.291 A  
ENDBRANCH  12  13
ENDBRANCH   2  12
TORSDOF 2
ENDMDL
MODEL      182
REMARK 921   NORMALIZED FREE ENERGY PREDICTED BY IDOCK:    5.13 KCAL/MOL
REMARK 922        TOTAL FREE ENERGY PREDICTED BY IDOCK:    5.49 KCAL/MOL
REMARK 923 INTER-LIGAND FREE ENERGY PREDICTED BY IDOCK:    5.03 KCAL/MOL
REMARK 924 INTRA-LIGAND FREE ENERGY PREDICTED BY IDOCK:    0.47 KCAL/MOL
REMARK 927      BINDING AFFINITY PREDICTED BY RF-SCORE:    0.00 PKD
ROOT
HETATM    1  O   UNL     1     -10.011  18.566  69.457  1.00  0.00    -0.165 OA 
HETATM    2  C   UNL     1     -10.219  18.544  68.002  1.00  0.00    -0.383 C  
HETATM    3  H   UNL     1     -10.743  18.115  69.860  1.00  0.00     0.000 HD 
HETATM    4  P   UNL     1     -11.827  19.360  67.692  1.00  0.00     3.338 P  
HETATM    5  O   UNL     1      -9.232  16.386  68.590  1.00  0.00    -0.213 OA 
HETATM    6  P   UNL     1     -10.276  16.825  67.378  1.00  0.00    -0.294 P  
HETATM    7  O   UNL     1     -11.379  19.601  66.130  1.00  0.00     0.032 OA 
HETATM    8  O   UNL     1     -11.164  20.741  68.319  1.00  0.00     1.067 OA 
HETATM    9  O   UNL     1     -11.597  16.653  68.354  1.00  0.00    -0.170 OA 
HETATM   10  O   UNL     1     -10.325  15.370  66.850  1.00  0.00    -0.266 OA 
HETATM   11  O   UNL     1     -13.188  20.050  67.430  1.00  0.00     3.692 OA 
ENDROOT
BRANCH   2  12
HETATM   12  C   UNL     1      -9.010  19.287  67.337  1.00  0.00    -0.340 C  
BRANCH  12  13
HETATM   13  C   UNL     1      -7.623  18.698  67.486  1.00  0.00    -0.239 A  
HETATM   14  C   UNL     1      -7.164  17.731  66.611  1.00  0.00    -0.221 A  
HETATM   15  N   UNL     1      -5.991  17.065  66.756  1.00  0.00    -0.187 NA 
HETATM   16  C   UNL     1      -5.246  17.384  67.837  1.00  0.00    -0.122 A  
HETATM   17  C   UNL     1      -5.600  18.340  68.760  1.00  0.00    -0.193 A  
HETATM   18  C   UNL     1      -6.809  19.016  68.590  1.00  0.00    -0.311 A  
ENDBRANCH  12  13
ENDBRANCH   2  12
TORSDOF 2
ENDMDL
MODEL      183
REMARK 921   NORMALIZED FREE ENERGY PREDICTED BY IDOCK:    5.80 KCAL/MOL
REMARK 922        TOTAL FREE ENERGY PREDICTED BY IDOCK:    6.24 KCAL/MOL
REMARK 923 INTER-LIGAND FREE ENERGY PREDICTED BY IDOCK:   -0.73 KCAL/MOL
REMARK 924 INTRA-LIGAND FREE ENERGY PREDICTED BY IDOCK:    6.97 KCAL/MOL
REMARK 927      BINDING AFFINITY PREDICTED BY RF-SCORE:    0.00 PKD
ROOT
HETATM    1  O   UNL     1      -6.346  15.404  67.710  1.00  0.00    -0.138 OA 
HETATM    2  C   UNL     1      -6.886  14.220  68.392  1.00  0.00    -0.104 C  
HETATM    3  H   UNL     1      -6.959  15.649  67.028  1.00  0.00     0.000 HD 
HETATM    4  P   UNL     1      -7.094  12.929  67.113  1.00  0.00     0.366 P  
HETATM    5  O   UNL     1      -8.007  16.154  69.380  1.00  0.00    -0.227 OA 
HETATM    6  P   UNL     1      -8.508  14.589  69.154  1.00  0.00     0.188 P  
HETATM    7  O   UNL     1      -7.127  11.790  68.297  1.00  0.00    -0.069 OA 
HETATM    8  O   UNL     1      -5.452  12.973  66.907  1.00  0.00    -0.229 OA 
HETATM    9  O   UNL     1      -9.015  14.897  67.613  1.00  0.00    -0.172 OA 
HETATM   10  O   UNL     1      -9.881  14.902  69.799  1.00  0.00    -0.075 OA 
HETATM   11  O   UNL     1      -7.269  11.836  66.029  1.00  0.00     0.322 OA 
ENDROOT
BRANCH   2  12
HETATM   12  C   UNL     1      -5.874  13.816  69.519  1.00  0.00    -0.101 C  
BRANCH  12  13
HETATM   13  C   UNL     1      -6.041  12.473  70.199  1.00  0.00    -0.099 A  
HETATM   14  C   UNL     1      -5.187  12.078  71.213  1.00  0.00    -0.080 A  
HETATM   15  N   UNL     1      -5.192  10.845  71.777  1.00  0.00    -0.298 NA 
HETATM   16  C   UNL     1      -6.096   9.964  71.295  1.00  0.00     0.036 A  
HETATM   17  C   UNL     1      -7.001  10.257  70.303  1.00  0.00    -0.136 A  
HETATM   18  C   UNL     1      -6.983  11.533  69.738  1.00  0.00     0.082 A  
ENDBRANCH  12  13
ENDBRANCH   2  12
TORSDOF 2
ENDMDL
MODEL      184
REMARK 921   NORMALIZED FREE ENERGY PREDICTED BY IDOCK:   10.87 KCAL/MOL
REMARK 922        TOTAL FREE ENERGY PREDICTED BY IDOCK:   11.90 KCAL/MOL
REMARK 923 INTER-LIGAND FREE ENERGY PREDICTED BY IDOCK:   11.64 KCAL/MOL
REMARK 924 INTRA-LIGAND FREE ENERGY PREDICTED BY IDOCK:    0.26 KCAL/MOL
REMARK 927      BINDING AFFINITY PREDICTED BY RF-SCORE:    0.00 PKD
ROOT
HETATM    1  O   UNL     1     -12.863  17.398  69.493  1.00  0.00     4.496 OA 
HETATM    2  C   UNL     1     -11.518  16.814  69.387  1.00  0.00     0.314 C  
HETATM    3  H   UNL     1     -13.092  17.753  68.643  1.00  0.00     0.000 HD 
HETATM    4  P   UNL     1     -10.405  18.161  68.845  1.00  0.00     0.153 P  
HETATM    5  O   UNL     1     -13.069  15.130  68.530  1.00  0.00     1.312 OA 
HETATM    6  P   UNL     1     -11.489  15.464  68.152  1.00  0.00    -0.254 P  
HETATM    7  O   UNL     1      -9.122  17.293  69.391  1.00  0.00     0.062 OA 
HETATM    8  O   UNL     1     -10.762  18.929  70.266  1.00  0.00     1.298 OA 
HETATM    9  O   UNL     1     -11.919  16.629  67.063  1.00  0.00     1.139 OA 
HETATM   10  O   UNL     1     -11.464  14.322  67.107  1.00  0.00    -0.324 OA 
HETATM   11  O   UNL     1      -9.463  19.302  68.385  1.00  0.00    -0.336 OA 
ENDROOT
BRANCH   2  12
HETATM   12  C   UNL     1     -11.141  16.228  70.791  1.00  0.00    -0.217 C  
BRANCH  12  13
HETATM   13  C   UNL     1     -12.255  15.864  71.750  1.00  0.00    -0.551 A  
HETATM   14  C   UNL     1     -12.413  14.564  72.195  1.00  0.00    -0.291 A  
HETATM   15  N   UNL     1     -13.458  14.137  72.946  1.00  0.00    -0.667 NA 
HETATM   16  C   UNL     1     -14.392  15.060  73.262  1.00  0.00     1.971 A  
HETATM   17  C   UNL     1     -14.325  16.382  72.887  1.00  0.00     0.825 A  
HETATM   18  C   UNL     1     -13.239  16.802  72.116  1.00  0.00     2.710 A  
ENDBRANCH  12  13
ENDBRANCH   2  12
TORSDOF 2
ENDMDL
