MODEL        1
REMARK 921   NORMALIZED FREE ENERGY PREDICTED BY IDOCK:   -7.95 KCAL/MOL
REMARK 922        TOTAL FREE ENERGY PREDICTED BY IDOCK:  -10.55 KCAL/MOL
REMARK 923 INTER-LIGAND FREE ENERGY PREDICTED BY IDOCK:   -9.81 KCAL/MOL
REMARK 924 INTRA-LIGAND FREE ENERGY PREDICTED BY IDOCK:   -0.74 KCAL/MOL
REMARK 927      BINDING AFFINITY PREDICTED BY RF-SCORE:    0.00 PKD
ROOT
HETATM    1  C   UNL     1     -13.632   9.666  71.563  1.00  0.00    -0.376 C  
HETATM    2  C   UNL     1     -12.152   9.444  71.382  1.00  0.00    -0.363 C  
HETATM    3  C   UNL     1     -11.404   9.969  70.392  1.00  0.00    -0.392 C  
HETATM    4  C   UNL     1      -8.553   6.824  73.189  1.00  0.00    -0.132 C  
HETATM    5  C   UNL     1      -9.948   9.660  70.425  1.00  0.00    -0.271 C  
HETATM    6  N   UNL     1      -9.494   8.894  71.481  1.00  0.00    -0.274 N  
HETATM    7  O   UNL     1      -9.206  10.089  69.544  1.00  0.00    -0.200 OA 
HETATM    8  C   UNL     1      -9.884   7.482  73.493  1.00  0.00    -0.372 C  
HETATM    9  N   UNL     1     -11.649   8.631  72.363  1.00  0.00    -0.355 NA 
HETATM   10  C   UNL     1      -8.085   8.526  71.459  1.00  0.00    -0.151 C  
HETATM   11  C   UNL     1      -7.574   7.892  72.742  1.00  0.00    -0.142 C  
HETATM   12  C   UNL     1     -10.386   8.368  72.374  1.00  0.00    -0.329 C  
ENDROOT
BRANCH   3  13
HETATM   13  C   UNL     1     -11.821  10.897  69.276  1.00  0.00    -0.395 C  
BRANCH  13  14
HETATM   14  C   UNL     1     -11.836  12.404  69.656  1.00  0.00    -0.311 C  
BRANCH  14  15
HETATM   15  N   UNL     1     -12.022  13.336  68.531  1.00  0.00    -0.340 NA 
HETATM   16  C   UNL     1      -9.458  14.622  67.618  1.00  0.00    -0.205 C  
HETATM   17  C   UNL     1     -10.141  14.904  68.963  1.00  0.00    -0.237 C  
HETATM   18  C   UNL     1     -11.649  14.719  68.827  1.00  0.00    -0.320 C  
HETATM   19  C   UNL     1      -9.868  13.223  67.133  1.00  0.00    -0.237 C  
HETATM   20  C   UNL     1     -11.366  12.890  67.285  1.00  0.00    -0.310 C  
BRANCH  16  21
HETATM   21  C   UNL     1      -9.717  15.788  66.696  1.00  0.00    -0.249 A  
HETATM   22  N   UNL     1     -10.437  15.675  65.572  1.00  0.00    -0.377 NA 
HETATM   23  O   UNL     1     -10.765  16.972  65.201  1.00  0.00    -0.672 OA 
HETATM   24  C   UNL     1     -10.218  17.853  66.082  1.00  0.00    -0.343 A  
HETATM   25  C   UNL     1      -9.466  17.156  67.011  1.00  0.00    -0.257 A  
HETATM   26  C   UNL     1      -8.793  17.871  68.019  1.00  0.00    -0.268 A  
HETATM   27  C   UNL     1      -8.932  19.264  68.051  1.00  0.00    -0.362 A  
HETATM   28  C   UNL     1      -9.734  19.916  67.115  1.00  0.00    -0.393 A  
HETATM   29  C   UNL     1     -10.398  19.233  66.096  1.00  0.00    -0.578 A  
HETATM   30  F   UNL     1      -9.878  21.245  67.206  1.00  0.00    -0.600 F  
ENDBRANCH  16  21
ENDBRANCH  14  15
ENDBRANCH  13  14
ENDBRANCH   3  13
TORSDOF 4
ENDMDL
MODEL        2
REMARK 921   NORMALIZED FREE ENERGY PREDICTED BY IDOCK:   -7.95 KCAL/MOL
REMARK 922        TOTAL FREE ENERGY PREDICTED BY IDOCK:  -10.54 KCAL/MOL
REMARK 923 INTER-LIGAND FREE ENERGY PREDICTED BY IDOCK:  -10.08 KCAL/MOL
REMARK 924 INTRA-LIGAND FREE ENERGY PREDICTED BY IDOCK:   -0.47 KCAL/MOL
REMARK 927      BINDING AFFINITY PREDICTED BY RF-SCORE:    0.00 PKD
ROOT
HETATM    1  C   UNL     1     -10.323   9.995  67.396  1.00  0.00    -0.292 C  
HETATM    2  C   UNL     1     -10.715   9.568  68.787  1.00  0.00    -0.190 C  
HETATM    3  C   UNL     1     -11.542  10.249  69.604  1.00  0.00    -0.267 C  
HETATM    4  C   UNL     1      -9.650   6.228  72.072  1.00  0.00    -0.161 C  
HETATM    5  C   UNL     1     -11.834   9.625  70.924  1.00  0.00    -0.323 C  
HETATM    6  N   UNL     1     -11.259   8.394  71.176  1.00  0.00    -0.255 N  
HETATM    7  O   UNL     1     -12.565  10.198  71.729  1.00  0.00    -0.395 OA 
HETATM    8  C   UNL     1      -9.711   6.536  70.590  1.00  0.00    -0.194 C  
HETATM    9  N   UNL     1     -10.121   8.382  69.127  1.00  0.00    -0.198 NA 
HETATM   10  C   UNL     1     -11.482   7.831  72.500  1.00  0.00    -0.373 C  
HETATM   11  C   UNL     1     -11.039   6.387  72.659  1.00  0.00    -0.294 C  
HETATM   12  C   UNL     1     -10.380   7.857  70.277  1.00  0.00    -0.212 C  
ENDROOT
BRANCH   3  13
HETATM   13  C   UNL     1     -12.282  11.539  69.345  1.00  0.00    -0.273 C  
BRANCH  13  14
HETATM   14  C   UNL     1     -11.406  12.820  69.431  1.00  0.00    -0.202 C  
BRANCH  14  15
HETATM   15  N   UNL     1     -11.803  13.918  68.532  1.00  0.00    -0.351 NA 
HETATM   16  C   UNL     1      -9.643  14.700  66.587  1.00  0.00    -0.294 C  
HETATM   17  C   UNL     1      -9.578  14.941  68.101  1.00  0.00    -0.210 C  
HETATM   18  C   UNL     1     -10.987  15.124  68.658  1.00  0.00    -0.255 C  
HETATM   19  C   UNL     1     -10.578  13.513  66.309  1.00  0.00    -0.288 C  
HETATM   20  C   UNL     1     -11.892  13.512  67.115  1.00  0.00    -0.387 C  
BRANCH  16  21
HETATM   21  C   UNL     1      -9.954  16.012  65.908  1.00  0.00    -0.352 A  
HETATM   22  N   UNL     1     -10.811  16.109  64.882  1.00  0.00    -0.643 NA 
HETATM   23  O   UNL     1     -11.116  17.460  64.772  1.00  0.00    -0.973 OA 
HETATM   24  C   UNL     1     -10.422  18.164  65.706  1.00  0.00    -0.207 A  
HETATM   25  C   UNL     1      -9.598  17.300  66.405  1.00  0.00    -0.290 A  
HETATM   26  C   UNL     1      -8.773  17.816  67.421  1.00  0.00    -0.235 A  
HETATM   27  C   UNL     1      -8.837  19.188  67.696  1.00  0.00    -0.332 A  
HETATM   28  C   UNL     1      -9.713  20.010  66.990  1.00  0.00    -0.421 A  
HETATM   29  C   UNL     1     -10.530  19.527  65.968  1.00  0.00    -0.611 A  
HETATM   30  F   UNL     1      -9.778  21.309  67.313  1.00  0.00    -0.599 F  
ENDBRANCH  16  21
ENDBRANCH  14  15
ENDBRANCH  13  14
ENDBRANCH   3  13
TORSDOF 4
ENDMDL
MODEL        3
REMARK 921   NORMALIZED FREE ENERGY PREDICTED BY IDOCK:   -7.93 KCAL/MOL
REMARK 922        TOTAL FREE ENERGY PREDICTED BY IDOCK:  -10.53 KCAL/MOL
REMARK 923 INTER-LIGAND FREE ENERGY PREDICTED BY IDOCK:  -10.10 KCAL/MOL
REMARK 924 INTRA-LIGAND FREE ENERGY PREDICTED BY IDOCK:   -0.42 KCAL/MOL
REMARK 927      BINDING AFFINITY PREDICTED BY RF-SCORE:    0.00 PKD
ROOT
HETATM    1  C   UNL     1     -13.273  10.974  71.600  1.00  0.00    -0.461 C  
HETATM    2  C   UNL     1     -12.272  10.043  70.966  1.00  0.00    -0.365 C  
HETATM    3  C   UNL     1     -11.756  10.184  69.728  1.00  0.00    -0.205 C  
HETATM    4  C   UNL     1     -10.100   5.834  71.772  1.00  0.00    -0.233 C  
HETATM    5  C   UNL     1     -10.743   9.175  69.313  1.00  0.00    -0.183 C  
HETATM    6  N   UNL     1     -10.402   8.211  70.241  1.00  0.00    -0.205 N  
HETATM    7  O   UNL     1     -10.244   9.230  68.191  1.00  0.00    -0.186 OA 
HETATM    8  C   UNL     1     -10.723   7.053  72.420  1.00  0.00    -0.262 C  
HETATM    9  N   UNL     1     -11.940   9.020  71.813  1.00  0.00    -0.343 NA 
HETATM   10  C   UNL     1      -9.474   7.180  69.796  1.00  0.00    -0.149 C  
HETATM   11  C   UNL     1      -8.943   6.284  70.901  1.00  0.00    -0.147 C  
HETATM   12  C   UNL     1     -11.065   8.150  71.435  1.00  0.00    -0.247 C  
ENDROOT
BRANCH   3  13
HETATM   13  C   UNL     1     -12.008  11.272  68.713  1.00  0.00    -0.350 C  
BRANCH  13  14
HETATM   14  C   UNL     1     -11.377  12.649  69.066  1.00  0.00    -0.292 C  
BRANCH  14  15
HETATM   15  N   UNL     1     -11.770  13.766  68.189  1.00  0.00    -0.338 NA 
HETATM   16  C   UNL     1      -9.507  14.794  66.491  1.00  0.00    -0.316 C  
HETATM   17  C   UNL     1      -9.592  14.954  68.015  1.00  0.00    -0.207 C  
HETATM   18  C   UNL     1     -11.054  15.014  68.449  1.00  0.00    -0.278 C  
HETATM   19  C   UNL     1     -10.328  13.565  66.070  1.00  0.00    -0.303 C  
HETATM   20  C   UNL     1     -11.706  13.434  66.752  1.00  0.00    -0.385 C  
BRANCH  16  21
HETATM   21  C   UNL     1      -9.848  16.118  65.851  1.00  0.00    -0.353 A  
HETATM   22  N   UNL     1     -10.725  16.229  64.845  1.00  0.00    -0.685 NA 
HETATM   23  O   UNL     1     -11.050  17.578  64.775  1.00  0.00    -0.959 OA 
HETATM   24  C   UNL     1     -10.348  18.267  65.713  1.00  0.00    -0.181 A  
HETATM   25  C   UNL     1      -9.499  17.397  66.374  1.00  0.00    -0.279 A  
HETATM   26  C   UNL     1      -8.661  17.899  67.387  1.00  0.00    -0.239 A  
HETATM   27  C   UNL     1      -8.737  19.262  67.698  1.00  0.00    -0.335 A  
HETATM   28  C   UNL     1      -9.637  20.090  67.029  1.00  0.00    -0.411 A  
HETATM   29  C   UNL     1     -10.467  19.622  66.011  1.00  0.00    -0.622 A  
HETATM   30  F   UNL     1      -9.713  21.379  67.387  1.00  0.00    -0.583 F  
ENDBRANCH  16  21
ENDBRANCH  14  15
ENDBRANCH  13  14
ENDBRANCH   3  13
TORSDOF 4
ENDMDL
MODEL        4
REMARK 921   NORMALIZED FREE ENERGY PREDICTED BY IDOCK:   -7.76 KCAL/MOL
REMARK 922        TOTAL FREE ENERGY PREDICTED BY IDOCK:  -10.31 KCAL/MOL
REMARK 923 INTER-LIGAND FREE ENERGY PREDICTED BY IDOCK:   -9.89 KCAL/MOL
REMARK 924 INTRA-LIGAND FREE ENERGY PREDICTED BY IDOCK:   -0.41 KCAL/MOL
REMARK 927      BINDING AFFINITY PREDICTED BY RF-SCORE:    0.00 PKD
ROOT
HETATM    1  C   UNL     1      -9.600   6.892  66.659  1.00  0.00    -0.218 C  
HETATM    2  C   UNL     1      -9.987   7.721  67.857  1.00  0.00    -0.172 C  
HETATM    3  C   UNL     1      -9.776   9.046  67.986  1.00  0.00    -0.179 C  
HETATM    4  C   UNL     1     -11.724   7.211  72.307  1.00  0.00    -0.296 C  
HETATM    5  C   UNL     1     -10.280   9.680  69.235  1.00  0.00    -0.205 C  
HETATM    6  N   UNL     1     -10.944   8.863  70.129  1.00  0.00    -0.238 N  
HETATM    7  O   UNL     1     -10.107  10.882  69.429  1.00  0.00    -0.189 OA 
HETATM    8  C   UNL     1     -11.696   6.624  70.911  1.00  0.00    -0.431 C  
HETATM    9  N   UNL     1     -10.592   6.953  68.816  1.00  0.00    -0.211 NA 
HETATM   10  C   UNL     1     -11.359   9.474  71.384  1.00  0.00    -0.392 C  
HETATM   11  C   UNL     1     -12.283   8.618  72.232  1.00  0.00    -0.447 C  
HETATM   12  C   UNL     1     -11.018   7.518  69.896  1.00  0.00    -0.211 C  
ENDROOT
BRANCH   3  13
HETATM   13  C   UNL     1      -9.156  10.008  67.002  1.00  0.00    -0.159 C  
BRANCH  13  14
HETATM   14  C   UNL     1     -10.174  10.885  66.220  1.00  0.00    -0.247 C  
BRANCH  14  15
HETATM   15  N   UNL     1      -9.652  12.172  65.728  1.00  0.00    -0.230 NA 
HETATM   16  C   UNL     1     -11.100  14.553  66.863  1.00  0.00    -0.325 C  
HETATM   17  C   UNL     1     -11.715  13.552  65.876  1.00  0.00    -0.380 C  
HETATM   18  C   UNL     1     -10.624  12.970  64.982  1.00  0.00    -0.319 C  
HETATM   19  C   UNL     1      -9.969  13.861  67.639  1.00  0.00    -0.237 C  
HETATM   20  C   UNL     1      -9.025  12.993  66.783  1.00  0.00    -0.175 C  
BRANCH  16  21
HETATM   21  C   UNL     1     -10.764  15.819  66.113  1.00  0.00    -0.290 A  
HETATM   22  N   UNL     1     -11.025  15.977  64.808  1.00  0.00    -0.609 NA 
HETATM   23  O   UNL     1     -10.929  17.341  64.566  1.00  0.00    -0.937 OA 
HETATM   24  C   UNL     1     -10.583  17.986  65.713  1.00  0.00    -0.169 A  
HETATM   25  C   UNL     1     -10.381  17.053  66.714  1.00  0.00    -0.302 A  
HETATM   26  C   UNL     1     -10.001  17.498  67.995  1.00  0.00    -0.310 A  
HETATM   27  C   UNL     1      -9.864  18.875  68.205  1.00  0.00    -0.427 A  
HETATM   28  C   UNL     1     -10.117  19.777  67.173  1.00  0.00    -0.424 A  
HETATM   29  C   UNL     1     -10.478  19.363  65.892  1.00  0.00    -0.561 A  
HETATM   30  F   UNL     1     -10.018  21.089  67.427  1.00  0.00    -0.603 F  
ENDBRANCH  16  21
ENDBRANCH  14  15
ENDBRANCH  13  14
ENDBRANCH   3  13
TORSDOF 4
ENDMDL
MODEL        5
REMARK 921   NORMALIZED FREE ENERGY PREDICTED BY IDOCK:   -7.64 KCAL/MOL
REMARK 922        TOTAL FREE ENERGY PREDICTED BY IDOCK:  -10.17 KCAL/MOL
REMARK 923 INTER-LIGAND FREE ENERGY PREDICTED BY IDOCK:   -9.51 KCAL/MOL
REMARK 924 INTRA-LIGAND FREE ENERGY PREDICTED BY IDOCK:   -0.65 KCAL/MOL
REMARK 927      BINDING AFFINITY PREDICTED BY RF-SCORE:    0.00 PKD
ROOT
HETATM    1  C   UNL     1     -10.593  19.755  65.753  1.00  0.00    -0.522 C  
HETATM    2  C   UNL     1      -9.547  19.295  66.735  1.00  0.00    -0.334 C  
HETATM    3  C   UNL     1      -9.558  18.116  67.387  1.00  0.00    -0.275 C  
HETATM    4  C   UNL     1      -5.659  20.929  69.036  1.00  0.00    -0.400 C  
HETATM    5  C   UNL     1      -8.400  17.840  68.281  1.00  0.00    -0.276 C  
HETATM    6  N   UNL     1      -7.408  18.800  68.335  1.00  0.00    -0.280 N  
HETATM    7  O   UNL     1      -8.352  16.793  68.922  1.00  0.00    -0.247 OA 
HETATM    8  C   UNL     1      -6.503  21.052  67.784  1.00  0.00    -0.407 C  
HETATM    9  N   UNL     1      -8.564  20.236  66.888  1.00  0.00    -0.313 NA 
HETATM   10  C   UNL     1      -6.321  18.560  69.274  1.00  0.00    -0.259 C  
HETATM   11  C   UNL     1      -5.142  19.508  69.137  1.00  0.00    -0.194 C  
HETATM   12  C   UNL     1      -7.569  19.984  67.671  1.00  0.00    -0.292 C  
ENDROOT
BRANCH   3  13
HETATM   13  C   UNL     1     -10.554  16.986  67.289  1.00  0.00    -0.267 C  
BRANCH  13  14
HETATM   14  C   UNL     1     -10.438  16.128  65.998  1.00  0.00    -0.338 C  
BRANCH  14  15
HETATM   15  N   UNL     1      -9.885  14.776  66.186  1.00  0.00    -0.295 NA 
HETATM   16  C   UNL     1     -11.990  12.700  66.749  1.00  0.00    -0.362 C  
HETATM   17  C   UNL     1     -11.600  13.825  67.716  1.00  0.00    -0.381 C  
HETATM   18  C   UNL     1     -10.136  14.203  67.508  1.00  0.00    -0.236 C  
HETATM   19  C   UNL     1     -11.662  13.137  65.313  1.00  0.00    -0.375 C  
HETATM   20  C   UNL     1     -10.293  13.823  65.135  1.00  0.00    -0.372 C  
BRANCH  16  21
HETATM   21  C   UNL     1     -11.382  11.410  67.246  1.00  0.00    -0.275 A  
HETATM   22  N   UNL     1     -10.471  10.724  66.544  1.00  0.00    -0.247 NA 
HETATM   23  O   UNL     1      -9.890   9.839  67.443  1.00  0.00    -0.160 OA 
HETATM   24  C   UNL     1     -10.474   9.976  68.663  1.00  0.00    -0.204 A  
HETATM   25  C   UNL     1     -11.494  10.908  68.575  1.00  0.00    -0.380 A  
HETATM   26  C   UNL     1     -12.249  11.204  69.725  1.00  0.00    -0.369 A  
HETATM   27  C   UNL     1     -11.921  10.553  70.921  1.00  0.00    -0.481 A  
HETATM   28  C   UNL     1     -10.859   9.651  70.967  1.00  0.00    -0.342 A  
HETATM   29  C   UNL     1     -10.105   9.329  69.839  1.00  0.00    -0.230 A  
HETATM   30  F   UNL     1     -10.547   9.084  72.140  1.00  0.00    -0.398 F  
ENDBRANCH  16  21
ENDBRANCH  14  15
ENDBRANCH  13  14
ENDBRANCH   3  13
TORSDOF 4
ENDMDL
MODEL        6
REMARK 921   NORMALIZED FREE ENERGY PREDICTED BY IDOCK:   -7.47 KCAL/MOL
REMARK 922        TOTAL FREE ENERGY PREDICTED BY IDOCK:   -9.95 KCAL/MOL
REMARK 923 INTER-LIGAND FREE ENERGY PREDICTED BY IDOCK:   -9.30 KCAL/MOL
REMARK 924 INTRA-LIGAND FREE ENERGY PREDICTED BY IDOCK:   -0.65 KCAL/MOL
REMARK 927      BINDING AFFINITY PREDICTED BY RF-SCORE:    0.00 PKD
ROOT
HETATM    1  C   UNL     1     -11.360   9.473  71.318  1.00  0.00    -0.446 C  
HETATM    2  C   UNL     1     -10.762   9.226  69.957  1.00  0.00    -0.232 C  
HETATM    3  C   UNL     1     -11.041   9.936  68.846  1.00  0.00    -0.181 C  
HETATM    4  C   UNL     1      -7.968   6.064  67.659  1.00  0.00    -0.102 C  
HETATM    5  C   UNL     1     -10.302   9.553  67.611  1.00  0.00    -0.244 C  
HETATM    6  N   UNL     1      -9.380   8.532  67.724  1.00  0.00    -0.137 N  
HETATM    7  O   UNL     1     -10.519  10.145  66.556  1.00  0.00    -0.222 OA 
HETATM    8  C   UNL     1      -8.285   6.696  68.999  1.00  0.00    -0.117 C  
HETATM    9  N   UNL     1      -9.885   8.174  69.984  1.00  0.00    -0.181 NA 
HETATM   10  C   UNL     1      -8.724   8.109  66.494  1.00  0.00    -0.143 C  
HETATM   11  C   UNL     1      -7.557   7.156  66.692  1.00  0.00    -0.093 C  
HETATM   12  C   UNL     1      -9.258   7.852  68.904  1.00  0.00    -0.144 C  
ENDROOT
BRANCH   3  13
HETATM   13  C   UNL     1     -11.954  11.127  68.685  1.00  0.00    -0.289 C  
BRANCH  13  14
HETATM   14  C   UNL     1     -11.303  12.497  69.025  1.00  0.00    -0.290 C  
BRANCH  14  15
HETATM   15  N   UNL     1     -11.729  13.625  68.180  1.00  0.00    -0.338 NA 
HETATM   16  C   UNL     1      -9.497  14.778  66.523  1.00  0.00    -0.316 C  
HETATM   17  C   UNL     1      -9.593  14.891  68.050  1.00  0.00    -0.207 C  
HETATM   18  C   UNL     1     -11.057  14.889  68.479  1.00  0.00    -0.266 C  
HETATM   19  C   UNL     1     -10.275  13.536  66.062  1.00  0.00    -0.308 C  
HETATM   20  C   UNL     1     -11.649  13.339  66.733  1.00  0.00    -0.365 C  
BRANCH  16  21
HETATM   21  C   UNL     1      -9.880  16.109  65.921  1.00  0.00    -0.353 A  
HETATM   22  N   UNL     1     -10.780  16.223  64.934  1.00  0.00    -0.685 NA 
HETATM   23  O   UNL     1     -11.136  17.565  64.903  1.00  0.00    -0.860 OA 
HETATM   24  C   UNL     1     -10.430  18.249  65.843  1.00  0.00    -0.307 A  
HETATM   25  C   UNL     1      -9.549  17.383  66.467  1.00  0.00    -0.292 A  
HETATM   26  C   UNL     1      -8.703  17.880  67.475  1.00  0.00    -0.243 A  
HETATM   27  C   UNL     1      -8.803  19.234  67.819  1.00  0.00    -0.348 A  
HETATM   28  C   UNL     1      -9.735  20.057  67.188  1.00  0.00    -0.411 A  
HETATM   29  C   UNL     1     -10.574  19.593  66.175  1.00  0.00    -0.584 A  
HETATM   30  F   UNL     1      -9.832  21.335  67.577  1.00  0.00    -0.599 F  
ENDBRANCH  16  21
ENDBRANCH  14  15
ENDBRANCH  13  14
ENDBRANCH   3  13
TORSDOF 4
ENDMDL
MODEL        7
REMARK 921   NORMALIZED FREE ENERGY PREDICTED BY IDOCK:   -7.46 KCAL/MOL
REMARK 922        TOTAL FREE ENERGY PREDICTED BY IDOCK:   -9.94 KCAL/MOL
REMARK 923 INTER-LIGAND FREE ENERGY PREDICTED BY IDOCK:   -9.61 KCAL/MOL
REMARK 924 INTRA-LIGAND FREE ENERGY PREDICTED BY IDOCK:   -0.34 KCAL/MOL
REMARK 927      BINDING AFFINITY PREDICTED BY RF-SCORE:    0.00 PKD
ROOT
HETATM    1  C   UNL     1     -13.489  12.549  71.654  1.00  0.00    -0.155 C  
HETATM    2  C   UNL     1     -12.633  11.435  71.110  1.00  0.00    -0.386 C  
HETATM    3  C   UNL     1     -11.735  11.561  70.114  1.00  0.00    -0.395 C  
HETATM    4  C   UNL     1     -12.069   6.678  71.491  1.00  0.00    -0.406 C  
HETATM    5  C   UNL     1     -10.960  10.339  69.761  1.00  0.00    -0.289 C  
HETATM    6  N   UNL     1     -11.207   9.203  70.506  1.00  0.00    -0.258 N  
HETATM    7  O   UNL     1     -10.136  10.375  68.849  1.00  0.00    -0.181 OA 
HETATM    8  C   UNL     1     -12.506   7.938  72.211  1.00  0.00    -0.265 C  
HETATM    9  N   UNL     1     -12.881  10.256  71.763  1.00  0.00    -0.443 NA 
HETATM   10  C   UNL     1     -10.505   7.993  70.098  1.00  0.00    -0.225 C  
HETATM   11  C   UNL     1     -10.619   6.835  71.075  1.00  0.00    -0.252 C  
HETATM   12  C   UNL     1     -12.204   9.206  71.442  1.00  0.00    -0.335 C  
ENDROOT
BRANCH   3  13
HETATM   13  C   UNL     1     -11.345  12.795  69.338  1.00  0.00    -0.267 C  
BRANCH  13  14
HETATM   14  C   UNL     1     -11.940  12.877  67.904  1.00  0.00    -0.282 C  
BRANCH  14  15
HETATM   15  N   UNL     1     -12.104  14.239  67.366  1.00  0.00    -0.386 NA 
HETATM   16  C   UNL     1      -9.606  15.319  66.082  1.00  0.00    -0.353 C  
HETATM   17  C   UNL     1      -9.771  15.068  67.587  1.00  0.00    -0.215 C  
HETATM   18  C   UNL     1     -11.234  15.238  67.983  1.00  0.00    -0.326 C  
HETATM   19  C   UNL     1     -10.566  14.398  65.313  1.00  0.00    -0.398 C  
HETATM   20  C   UNL     1     -11.991  14.306  65.895  1.00  0.00    -0.391 C  
BRANCH  16  21
HETATM   21  C   UNL     1      -9.706  16.804  65.831  1.00  0.00    -0.217 A  
HETATM   22  N   UNL     1     -10.785  17.372  65.277  1.00  0.00    -0.614 NA 
HETATM   23  O   UNL     1     -10.674  18.731  65.541  1.00  0.00    -0.569 OA 
HETATM   24  C   UNL     1      -9.521  18.973  66.220  1.00  0.00    -0.314 A  
HETATM   25  C   UNL     1      -8.820  17.788  66.360  1.00  0.00    -0.256 A  
HETATM   26  C   UNL     1      -7.581  17.802  67.026  1.00  0.00    -0.228 A  
HETATM   27  C   UNL     1      -7.118  19.020  67.541  1.00  0.00    -0.226 A  
HETATM   28  C   UNL     1      -7.881  20.179  67.409  1.00  0.00    -0.313 A  
HETATM   29  C   UNL     1      -9.104  20.195  66.739  1.00  0.00    -0.453 A  
HETATM   30  F   UNL     1      -7.425  21.315  67.955  1.00  0.00    -0.208 F  
ENDBRANCH  16  21
ENDBRANCH  14  15
ENDBRANCH  13  14
ENDBRANCH   3  13
TORSDOF 4
ENDMDL
MODEL        8
REMARK 921   NORMALIZED FREE ENERGY PREDICTED BY IDOCK:   -7.32 KCAL/MOL
REMARK 922        TOTAL FREE ENERGY PREDICTED BY IDOCK:   -9.77 KCAL/MOL
REMARK 923 INTER-LIGAND FREE ENERGY PREDICTED BY IDOCK:   -9.29 KCAL/MOL
REMARK 924 INTRA-LIGAND FREE ENERGY PREDICTED BY IDOCK:   -0.48 KCAL/MOL
REMARK 927      BINDING AFFINITY PREDICTED BY RF-SCORE:    0.00 PKD
ROOT
HETATM    1  C   UNL     1     -11.893  14.518  70.247  1.00  0.00    -0.373 C  
HETATM    2  C   UNL     1     -11.413  15.321  69.065  1.00  0.00    -0.324 C  
HETATM    3  C   UNL     1     -11.439  14.907  67.783  1.00  0.00    -0.353 C  
HETATM    4  C   UNL     1      -9.122  19.423  68.061  1.00  0.00    -0.382 C  
HETATM    5  C   UNL     1     -10.958  15.878  66.762  1.00  0.00    -0.151 C  
HETATM    6  N   UNL     1     -10.561  17.120  67.217  1.00  0.00    -0.306 N  
HETATM    7  O   UNL     1     -10.936  15.563  65.574  1.00  0.00    -0.338 OA 
HETATM    8  C   UNL     1     -10.027  18.717  69.050  1.00  0.00    -0.335 C  
HETATM    9  N   UNL     1     -10.939  16.544  69.457  1.00  0.00    -0.315 NA 
HETATM   10  C   UNL     1     -10.013  18.032  66.222  1.00  0.00    -0.337 C  
HETATM   11  C   UNL     1      -9.810  19.456  66.711  1.00  0.00    -0.453 C  
HETATM   12  C   UNL     1     -10.520  17.372  68.560  1.00  0.00    -0.370 C  
ENDROOT
BRANCH   3  13
HETATM   13  C   UNL     1     -11.960  13.609  67.215  1.00  0.00    -0.420 C  
BRANCH  13  14
HETATM   14  C   UNL     1     -10.962  12.419  67.293  1.00  0.00    -0.260 C  
BRANCH  14  15
HETATM   15  N   UNL     1     -11.557  11.119  67.649  1.00  0.00    -0.564 NA 
HETATM   16  C   UNL     1     -10.126   9.739  69.909  1.00  0.00    -0.288 C  
HETATM   17  C   UNL     1      -9.538   9.949  68.508  1.00  0.00    -0.159 C  
HETATM   18  C   UNL     1     -10.659   9.979  67.473  1.00  0.00    -0.280 C  
HETATM   19  C   UNL     1     -11.185  10.820  70.175  1.00  0.00    -0.345 C  
HETATM   20  C   UNL     1     -12.148  11.096  69.002  1.00  0.00    -0.246 C  
BRANCH  16  21
HETATM   21  C   UNL     1     -10.550   8.296  70.037  1.00  0.00    -0.235 A  
HETATM   22  N   UNL     1     -10.541   7.445  69.002  1.00  0.00    -0.211 NA 
HETATM   23  O   UNL     1     -10.627   6.175  69.557  1.00  0.00    -0.225 OA 
HETATM   24  C   UNL     1     -10.718   6.271  70.911  1.00  0.00    -0.259 A  
HETATM   25  C   UNL     1     -10.759   7.607  71.268  1.00  0.00    -0.248 A  
HETATM   26  C   UNL     1     -10.866   7.947  72.630  1.00  0.00    -0.428 A  
HETATM   27  C   UNL     1     -10.904   6.911  73.571  1.00  0.00    -0.265 A  
HETATM   28  C   UNL     1     -10.820   5.581  73.163  1.00  0.00    -0.285 A  
HETATM   29  C   UNL     1     -10.730   5.217  71.820  1.00  0.00    -0.240 A  
HETATM   30  F   UNL     1     -10.814   4.621  74.098  1.00  0.00    -0.296 F  
ENDBRANCH  16  21
ENDBRANCH  14  15
ENDBRANCH  13  14
ENDBRANCH   3  13
TORSDOF 4
ENDMDL
MODEL        9
REMARK 921   NORMALIZED FREE ENERGY PREDICTED BY IDOCK:   -7.29 KCAL/MOL
REMARK 922        TOTAL FREE ENERGY PREDICTED BY IDOCK:   -9.73 KCAL/MOL
REMARK 923 INTER-LIGAND FREE ENERGY PREDICTED BY IDOCK:   -9.16 KCAL/MOL
REMARK 924 INTRA-LIGAND FREE ENERGY PREDICTED BY IDOCK:   -0.57 KCAL/MOL
REMARK 927      BINDING AFFINITY PREDICTED BY RF-SCORE:    0.00 PKD
ROOT
HETATM    1  C   UNL     1     -11.899  14.984  69.690  1.00  0.00    -0.358 C  
HETATM    2  C   UNL     1     -11.198  15.806  68.640  1.00  0.00    -0.351 C  
HETATM    3  C   UNL     1     -11.118  15.492  67.332  1.00  0.00    -0.285 C  
HETATM    4  C   UNL     1      -8.368  19.669  68.242  1.00  0.00    -0.354 C  
HETATM    5  C   UNL     1     -10.416  16.469  66.455  1.00  0.00    -0.270 C  
HETATM    6  N   UNL     1      -9.942  17.620  67.054  1.00  0.00    -0.307 N  
HETATM    7  O   UNL     1     -10.289  16.240  65.255  1.00  0.00    -0.552 OA 
HETATM    8  C   UNL     1      -9.455  19.006  69.063  1.00  0.00    -0.327 C  
HETATM    9  N   UNL     1     -10.642  16.934  69.183  1.00  0.00    -0.338 NA 
HETATM   10  C   UNL     1      -9.183  18.529  66.206  1.00  0.00    -0.224 C  
HETATM   11  C   UNL     1      -8.884  19.880  66.833  1.00  0.00    -0.419 C  
HETATM   12  C   UNL     1     -10.032  17.768  68.411  1.00  0.00    -0.362 C  
ENDROOT
BRANCH   3  13
HETATM   13  C   UNL     1     -11.707  14.308  66.603  1.00  0.00    -0.417 C  
BRANCH  13  14
HETATM   14  C   UNL     1     -10.782  13.061  66.534  1.00  0.00    -0.278 C  
BRANCH  14  15
HETATM   15  N   UNL     1     -11.425  11.779  66.870  1.00  0.00    -0.477 NA 
HETATM   16  C   UNL     1      -9.977  10.252  69.022  1.00  0.00    -0.223 C  
HETATM   17  C   UNL     1      -9.434  10.484  67.606  1.00  0.00    -0.164 C  
HETATM   18  C   UNL     1     -10.592  10.604  66.620  1.00  0.00    -0.214 C  
HETATM   19  C   UNL     1     -10.971  11.372  69.367  1.00  0.00    -0.260 C  
HETATM   20  C   UNL     1     -11.964  11.735  68.245  1.00  0.00    -0.165 C  
BRANCH  16  21
HETATM   21  C   UNL     1     -10.466   8.827  69.119  1.00  0.00    -0.217 A  
HETATM   22  N   UNL     1     -10.258   7.924  68.151  1.00  0.00    -0.199 NA 
HETATM   23  O   UNL     1     -10.505   6.687  68.730  1.00  0.00    -0.183 OA 
HETATM   24  C   UNL     1     -10.888   6.855  70.024  1.00  0.00    -0.262 A  
HETATM   25  C   UNL     1     -10.963   8.208  70.303  1.00  0.00    -0.240 A  
HETATM   26  C   UNL     1     -11.355   8.620  71.590  1.00  0.00    -0.377 A  
HETATM   27  C   UNL     1     -11.634   7.635  72.546  1.00  0.00    -0.382 A  
HETATM   28  C   UNL     1     -11.505   6.284  72.227  1.00  0.00    -0.306 A  
HETATM   29  C   UNL     1     -11.134   5.849  70.955  1.00  0.00    -0.312 A  
HETATM   30  F   UNL     1     -11.737   5.373  73.182  1.00  0.00    -0.332 F  
ENDBRANCH  16  21
ENDBRANCH  14  15
ENDBRANCH  13  14
ENDBRANCH   3  13
TORSDOF 4
ENDMDL
MODEL       10
REMARK 921   NORMALIZED FREE ENERGY PREDICTED BY IDOCK:   -7.23 KCAL/MOL
REMARK 922        TOTAL FREE ENERGY PREDICTED BY IDOCK:   -9.66 KCAL/MOL
REMARK 923 INTER-LIGAND FREE ENERGY PREDICTED BY IDOCK:   -9.08 KCAL/MOL
REMARK 924 INTRA-LIGAND FREE ENERGY PREDICTED BY IDOCK:   -0.58 KCAL/MOL
REMARK 927      BINDING AFFINITY PREDICTED BY RF-SCORE:    0.00 PKD
ROOT
HETATM    1  C   UNL     1      -7.887  10.276  69.770  1.00  0.00    -0.151 C  
HETATM    2  C   UNL     1      -8.875   9.207  70.160  1.00  0.00    -0.197 C  
HETATM    3  C   UNL     1      -9.796   8.664  69.340  1.00  0.00    -0.184 C  
HETATM    4  C   UNL     1     -10.418   6.832  74.041  1.00  0.00    -0.302 C  
HETATM    5  C   UNL     1     -10.645   7.585  69.917  1.00  0.00    -0.237 C  
HETATM    6  N   UNL     1     -10.389   7.218  71.224  1.00  0.00    -0.194 N  
HETATM    7  O   UNL     1     -11.519   7.056  69.234  1.00  0.00    -0.065 OA 
HETATM    8  C   UNL     1      -9.238   7.539  73.407  1.00  0.00    -0.280 C  
HETATM    9  N   UNL     1      -8.720   8.845  71.472  1.00  0.00    -0.309 NA 
HETATM   10  C   UNL     1     -11.279   6.222  71.806  1.00  0.00    -0.284 C  
HETATM   11  C   UNL     1     -10.828   5.676  73.150  1.00  0.00    -0.321 C  
HETATM   12  C   UNL     1      -9.468   7.912  71.958  1.00  0.00    -0.174 C  
ENDROOT
BRANCH   3  13
HETATM   13  C   UNL     1     -10.051   8.945  67.879  1.00  0.00    -0.255 C  
BRANCH  13  14
HETATM   14  C   UNL     1     -10.934  10.194  67.602  1.00  0.00    -0.268 C  
BRANCH  14  15
HETATM   15  N   UNL     1     -10.197  11.438  67.321  1.00  0.00    -0.195 NA 
HETATM   16  C   UNL     1     -11.998  13.783  66.757  1.00  0.00    -0.465 C  
HETATM   17  C   UNL     1     -11.831  12.573  65.829  1.00  0.00    -0.494 C  
HETATM   18  C   UNL     1     -10.431  11.987  65.986  1.00  0.00    -0.249 C  
HETATM   19  C   UNL     1     -11.662  13.361  68.195  1.00  0.00    -0.397 C  
HETATM   20  C   UNL     1     -10.402  12.484  68.343  1.00  0.00    -0.230 C  
BRANCH  16  21
HETATM   21  C   UNL     1     -11.232  14.944  66.170  1.00  0.00    -0.325 A  
HETATM   22  N   UNL     1     -11.093  15.124  64.849  1.00  0.00    -0.410 NA 
HETATM   23  O   UNL     1     -10.674  16.438  64.690  1.00  0.00    -0.693 OA 
HETATM   24  C   UNL     1     -10.535  17.026  65.909  1.00  0.00    -0.274 A  
HETATM   25  C   UNL     1     -10.796  16.091  66.895  1.00  0.00    -0.203 A  
HETATM   26  C   UNL     1     -10.700  16.478  68.245  1.00  0.00    -0.345 A  
HETATM   27  C   UNL     1     -10.362  17.806  68.532  1.00  0.00    -0.366 A  
HETATM   28  C   UNL     1     -10.146  18.720  67.502  1.00  0.00    -0.360 A  
HETATM   29  C   UNL     1     -10.219  18.359  66.157  1.00  0.00    -0.408 A  
HETATM   30  F   UNL     1      -9.869  19.992  67.818  1.00  0.00    -0.442 F  
ENDBRANCH  16  21
ENDBRANCH  14  15
ENDBRANCH  13  14
ENDBRANCH   3  13
TORSDOF 4
ENDMDL
MODEL       11
REMARK 921   NORMALIZED FREE ENERGY PREDICTED BY IDOCK:   -7.22 KCAL/MOL
REMARK 922        TOTAL FREE ENERGY PREDICTED BY IDOCK:   -9.64 KCAL/MOL
REMARK 923 INTER-LIGAND FREE ENERGY PREDICTED BY IDOCK:   -9.44 KCAL/MOL
REMARK 924 INTRA-LIGAND FREE ENERGY PREDICTED BY IDOCK:   -0.21 KCAL/MOL
REMARK 927      BINDING AFFINITY PREDICTED BY RF-SCORE:    0.00 PKD
ROOT
HETATM    1  C   UNL     1     -10.922  14.212  64.468  1.00  0.00    -0.340 C  
HETATM    2  C   UNL     1     -10.849  15.059  65.713  1.00  0.00    -0.350 C  
HETATM    3  C   UNL     1     -11.321  14.702  66.924  1.00  0.00    -0.361 C  
HETATM    4  C   UNL     1      -9.612  19.486  67.110  1.00  0.00    -0.430 C  
HETATM    5  C   UNL     1     -11.104  15.672  68.033  1.00  0.00    -0.335 C  
HETATM    6  N   UNL     1     -10.414  16.828  67.727  1.00  0.00    -0.325 N  
HETATM    7  O   UNL     1     -11.523  15.421  69.161  1.00  0.00    -0.289 OA 
HETATM    8  C   UNL     1      -9.356  18.386  66.100  1.00  0.00    -0.147 C  
HETATM    9  N   UNL     1     -10.235  16.256  65.461  1.00  0.00    -0.529 NA 
HETATM   10  C   UNL     1     -10.280  17.807  68.797  1.00  0.00    -0.373 C  
HETATM   11  C   UNL     1      -9.323  18.948  68.498  1.00  0.00    -0.412 C  
HETATM   12  C   UNL     1     -10.059  17.088  66.432  1.00  0.00    -0.317 C  
ENDROOT
BRANCH   3  13
HETATM   13  C   UNL     1     -11.984  13.412  67.342  1.00  0.00    -0.391 C  
BRANCH  13  14
HETATM   14  C   UNL     1     -11.003  12.244  67.641  1.00  0.00    -0.244 C  
BRANCH  14  15
HETATM   15  N   UNL     1     -11.638  10.965  68.006  1.00  0.00    -0.525 NA 
HETATM   16  C   UNL     1     -10.277   9.579  70.305  1.00  0.00    -0.312 C  
HETATM   17  C   UNL     1      -9.663   9.754  68.910  1.00  0.00    -0.172 C  
HETATM   18  C   UNL     1     -10.769   9.799  67.860  1.00  0.00    -0.258 C  
HETATM   19  C   UNL     1     -11.310  10.692  70.541  1.00  0.00    -0.355 C  
HETATM   20  C   UNL     1     -12.248  10.977  69.351  1.00  0.00    -0.259 C  
BRANCH  16  21
HETATM   21  C   UNL     1     -10.742   8.150  70.448  1.00  0.00    -0.232 A  
HETATM   22  N   UNL     1     -10.958   7.352  69.394  1.00  0.00    -0.164 NA 
HETATM   23  O   UNL     1     -11.006   6.061  69.901  1.00  0.00    -0.328 OA 
HETATM   24  C   UNL     1     -10.850   6.093  71.252  1.00  0.00    -0.266 A  
HETATM   25  C   UNL     1     -10.762   7.410  71.666  1.00  0.00    -0.239 A  
HETATM   26  C   UNL     1     -10.607   7.686  73.038  1.00  0.00    -0.433 A  
HETATM   27  C   UNL     1     -10.528   6.607  73.927  1.00  0.00    -0.351 A  
HETATM   28  C   UNL     1     -10.583   5.296  73.455  1.00  0.00    -0.257 A  
HETATM   29  C   UNL     1     -10.752   4.996  72.103  1.00  0.00    -0.227 A  
HETATM   30  F   UNL     1     -10.458   4.291  74.332  1.00  0.00    -0.214 F  
ENDBRANCH  16  21
ENDBRANCH  14  15
ENDBRANCH  13  14
ENDBRANCH   3  13
TORSDOF 4
ENDMDL
MODEL       12
REMARK 921   NORMALIZED FREE ENERGY PREDICTED BY IDOCK:   -7.11 KCAL/MOL
REMARK 922        TOTAL FREE ENERGY PREDICTED BY IDOCK:   -9.51 KCAL/MOL
REMARK 923 INTER-LIGAND FREE ENERGY PREDICTED BY IDOCK:   -9.20 KCAL/MOL
REMARK 924 INTRA-LIGAND FREE ENERGY PREDICTED BY IDOCK:   -0.31 KCAL/MOL
REMARK 927      BINDING AFFINITY PREDICTED BY RF-SCORE:    0.00 PKD
ROOT
HETATM    1  C   UNL     1     -13.977   8.916  71.593  1.00  0.00    -0.417 C  
HETATM    2  C   UNL     1     -12.520   8.531  71.565  1.00  0.00    -0.317 C  
HETATM    3  C   UNL     1     -11.519   9.310  71.110  1.00  0.00    -0.403 C  
HETATM    4  C   UNL     1      -9.679   4.738  72.358  1.00  0.00    -0.202 C  
HETATM    5  C   UNL     1     -10.143   8.752  71.217  1.00  0.00    -0.266 C  
HETATM    6  N   UNL     1     -10.015   7.506  71.800  1.00  0.00    -0.171 N  
HETATM    7  O   UNL     1      -9.182   9.398  70.805  1.00  0.00    -0.247 OA 
HETATM    8  C   UNL     1     -10.984   5.412  72.733  1.00  0.00    -0.328 C  
HETATM    9  N   UNL     1     -12.332   7.271  72.069  1.00  0.00    -0.289 NA 
HETATM   10  C   UNL     1      -8.676   6.933  71.824  1.00  0.00    -0.120 C  
HETATM   11  C   UNL     1      -8.536   5.682  72.674  1.00  0.00    -0.120 C  
HETATM   12  C   UNL     1     -11.133   6.800  72.149  1.00  0.00    -0.250 C  
ENDROOT
BRANCH   3  13
HETATM   13  C   UNL     1     -11.583  10.715  70.564  1.00  0.00    -0.444 C  
BRANCH  13  14
HETATM   14  C   UNL     1     -11.288  10.836  69.042  1.00  0.00    -0.284 C  
BRANCH  14  15
HETATM   15  N   UNL     1     -10.513  12.023  68.642  1.00  0.00    -0.227 NA 
HETATM   16  C   UNL     1     -12.152  14.064  67.157  1.00  0.00    -0.436 C  
HETATM   17  C   UNL     1     -11.773  12.685  66.603  1.00  0.00    -0.464 C  
HETATM   18  C   UNL     1     -10.442  12.235  67.197  1.00  0.00    -0.219 C  
HETATM   19  C   UNL     1     -12.148  14.006  68.692  1.00  0.00    -0.332 C  
HETATM   20  C   UNL     1     -10.950  13.263  69.316  1.00  0.00    -0.089 C  
BRANCH  16  21
HETATM   21  C   UNL     1     -11.280  15.102  66.492  1.00  0.00    -0.283 A  
HETATM   22  N   UNL     1     -11.004  15.082  65.181  1.00  0.00    -0.380 NA 
HETATM   23  O   UNL     1     -10.511  16.344  64.880  1.00  0.00    -0.643 OA 
HETATM   24  C   UNL     1     -10.464  17.100  66.010  1.00  0.00    -0.266 A  
HETATM   25  C   UNL     1     -10.865  16.329  67.087  1.00  0.00    -0.190 A  
HETATM   26  C   UNL     1     -10.884  16.907  68.370  1.00  0.00    -0.347 A  
HETATM   27  C   UNL     1     -10.514  18.251  68.499  1.00  0.00    -0.241 A  
HETATM   28  C   UNL     1     -10.156  18.996  67.376  1.00  0.00    -0.370 A  
HETATM   29  C   UNL     1     -10.113  18.444  66.097  1.00  0.00    -0.376 A  
HETATM   30  F   UNL     1      -9.853  20.292  67.535  1.00  0.00    -0.478 F  
ENDBRANCH  16  21
ENDBRANCH  14  15
ENDBRANCH  13  14
ENDBRANCH   3  13
TORSDOF 4
ENDMDL
MODEL       13
REMARK 921   NORMALIZED FREE ENERGY PREDICTED BY IDOCK:   -7.06 KCAL/MOL
REMARK 922        TOTAL FREE ENERGY PREDICTED BY IDOCK:   -9.45 KCAL/MOL
REMARK 923 INTER-LIGAND FREE ENERGY PREDICTED BY IDOCK:   -8.67 KCAL/MOL
REMARK 924 INTRA-LIGAND FREE ENERGY PREDICTED BY IDOCK:   -0.78 KCAL/MOL
REMARK 927      BINDING AFFINITY PREDICTED BY RF-SCORE:    0.00 PKD
ROOT
HETATM    1  C   UNL     1     -11.965  14.886  69.621  1.00  0.00    -0.360 C  
HETATM    2  C   UNL     1     -11.325  15.783  68.593  1.00  0.00    -0.369 C  
HETATM    3  C   UNL     1     -11.151  15.474  67.293  1.00  0.00    -0.271 C  
HETATM    4  C   UNL     1      -8.973  19.960  68.276  1.00  0.00    -0.294 C  
HETATM    5  C   UNL     1     -10.536  16.526  66.437  1.00  0.00    -0.274 C  
HETATM    6  N   UNL     1     -10.232  17.728  67.044  1.00  0.00    -0.333 N  
HETATM    7  O   UNL     1     -10.330  16.307  65.245  1.00  0.00    -0.552 OA 
HETATM    8  C   UNL     1     -10.006  19.174  69.057  1.00  0.00    -0.422 C  
HETATM    9  N   UNL     1     -10.934  16.972  69.148  1.00  0.00    -0.161 NA 
HETATM   10  C   UNL     1      -9.554  18.720  66.219  1.00  0.00    -0.297 C  
HETATM   11  C   UNL     1      -9.449  20.100  66.844  1.00  0.00    -0.543 C  
HETATM   12  C   UNL     1     -10.398  17.871  68.394  1.00  0.00    -0.374 C  
ENDROOT
BRANCH   3  13
HETATM   13  C   UNL     1     -11.559  14.224  66.552  1.00  0.00    -0.390 C  
BRANCH  13  14
HETATM   14  C   UNL     1     -10.451  13.137  66.450  1.00  0.00    -0.282 C  
BRANCH  14  15
HETATM   15  N   UNL     1      -9.953  12.622  67.737  1.00  0.00    -0.212 NA 
HETATM   16  C   UNL     1      -9.399   9.664  67.696  1.00  0.00    -0.144 C  
HETATM   17  C   UNL     1     -10.799  10.286  67.615  1.00  0.00    -0.363 C  
HETATM   18  C   UNL     1     -10.817  11.619  68.358  1.00  0.00    -0.219 C  
HETATM   19  C   UNL     1      -8.369  10.677  67.175  1.00  0.00    -0.125 C  
HETATM   20  C   UNL     1      -8.564  12.124  67.672  1.00  0.00    -0.166 C  
BRANCH  16  21
HETATM   21  C   UNL     1      -9.200   9.115  69.089  1.00  0.00    -0.144 A  
HETATM   22  N   UNL     1      -8.448   9.735  70.009  1.00  0.00    -0.205 NA 
HETATM   23  O   UNL     1      -8.792   9.160  71.226  1.00  0.00    -0.257 OA 
HETATM   24  C   UNL     1      -9.719   8.185  71.026  1.00  0.00    -0.162 A  
HETATM   25  C   UNL     1      -9.954   8.054  69.669  1.00  0.00    -0.188 A  
HETATM   26  C   UNL     1     -10.877   7.088  69.226  1.00  0.00    -0.241 A  
HETATM   27  C   UNL     1     -11.536   6.310  70.186  1.00  0.00    -0.452 A  
HETATM   28  C   UNL     1     -11.292   6.508  71.545  1.00  0.00    -0.291 A  
HETATM   29  C   UNL     1     -10.372   7.447  72.009  1.00  0.00    -0.223 A  
HETATM   30  F   UNL     1     -11.977   5.775  72.434  1.00  0.00    -0.351 F  
ENDBRANCH  16  21
ENDBRANCH  14  15
ENDBRANCH  13  14
ENDBRANCH   3  13
TORSDOF 4
ENDMDL
MODEL       14
REMARK 921   NORMALIZED FREE ENERGY PREDICTED BY IDOCK:   -7.06 KCAL/MOL
REMARK 922        TOTAL FREE ENERGY PREDICTED BY IDOCK:   -9.44 KCAL/MOL
REMARK 923 INTER-LIGAND FREE ENERGY PREDICTED BY IDOCK:   -8.63 KCAL/MOL
REMARK 924 INTRA-LIGAND FREE ENERGY PREDICTED BY IDOCK:   -0.81 KCAL/MOL
REMARK 927      BINDING AFFINITY PREDICTED BY RF-SCORE:    0.00 PKD
ROOT
HETATM    1  C   UNL     1     -11.770  15.352  64.125  1.00  0.00    -0.109 C  
HETATM    2  C   UNL     1     -10.886  16.037  65.136  1.00  0.00    -0.395 C  
HETATM    3  C   UNL     1     -10.057  15.411  65.994  1.00  0.00    -0.346 C  
HETATM    4  C   UNL     1     -10.034  20.404  66.951  1.00  0.00    -0.549 C  
HETATM    5  C   UNL     1      -9.236  16.283  66.879  1.00  0.00    -0.218 C  
HETATM    6  N   UNL     1      -9.375  17.647  66.718  1.00  0.00    -0.270 N  
HETATM    7  O   UNL     1      -8.471  15.781  67.699  1.00  0.00    -0.154 OA 
HETATM    8  C   UNL     1     -10.498  19.636  65.730  1.00  0.00    -0.540 C  
HETATM    9  N   UNL     1     -11.029  17.398  65.076  1.00  0.00    -0.742 NA 
HETATM   10  C   UNL     1      -8.632  18.490  67.645  1.00  0.00    -0.264 C  
HETATM   11  C   UNL     1      -8.623  19.968  67.291  1.00  0.00    -0.399 C  
HETATM   12  C   UNL     1     -10.314  18.139  65.854  1.00  0.00    -0.277 C  
ENDROOT
BRANCH   3  13
HETATM   13  C   UNL     1      -9.782  13.934  66.141  1.00  0.00    -0.289 C  
BRANCH  13  14
HETATM   14  C   UNL     1     -10.783  13.176  67.058  1.00  0.00    -0.262 C  
BRANCH  14  15
HETATM   15  N   UNL     1     -10.211  12.632  68.302  1.00  0.00    -0.235 NA 
HETATM   16  C   UNL     1      -9.655   9.678  68.162  1.00  0.00    -0.159 C  
HETATM   17  C   UNL     1     -11.059  10.298  68.175  1.00  0.00    -0.324 C  
HETATM   18  C   UNL     1     -11.037  11.613  68.948  1.00  0.00    -0.232 C  
HETATM   19  C   UNL     1      -8.658  10.706  67.606  1.00  0.00    -0.118 C  
HETATM   20  C   UNL     1      -8.827  12.140  68.146  1.00  0.00    -0.187 C  
BRANCH  16  21
HETATM   21  C   UNL     1      -9.376   9.098  69.528  1.00  0.00    -0.163 A  
HETATM   22  N   UNL     1      -8.575   9.699  70.418  1.00  0.00    -0.202 NA 
HETATM   23  O   UNL     1      -8.847   9.095  71.638  1.00  0.00    -0.339 OA 
HETATM   24  C   UNL     1      -9.781   8.121  71.469  1.00  0.00    -0.176 A  
HETATM   25  C   UNL     1     -10.093   8.021  70.125  1.00  0.00    -0.194 A  
HETATM   26  C   UNL     1     -11.037   7.061  69.713  1.00  0.00    -0.278 A  
HETATM   27  C   UNL     1     -11.638   6.259  70.691  1.00  0.00    -0.350 A  
HETATM   28  C   UNL     1     -11.318   6.426  72.037  1.00  0.00    -0.294 A  
HETATM   29  C   UNL     1     -10.375   7.358  72.470  1.00  0.00    -0.272 A  
HETATM   30  F   UNL     1     -11.949   5.670  72.946  1.00  0.00    -0.296 F  
ENDBRANCH  16  21
ENDBRANCH  14  15
ENDBRANCH  13  14
ENDBRANCH   3  13
TORSDOF 4
ENDMDL
MODEL       15
REMARK 921   NORMALIZED FREE ENERGY PREDICTED BY IDOCK:   -7.03 KCAL/MOL
REMARK 922        TOTAL FREE ENERGY PREDICTED BY IDOCK:   -9.41 KCAL/MOL
REMARK 923 INTER-LIGAND FREE ENERGY PREDICTED BY IDOCK:   -8.66 KCAL/MOL
REMARK 924 INTRA-LIGAND FREE ENERGY PREDICTED BY IDOCK:   -0.75 KCAL/MOL
REMARK 927      BINDING AFFINITY PREDICTED BY RF-SCORE:    0.00 PKD
ROOT
HETATM    1  C   UNL     1      -9.805   8.751  66.611  1.00  0.00    -0.335 C  
HETATM    2  C   UNL     1     -10.505   9.280  67.836  1.00  0.00    -0.236 C  
HETATM    3  C   UNL     1     -11.068  10.499  67.943  1.00  0.00    -0.367 C  
HETATM    4  C   UNL     1     -11.331   8.110  72.422  1.00  0.00    -0.456 C  
HETATM    5  C   UNL     1     -11.752  10.804  69.230  1.00  0.00    -0.303 C  
HETATM    6  N   UNL     1     -11.775   9.802  70.180  1.00  0.00    -0.182 N  
HETATM    7  O   UNL     1     -12.272  11.904  69.406  1.00  0.00    -0.235 OA 
HETATM    8  C   UNL     1     -11.077   7.569  71.030  1.00  0.00    -0.274 C  
HETATM    9  N   UNL     1     -10.502   8.355  68.846  1.00  0.00    -0.213 NA 
HETATM   10  C   UNL     1     -12.371  10.138  71.466  1.00  0.00    -0.408 C  
HETATM   11  C   UNL     1     -12.589   8.955  72.393  1.00  0.00    -0.423 C  
HETATM   12  C   UNL     1     -11.094   8.637  69.957  1.00  0.00    -0.157 C  
ENDROOT
BRANCH   3  13
HETATM   13  C   UNL     1     -11.170  11.592  66.907  1.00  0.00    -0.376 C  
BRANCH  13  14
HETATM   14  C   UNL     1      -9.985  12.598  66.904  1.00  0.00    -0.230 C  
BRANCH  14  15
HETATM   15  N   UNL     1     -10.207  13.837  67.669  1.00  0.00    -0.240 NA 
HETATM   16  C   UNL     1      -9.764  16.331  66.044  1.00  0.00    -0.370 C  
HETATM   17  C   UNL     1      -8.653  15.363  66.468  1.00  0.00    -0.294 C  
HETATM   18  C   UNL     1      -9.026  14.692  67.787  1.00  0.00    -0.181 C  
HETATM   19  C   UNL     1     -11.099  15.572  65.995  1.00  0.00    -0.185 C  
HETATM   20  C   UNL     1     -11.358  14.627  67.186  1.00  0.00    -0.356 C  
BRANCH  16  21
HETATM   21  C   UNL     1      -9.687  17.560  66.918  1.00  0.00    -0.291 A  
HETATM   22  N   UNL     1     -10.630  17.865  67.819  1.00  0.00    -0.404 NA 
HETATM   23  O   UNL     1     -10.058  18.812  68.658  1.00  0.00    -0.381 OA 
HETATM   24  C   UNL     1      -8.794  19.091  68.239  1.00  0.00    -0.333 A  
HETATM   25  C   UNL     1      -8.534  18.382  67.080  1.00  0.00    -0.254 A  
HETATM   26  C   UNL     1      -7.280  18.526  66.458  1.00  0.00    -0.254 A  
HETATM   27  C   UNL     1      -6.336  19.371  67.055  1.00  0.00    -0.195 A  
HETATM   28  C   UNL     1      -6.633  20.034  68.245  1.00  0.00    -0.287 A  
HETATM   29  C   UNL     1      -7.873  19.920  68.873  1.00  0.00    -0.145 A  
HETATM   30  F   UNL     1      -5.687  20.797  68.809  1.00  0.00    -0.298 F  
ENDBRANCH  16  21
ENDBRANCH  14  15
ENDBRANCH  13  14
ENDBRANCH   3  13
TORSDOF 4
ENDMDL
MODEL       16
REMARK 921   NORMALIZED FREE ENERGY PREDICTED BY IDOCK:   -6.97 KCAL/MOL
REMARK 922        TOTAL FREE ENERGY PREDICTED BY IDOCK:   -9.34 KCAL/MOL
REMARK 923 INTER-LIGAND FREE ENERGY PREDICTED BY IDOCK:   -8.62 KCAL/MOL
REMARK 924 INTRA-LIGAND FREE ENERGY PREDICTED BY IDOCK:   -0.71 KCAL/MOL
REMARK 927      BINDING AFFINITY PREDICTED BY RF-SCORE:    0.00 PKD
ROOT
HETATM    1  C   UNL     1      -9.911  11.495  63.170  1.00  0.00    -0.413 C  
HETATM    2  C   UNL     1     -10.084  11.023  64.591  1.00  0.00    -0.311 C  
HETATM    3  C   UNL     1     -10.982  11.514  65.468  1.00  0.00    -0.290 C  
HETATM    4  C   UNL     1      -8.018   8.105  67.801  1.00  0.00    -0.127 C  
HETATM    5  C   UNL     1     -11.017  10.871  66.811  1.00  0.00    -0.185 C  
HETATM    6  N   UNL     1     -10.154   9.815  67.023  1.00  0.00    -0.205 N  
HETATM    7  O   UNL     1     -11.798  11.279  67.668  1.00  0.00    -0.614 OA 
HETATM    8  C   UNL     1      -8.263   8.354  66.326  1.00  0.00    -0.111 C  
HETATM    9  N   UNL     1      -9.204  10.017  64.890  1.00  0.00    -0.219 NA 
HETATM   10  C   UNL     1     -10.136   9.249  68.365  1.00  0.00    -0.191 C  
HETATM   11  C   UNL     1      -9.357   7.951  68.496  1.00  0.00    -0.141 C  
HETATM   12  C   UNL     1      -9.244   9.475  66.060  1.00  0.00    -0.196 C  
ENDROOT
BRANCH   3  13
HETATM   13  C   UNL     1     -12.021  12.589  65.262  1.00  0.00    -0.490 C  
BRANCH  13  14
HETATM   14  C   UNL     1     -11.465  14.040  65.268  1.00  0.00    -0.322 C  
BRANCH  14  15
HETATM   15  N   UNL     1     -10.372  14.293  66.223  1.00  0.00    -0.286 NA 
HETATM   16  C   UNL     1     -10.582  16.969  67.586  1.00  0.00    -0.333 C  
HETATM   17  C   UNL     1     -10.264  16.774  66.097  1.00  0.00    -0.363 C  
HETATM   18  C   UNL     1      -9.539  15.448  65.891  1.00  0.00    -0.351 C  
HETATM   19  C   UNL     1     -11.367  15.749  68.093  1.00  0.00    -0.337 C  
HETATM   20  C   UNL     1     -10.828  14.383  67.625  1.00  0.00    -0.273 C  
BRANCH  16  21
HETATM   21  C   UNL     1      -9.305  17.329  68.305  1.00  0.00    -0.272 A  
HETATM   22  N   UNL     1      -8.600  16.439  69.016  1.00  0.00    -0.248 NA 
HETATM   23  O   UNL     1      -7.350  17.013  69.206  1.00  0.00    -0.221 OA 
HETATM   24  C   UNL     1      -7.322  18.249  68.639  1.00  0.00    -0.290 A  
HETATM   25  C   UNL     1      -8.572  18.538  68.122  1.00  0.00    -0.324 A  
HETATM   26  C   UNL     1      -8.780  19.780  67.493  1.00  0.00    -0.388 A  
HETATM   27  C   UNL     1      -7.700  20.666  67.399  1.00  0.00    -0.355 A  
HETATM   28  C   UNL     1      -6.449  20.311  67.902  1.00  0.00    -0.264 A  
HETATM   29  C   UNL     1      -6.220  19.094  68.543  1.00  0.00    -0.258 A  
HETATM   30  F   UNL     1      -5.429  21.168  67.752  1.00  0.00    -0.248 F  
ENDBRANCH  16  21
ENDBRANCH  14  15
ENDBRANCH  13  14
ENDBRANCH   3  13
TORSDOF 4
ENDMDL
MODEL       17
REMARK 921   NORMALIZED FREE ENERGY PREDICTED BY IDOCK:   -6.91 KCAL/MOL
REMARK 922        TOTAL FREE ENERGY PREDICTED BY IDOCK:   -9.27 KCAL/MOL
REMARK 923 INTER-LIGAND FREE ENERGY PREDICTED BY IDOCK:   -8.50 KCAL/MOL
REMARK 924 INTRA-LIGAND FREE ENERGY PREDICTED BY IDOCK:   -0.76 KCAL/MOL
REMARK 927      BINDING AFFINITY PREDICTED BY RF-SCORE:    0.00 PKD
ROOT
HETATM    1  C   UNL     1     -12.643  11.679  70.995  1.00  0.00    -0.431 C  
HETATM    2  C   UNL     1     -11.873  10.430  70.653  1.00  0.00    -0.350 C  
HETATM    3  C   UNL     1     -11.404  10.117  69.428  1.00  0.00    -0.233 C  
HETATM    4  C   UNL     1     -10.512   6.263  72.621  1.00  0.00    -0.234 C  
HETATM    5  C   UNL     1     -10.626   8.852  69.318  1.00  0.00    -0.207 C  
HETATM    6  N   UNL     1     -10.429   8.135  70.482  1.00  0.00    -0.210 N  
HETATM    7  O   UNL     1     -10.183   8.495  68.229  1.00  0.00    -0.193 OA 
HETATM    8  C   UNL     1     -10.855   7.713  72.897  1.00  0.00    -0.446 C  
HETATM    9  N   UNL     1     -11.702   9.635  71.755  1.00  0.00    -0.362 NA 
HETATM   10  C   UNL     1      -9.740   6.858  70.350  1.00  0.00    -0.172 C  
HETATM   11  C   UNL     1      -9.336   6.216  71.666  1.00  0.00    -0.157 C  
HETATM   12  C   UNL     1     -11.030   8.540  71.642  1.00  0.00    -0.292 C  
ENDROOT
BRANCH   3  13
HETATM   13  C   UNL     1     -11.493  10.910  68.147  1.00  0.00    -0.368 C  
BRANCH  13  14
HETATM   14  C   UNL     1     -10.293  11.863  67.887  1.00  0.00    -0.198 C  
BRANCH  14  15
HETATM   15  N   UNL     1     -10.364  13.168  68.567  1.00  0.00    -0.250 NA 
HETATM   16  C   UNL     1     -10.455  15.496  66.662  1.00  0.00    -0.299 C  
HETATM   17  C   UNL     1      -9.233  14.593  66.872  1.00  0.00    -0.267 C  
HETATM   18  C   UNL     1      -9.229  14.049  68.298  1.00  0.00    -0.200 C  
HETATM   19  C   UNL     1     -11.725  14.713  67.029  1.00  0.00    -0.379 C  
HETATM   20  C   UNL     1     -11.632  13.886  68.327  1.00  0.00    -0.337 C  
BRANCH  16  21
HETATM   21  C   UNL     1     -10.209  16.806  67.372  1.00  0.00    -0.288 A  
HETATM   22  N   UNL     1     -10.905  17.184  68.452  1.00  0.00    -0.349 NA 
HETATM   23  O   UNL     1     -10.178  18.218  69.026  1.00  0.00    -0.376 OA 
HETATM   24  C   UNL     1      -9.073  18.474  68.275  1.00  0.00    -0.317 A  
HETATM   25  C   UNL     1      -9.087  17.658  67.157  1.00  0.00    -0.247 A  
HETATM   26  C   UNL     1      -8.038  17.760  66.225  1.00  0.00    -0.269 A  
HETATM   27  C   UNL     1      -7.009  18.674  66.480  1.00  0.00    -0.240 A  
HETATM   28  C   UNL     1      -7.021  19.446  67.641  1.00  0.00    -0.222 A  
HETATM   29  C   UNL     1      -8.057  19.376  68.573  1.00  0.00    -0.396 A  
HETATM   30  F   UNL     1      -5.995  20.277  67.872  1.00  0.00    -0.217 F  
ENDBRANCH  16  21
ENDBRANCH  14  15
ENDBRANCH  13  14
ENDBRANCH   3  13
TORSDOF 4
ENDMDL
MODEL       18
REMARK 921   NORMALIZED FREE ENERGY PREDICTED BY IDOCK:   -6.91 KCAL/MOL
REMARK 922        TOTAL FREE ENERGY PREDICTED BY IDOCK:   -9.26 KCAL/MOL
REMARK 923 INTER-LIGAND FREE ENERGY PREDICTED BY IDOCK:   -8.59 KCAL/MOL
REMARK 924 INTRA-LIGAND FREE ENERGY PREDICTED BY IDOCK:   -0.67 KCAL/MOL
REMARK 927      BINDING AFFINITY PREDICTED BY RF-SCORE:    0.00 PKD
ROOT
HETATM    1  C   UNL     1      -9.435  10.601  68.572  1.00  0.00    -0.176 C  
HETATM    2  C   UNL     1     -10.565  10.216  69.492  1.00  0.00    -0.245 C  
HETATM    3  C   UNL     1     -11.540  11.045  69.914  1.00  0.00    -0.416 C  
HETATM    4  C   UNL     1     -12.040   6.534  72.204  1.00  0.00    -0.309 C  
HETATM    5  C   UNL     1     -12.590  10.447  70.785  1.00  0.00    -0.371 C  
HETATM    6  N   UNL     1     -12.486   9.096  71.053  1.00  0.00    -0.235 N  
HETATM    7  O   UNL     1     -13.500  11.147  71.222  1.00  0.00    -0.067 OA 
HETATM    8  C   UNL     1     -11.264   6.930  70.965  1.00  0.00    -0.323 C  
HETATM    9  N   UNL     1     -10.482   8.897  69.854  1.00  0.00    -0.209 NA 
HETATM   10  C   UNL     1     -13.468   8.539  71.974  1.00  0.00    -0.381 C  
HETATM   11  C   UNL     1     -13.468   7.022  72.059  1.00  0.00    -0.146 C  
HETATM   12  C   UNL     1     -11.396   8.396  70.614  1.00  0.00    -0.244 C  
ENDROOT
BRANCH   3  13
HETATM   13  C   UNL     1     -11.767  12.497  69.569  1.00  0.00    -0.375 C  
BRANCH  13  14
HETATM   14  C   UNL     1     -12.103  12.766  68.075  1.00  0.00    -0.121 C  
BRANCH  14  15
HETATM   15  N   UNL     1     -12.020  14.175  67.654  1.00  0.00    -0.386 NA 
HETATM   16  C   UNL     1      -9.541  14.795  66.065  1.00  0.00    -0.334 C  
HETATM   17  C   UNL     1      -9.550  14.446  67.558  1.00  0.00    -0.215 C  
HETATM   18  C   UNL     1     -10.865  14.895  68.188  1.00  0.00    -0.256 C  
HETATM   19  C   UNL     1     -10.785  14.186  65.400  1.00  0.00    -0.350 C  
HETATM   20  C   UNL     1     -12.098  14.355  66.190  1.00  0.00    -0.357 C  
BRANCH  16  21
HETATM   21  C   UNL     1      -9.327  16.283  65.923  1.00  0.00    -0.264 A  
HETATM   22  N   UNL     1     -10.311  17.124  65.576  1.00  0.00    -0.631 NA 
HETATM   23  O   UNL     1      -9.854  18.394  65.903  1.00  0.00    -0.517 OA 
HETATM   24  C   UNL     1      -8.595  18.311  66.412  1.00  0.00    -0.242 A  
HETATM   25  C   UNL     1      -8.175  16.993  66.369  1.00  0.00    -0.326 A  
HETATM   26  C   UNL     1      -6.888  16.672  66.838  1.00  0.00    -0.253 A  
HETATM   27  C   UNL     1      -6.090  17.703  67.349  1.00  0.00    -0.165 A  
HETATM   28  C   UNL     1      -6.575  19.009  67.407  1.00  0.00    -0.197 A  
HETATM   29  C   UNL     1      -7.840  19.357  66.934  1.00  0.00    -0.278 A  
HETATM   30  F   UNL     1      -5.799  19.960  67.945  1.00  0.00    -0.203 F  
ENDBRANCH  16  21
ENDBRANCH  14  15
ENDBRANCH  13  14
ENDBRANCH   3  13
TORSDOF 4
ENDMDL
MODEL       19
REMARK 921   NORMALIZED FREE ENERGY PREDICTED BY IDOCK:   -6.91 KCAL/MOL
REMARK 922        TOTAL FREE ENERGY PREDICTED BY IDOCK:   -9.26 KCAL/MOL
REMARK 923 INTER-LIGAND FREE ENERGY PREDICTED BY IDOCK:   -9.57 KCAL/MOL
REMARK 924 INTRA-LIGAND FREE ENERGY PREDICTED BY IDOCK:    0.31 KCAL/MOL
REMARK 927      BINDING AFFINITY PREDICTED BY RF-SCORE:    0.00 PKD
ROOT
HETATM    1  C   UNL     1     -10.006   9.420  65.913  1.00  0.00    -0.327 C  
HETATM    2  C   UNL     1     -10.272   9.159  67.374  1.00  0.00    -0.247 C  
HETATM    3  C   UNL     1     -10.465  10.109  68.310  1.00  0.00    -0.244 C  
HETATM    4  C   UNL     1     -10.390   5.533  70.524  1.00  0.00    -0.342 C  
HETATM    5  C   UNL     1     -10.760   9.631  69.689  1.00  0.00    -0.240 C  
HETATM    6  N   UNL     1     -10.841   8.265  69.875  1.00  0.00    -0.240 N  
HETATM    7  O   UNL     1     -10.928  10.441  70.599  1.00  0.00    -0.289 OA 
HETATM    8  C   UNL     1     -10.583   5.923  69.073  1.00  0.00    -0.360 C  
HETATM    9  N   UNL     1     -10.297   7.816  67.640  1.00  0.00    -0.223 NA 
HETATM   10  C   UNL     1     -11.046   7.806  71.242  1.00  0.00    -0.246 C  
HETATM   11  C   UNL     1     -11.363   6.326  71.374  1.00  0.00    -0.353 C  
HETATM   12  C   UNL     1     -10.548   7.419  68.842  1.00  0.00    -0.176 C  
ENDROOT
BRANCH   3  13
HETATM   13  C   UNL     1     -10.495  11.609  68.148  1.00  0.00    -0.217 C  
BRANCH  13  14
HETATM   14  C   UNL     1     -11.767  12.162  67.445  1.00  0.00    -0.304 C  
BRANCH  14  15
HETATM   15  N   UNL     1     -11.863  13.630  67.377  1.00  0.00    -0.381 NA 
HETATM   16  C   UNL     1     -10.329  14.814  65.074  1.00  0.00    -0.420 C  
HETATM   17  C   UNL     1      -9.684  14.149  66.297  1.00  0.00    -0.315 C  
HETATM   18  C   UNL     1     -10.583  14.323  67.517  1.00  0.00    -0.261 C  
HETATM   19  C   UNL     1     -11.745  14.250  64.885  1.00  0.00    -0.399 C  
HETATM   20  C   UNL     1     -12.575  14.117  66.178  1.00  0.00    -0.321 C  
BRANCH  16  21
HETATM   21  C   UNL     1     -10.183  16.311  65.213  1.00  0.00    -0.123 A  
HETATM   22  N   UNL     1     -11.063  17.174  64.688  1.00  0.00    -1.007 NA 
HETATM   23  O   UNL     1     -10.819  18.389  65.313  1.00  0.00    -0.624 OA 
HETATM   24  C   UNL     1      -9.780  18.257  66.181  1.00  0.00    -0.224 A  
HETATM   25  C   UNL     1      -9.279  16.970  66.096  1.00  0.00    -0.244 A  
HETATM   26  C   UNL     1      -8.184  16.608  66.903  1.00  0.00    -0.247 A  
HETATM   27  C   UNL     1      -7.659  17.567  67.778  1.00  0.00    -0.197 A  
HETATM   28  C   UNL     1      -8.225  18.839  67.855  1.00  0.00    -0.269 A  
HETATM   29  C   UNL     1      -9.299  19.228  67.055  1.00  0.00    -0.373 A  
HETATM   30  F   UNL     1      -7.722  19.714  68.738  1.00  0.00    -0.356 F  
ENDBRANCH  16  21
ENDBRANCH  14  15
ENDBRANCH  13  14
ENDBRANCH   3  13
TORSDOF 4
ENDMDL
MODEL       20
REMARK 921   NORMALIZED FREE ENERGY PREDICTED BY IDOCK:   -6.88 KCAL/MOL
REMARK 922        TOTAL FREE ENERGY PREDICTED BY IDOCK:   -9.23 KCAL/MOL
REMARK 923 INTER-LIGAND FREE ENERGY PREDICTED BY IDOCK:   -8.64 KCAL/MOL
REMARK 924 INTRA-LIGAND FREE ENERGY PREDICTED BY IDOCK:   -0.59 KCAL/MOL
REMARK 927      BINDING AFFINITY PREDICTED BY RF-SCORE:    0.00 PKD
ROOT
HETATM    1  C   UNL     1      -9.411   7.744  66.379  1.00  0.00    -0.237 C  
HETATM    2  C   UNL     1      -9.924   7.929  67.783  1.00  0.00    -0.173 C  
HETATM    3  C   UNL     1     -10.518   9.044  68.252  1.00  0.00    -0.247 C  
HETATM    4  C   UNL     1      -9.928   5.711  72.046  1.00  0.00    -0.217 C  
HETATM    5  C   UNL     1     -10.994   8.999  69.663  1.00  0.00    -0.136 C  
HETATM    6  N   UNL     1     -10.813   7.814  70.348  1.00  0.00    -0.242 N  
HETATM    7  O   UNL     1     -11.529   9.986  70.164  1.00  0.00    -0.257 OA 
HETATM    8  C   UNL     1      -9.881   5.515  70.544  1.00  0.00    -0.254 C  
HETATM    9  N   UNL     1      -9.711   6.808  68.540  1.00  0.00    -0.132 NA 
HETATM   10  C   UNL     1     -11.205   7.807  71.750  1.00  0.00    -0.256 C  
HETATM   11  C   UNL     1     -11.212   6.435  72.401  1.00  0.00    -0.313 C  
HETATM   12  C   UNL     1     -10.125   6.787  69.762  1.00  0.00    -0.183 C  
ENDROOT
BRANCH   3  13
HETATM   13  C   UNL     1     -10.840  10.327  67.524  1.00  0.00    -0.355 C  
BRANCH  13  14
HETATM   14  C   UNL     1      -9.711  11.395  67.560  1.00  0.00    -0.178 C  
BRANCH  14  15
HETATM   15  N   UNL     1      -9.959  12.544  68.448  1.00  0.00    -0.226 NA 
HETATM   16  C   UNL     1     -10.979  14.972  66.992  1.00  0.00    -0.318 C  
HETATM   17  C   UNL     1      -9.559  14.409  66.852  1.00  0.00    -0.263 C  
HETATM   18  C   UNL     1      -9.144  13.721  68.150  1.00  0.00    -0.194 C  
HETATM   19  C   UNL     1     -11.926  13.843  67.423  1.00  0.00    -0.436 C  
HETATM   20  C   UNL     1     -11.384  12.922  68.536  1.00  0.00    -0.289 C  
BRANCH  16  21
HETATM   21  C   UNL     1     -10.920  16.207  67.859  1.00  0.00    -0.318 A  
HETATM   22  N   UNL     1     -10.897  16.150  69.197  1.00  0.00    -0.276 NA 
HETATM   23  O   UNL     1     -10.478  17.405  69.621  1.00  0.00    -0.176 OA 
HETATM   24  C   UNL     1     -10.284  18.211  68.543  1.00  0.00    -0.384 A  
HETATM   25  C   UNL     1     -10.633  17.524  67.394  1.00  0.00    -0.311 A  
HETATM   26  C   UNL     1     -10.523  18.173  66.150  1.00  0.00    -0.377 A  
HETATM   27  C   UNL     1     -10.041  19.488  66.127  1.00  0.00    -0.557 A  
HETATM   28  C   UNL     1      -9.665  20.123  67.310  1.00  0.00    -0.437 A  
HETATM   29  C   UNL     1      -9.780  19.509  68.556  1.00  0.00    -0.503 A  
HETATM   30  F   UNL     1      -9.166  21.365  67.242  1.00  0.00    -0.391 F  
ENDBRANCH  16  21
ENDBRANCH  14  15
ENDBRANCH  13  14
ENDBRANCH   3  13
TORSDOF 4
ENDMDL
MODEL       21
REMARK 921   NORMALIZED FREE ENERGY PREDICTED BY IDOCK:   -6.88 KCAL/MOL
REMARK 922        TOTAL FREE ENERGY PREDICTED BY IDOCK:   -9.23 KCAL/MOL
REMARK 923 INTER-LIGAND FREE ENERGY PREDICTED BY IDOCK:   -8.79 KCAL/MOL
REMARK 924 INTRA-LIGAND FREE ENERGY PREDICTED BY IDOCK:   -0.44 KCAL/MOL
REMARK 927      BINDING AFFINITY PREDICTED BY RF-SCORE:    0.00 PKD
ROOT
HETATM    1  C   UNL     1      -9.283   4.870  68.408  1.00  0.00    -0.157 C  
HETATM    2  C   UNL     1      -9.701   4.860  69.856  1.00  0.00    -0.206 C  
HETATM    3  C   UNL     1     -10.391   5.840  70.471  1.00  0.00    -0.312 C  
HETATM    4  C   UNL     1      -9.084   2.293  73.870  1.00  0.00    -0.077 C  
HETATM    5  C   UNL     1     -10.743   5.608  71.899  1.00  0.00    -0.241 C  
HETATM    6  N   UNL     1     -10.360   4.402  72.451  1.00  0.00    -0.185 N  
HETATM    7  O   UNL     1     -11.356   6.467  72.530  1.00  0.00    -0.264 OA 
HETATM    8  C   UNL     1      -9.133   2.238  72.357  1.00  0.00    -0.118 C  
HETATM    9  N   UNL     1      -9.289   3.714  70.482  1.00  0.00    -0.145 NA 
HETATM   10  C   UNL     1     -10.633   4.219  73.870  1.00  0.00    -0.247 C  
HETATM   11  C   UNL     1     -10.416   2.805  74.381  1.00  0.00    -0.213 C  
HETATM   12  C   UNL     1      -9.597   3.531  71.722  1.00  0.00    -0.153 C  
ENDROOT
BRANCH   3  13
HETATM   13  C   UNL     1     -10.929   7.128  69.896  1.00  0.00    -0.278 C  
BRANCH  13  14
HETATM   14  C   UNL     1      -9.842   8.122  69.399  1.00  0.00    -0.182 C  
BRANCH  14  15
HETATM   15  N   UNL     1      -9.825   9.430  70.077  1.00  0.00    -0.206 NA 
HETATM   16  C   UNL     1     -11.981  11.295  69.112  1.00  0.00    -0.405 C  
HETATM   17  C   UNL     1     -10.774  10.856  68.274  1.00  0.00    -0.244 C  
HETATM   18  C   UNL     1      -9.587  10.565  69.187  1.00  0.00    -0.199 C  
HETATM   19  C   UNL     1     -12.267  10.226  70.178  1.00  0.00    -0.251 C  
HETATM   20  C   UNL     1     -11.023   9.677  70.905  1.00  0.00    -0.342 C  
BRANCH  16  21
HETATM   21  C   UNL     1     -11.746  12.710  69.584  1.00  0.00    -0.303 A  
HETATM   22  N   UNL     1     -11.064  13.608  68.862  1.00  0.00    -0.249 NA 
HETATM   23  O   UNL     1     -11.365  14.845  69.417  1.00  0.00    -0.259 OA 
HETATM   24  C   UNL     1     -12.196  14.680  70.480  1.00  0.00    -0.324 A  
HETATM   25  C   UNL     1     -12.406  13.328  70.686  1.00  0.00    -0.416 A  
HETATM   26  C   UNL     1     -13.231  12.919  71.750  1.00  0.00    -0.479 A  
HETATM   27  C   UNL     1     -13.825  13.906  72.547  1.00  0.00    -0.620 A  
HETATM   28  C   UNL     1     -13.614  15.257  72.274  1.00  0.00    -0.481 A  
HETATM   29  C   UNL     1     -12.788  15.688  71.236  1.00  0.00    -0.550 A  
HETATM   30  F   UNL     1     -14.236  16.171  73.031  1.00  0.00    -0.687 F  
ENDBRANCH  16  21
ENDBRANCH  14  15
ENDBRANCH  13  14
ENDBRANCH   3  13
TORSDOF 4
ENDMDL
MODEL       22
REMARK 921   NORMALIZED FREE ENERGY PREDICTED BY IDOCK:   -6.88 KCAL/MOL
REMARK 922        TOTAL FREE ENERGY PREDICTED BY IDOCK:   -9.23 KCAL/MOL
REMARK 923 INTER-LIGAND FREE ENERGY PREDICTED BY IDOCK:   -8.55 KCAL/MOL
REMARK 924 INTRA-LIGAND FREE ENERGY PREDICTED BY IDOCK:   -0.67 KCAL/MOL
REMARK 927      BINDING AFFINITY PREDICTED BY RF-SCORE:    0.00 PKD
ROOT
HETATM    1  C   UNL     1     -11.876  13.153  68.275  1.00  0.00    -0.384 C  
HETATM    2  C   UNL     1     -11.390  11.904  68.964  1.00  0.00    -0.279 C  
HETATM    3  C   UNL     1     -10.230  11.272  68.699  1.00  0.00    -0.214 C  
HETATM    4  C   UNL     1     -12.886   8.587  72.102  1.00  0.00    -0.413 C  
HETATM    5  C   UNL     1      -9.920  10.077  69.531  1.00  0.00    -0.228 C  
HETATM    6  N   UNL     1     -10.829   9.746  70.517  1.00  0.00    -0.300 N  
HETATM    7  O   UNL     1      -8.888   9.439  69.333  1.00  0.00    -0.142 OA 
HETATM    8  C   UNL     1     -13.019  10.032  71.666  1.00  0.00    -0.554 C  
HETATM    9  N   UNL     1     -12.285  11.481  69.912  1.00  0.00    -0.279 NA 
HETATM   10  C   UNL     1     -10.559   8.529  71.269  1.00  0.00    -0.234 C  
HETATM   11  C   UNL     1     -11.443   8.327  72.488  1.00  0.00    -0.454 C  
HETATM   12  C   UNL     1     -12.003  10.441  70.620  1.00  0.00    -0.351 C  
ENDROOT
BRANCH   3  13
HETATM   13  C   UNL     1      -9.150  11.645  67.713  1.00  0.00    -0.175 C  
BRANCH  13  14
HETATM   14  C   UNL     1      -7.902  12.327  68.344  1.00  0.00    -0.151 C  
BRANCH  14  15
HETATM   15  N   UNL     1      -7.441  13.550  67.664  1.00  0.00    -0.167 NA 
HETATM   16  C   UNL     1      -7.795  16.036  69.323  1.00  0.00    -0.222 C  
HETATM   17  C   UNL     1      -8.948  15.220  68.724  1.00  0.00    -0.200 C  
HETATM   18  C   UNL     1      -8.490  14.543  67.436  1.00  0.00    -0.205 C  
HETATM   19  C   UNL     1      -6.575  15.120  69.505  1.00  0.00    -0.163 C  
HETATM   20  C   UNL     1      -6.278  14.182  68.318  1.00  0.00    -0.117 C  
BRANCH  16  21
HETATM   21  C   UNL     1      -7.615  17.287  68.497  1.00  0.00    -0.251 A  
HETATM   22  N   UNL     1      -6.434  17.647  67.979  1.00  0.00    -0.174 NA 
HETATM   23  O   UNL     1      -6.721  18.602  67.012  1.00  0.00    -0.191 OA 
HETATM   24  C   UNL     1      -8.062  18.829  66.977  1.00  0.00    -0.258 A  
HETATM   25  C   UNL     1      -8.675  18.078  67.964  1.00  0.00    -0.264 A  
HETATM   26  C   UNL     1     -10.071  18.166  68.121  1.00  0.00    -0.388 A  
HETATM   27  C   UNL     1     -10.785  18.999  67.252  1.00  0.00    -0.556 A  
HETATM   28  C   UNL     1     -10.125  19.706  66.247  1.00  0.00    -0.480 A  
HETATM   29  C   UNL     1      -8.742  19.649  66.081  1.00  0.00    -0.361 A  
HETATM   30  F   UNL     1     -10.850  20.457  65.407  1.00  0.00    -0.399 F  
ENDBRANCH  16  21
ENDBRANCH  14  15
ENDBRANCH  13  14
ENDBRANCH   3  13
TORSDOF 4
ENDMDL
MODEL       23
REMARK 921   NORMALIZED FREE ENERGY PREDICTED BY IDOCK:   -6.86 KCAL/MOL
REMARK 922        TOTAL FREE ENERGY PREDICTED BY IDOCK:   -9.20 KCAL/MOL
REMARK 923 INTER-LIGAND FREE ENERGY PREDICTED BY IDOCK:   -8.68 KCAL/MOL
REMARK 924 INTRA-LIGAND FREE ENERGY PREDICTED BY IDOCK:   -0.52 KCAL/MOL
REMARK 927      BINDING AFFINITY PREDICTED BY RF-SCORE:    0.00 PKD
ROOT
HETATM    1  C   UNL     1     -11.005  14.301  64.591  1.00  0.00    -0.379 C  
HETATM    2  C   UNL     1     -10.961  15.196  65.803  1.00  0.00    -0.349 C  
HETATM    3  C   UNL     1     -11.405  14.864  67.031  1.00  0.00    -0.345 C  
HETATM    4  C   UNL     1      -9.918  19.725  67.022  1.00  0.00    -0.532 C  
HETATM    5  C   UNL     1     -11.223  15.883  68.101  1.00  0.00    -0.339 C  
HETATM    6  N   UNL     1     -10.590  17.058  67.746  1.00  0.00    -0.352 N  
HETATM    7  O   UNL     1     -11.621  15.656  69.242  1.00  0.00    -0.319 OA 
HETATM    8  C   UNL     1      -9.619  18.601  66.051  1.00  0.00    -0.090 C  
HETATM    9  N   UNL     1     -10.404  16.410  65.501  1.00  0.00    -0.544 NA 
HETATM   10  C   UNL     1     -10.493  18.082  68.777  1.00  0.00    -0.172 C  
HETATM   11  C   UNL     1      -9.592  19.253  68.426  1.00  0.00    -0.450 C  
HETATM   12  C   UNL     1     -10.259  17.285  66.438  1.00  0.00    -0.331 C  
ENDROOT
BRANCH   3  13
HETATM   13  C   UNL     1     -12.004  13.561  67.503  1.00  0.00    -0.385 C  
BRANCH  13  14
HETATM   14  C   UNL     1     -10.969  12.445  67.818  1.00  0.00    -0.228 C  
BRANCH  14  15
HETATM   15  N   UNL     1     -11.539  11.118  68.107  1.00  0.00    -0.477 NA 
HETATM   16  C   UNL     1     -10.545   9.935  70.689  1.00  0.00    -0.341 C  
HETATM   17  C   UNL     1      -9.682  10.137  69.437  1.00  0.00    -0.247 C  
HETATM   18  C   UNL     1     -10.552  10.043  68.187  1.00  0.00    -0.227 C  
HETATM   19  C   UNL     1     -11.704  10.942  70.666  1.00  0.00    -0.418 C  
HETATM   20  C   UNL     1     -12.407  11.101  69.302  1.00  0.00    -0.101 C  
BRANCH  16  21
HETATM   21  C   UNL     1     -10.890   8.470  70.800  1.00  0.00    -0.231 A  
HETATM   22  N   UNL     1     -12.152   8.031  70.907  1.00  0.00    -0.215 NA 
HETATM   23  O   UNL     1     -12.105   6.674  70.618  1.00  0.00    -0.394 OA 
HETATM   24  C   UNL     1     -10.821   6.302  70.371  1.00  0.00    -0.299 A  
HETATM   25  C   UNL     1      -9.989   7.392  70.556  1.00  0.00    -0.184 A  
HETATM   26  C   UNL     1      -8.604   7.235  70.365  1.00  0.00    -0.144 A  
HETATM   27  C   UNL     1      -8.126   5.979  69.973  1.00  0.00    -0.114 A  
HETATM   28  C   UNL     1      -9.010   4.921  69.760  1.00  0.00    -0.099 A  
HETATM   29  C   UNL     1     -10.384   5.046  69.958  1.00  0.00    -0.303 A  
HETATM   30  F   UNL     1      -8.518   3.747  69.341  1.00  0.00    -0.070 F  
ENDBRANCH  16  21
ENDBRANCH  14  15
ENDBRANCH  13  14
ENDBRANCH   3  13
TORSDOF 4
ENDMDL
MODEL       24
REMARK 921   NORMALIZED FREE ENERGY PREDICTED BY IDOCK:   -6.78 KCAL/MOL
REMARK 922        TOTAL FREE ENERGY PREDICTED BY IDOCK:   -9.11 KCAL/MOL
REMARK 923 INTER-LIGAND FREE ENERGY PREDICTED BY IDOCK:   -8.60 KCAL/MOL
REMARK 924 INTRA-LIGAND FREE ENERGY PREDICTED BY IDOCK:   -0.51 KCAL/MOL
REMARK 927      BINDING AFFINITY PREDICTED BY RF-SCORE:    0.00 PKD
ROOT
HETATM    1  C   UNL     1     -11.347  15.045  64.245  1.00  0.00    -0.087 C  
HETATM    2  C   UNL     1     -11.099  15.748  65.554  1.00  0.00    -0.190 C  
HETATM    3  C   UNL     1     -11.279  15.203  66.774  1.00  0.00    -0.285 C  
HETATM    4  C   UNL     1     -10.010  20.101  67.272  1.00  0.00    -0.583 C  
HETATM    5  C   UNL     1     -10.930  16.059  67.941  1.00  0.00    -0.327 C  
HETATM    6  N   UNL     1     -10.424  17.315  67.668  1.00  0.00    -0.356 N  
HETATM    7  O   UNL     1     -11.086  15.636  69.084  1.00  0.00    -0.246 OA 
HETATM    8  C   UNL     1      -9.866  19.160  66.093  1.00  0.00    -0.397 C  
HETATM    9  N   UNL     1     -10.659  17.029  65.354  1.00  0.00    -0.617 NA 
HETATM   10  C   UNL     1     -10.165  18.175  68.815  1.00  0.00    -0.337 C  
HETATM   11  C   UNL     1      -9.396  19.446  68.494  1.00  0.00    -0.446 C  
HETATM   12  C   UNL     1     -10.366  17.760  66.376  1.00  0.00    -0.351 C  
ENDROOT
BRANCH   3  13
HETATM   13  C   UNL     1     -11.724  13.806  67.134  1.00  0.00    -0.417 C  
BRANCH  13  14
HETATM   14  C   UNL     1     -10.579  12.756  67.195  1.00  0.00    -0.237 C  
BRANCH  14  15
HETATM   15  N   UNL     1     -10.176  12.341  68.550  1.00  0.00    -0.222 NA 
HETATM   16  C   UNL     1     -11.025   9.536  69.235  1.00  0.00    -0.167 C  
HETATM   17  C   UNL     1     -11.989  10.715  69.054  1.00  0.00    -0.186 C  
HETATM   18  C   UNL     1     -11.292  12.017  69.437  1.00  0.00    -0.251 C  
HETATM   19  C   UNL     1      -9.742   9.810  68.434  1.00  0.00    -0.162 C  
HETATM   20  C   UNL     1      -9.188  11.243  68.558  1.00  0.00    -0.181 C  
BRANCH  16  21
HETATM   21  C   UNL     1     -10.883   9.256  70.711  1.00  0.00    -0.284 A  
HETATM   22  N   UNL     1     -11.936   9.031  71.508  1.00  0.00    -0.321 NA 
HETATM   23  O   UNL     1     -11.419   8.463  72.665  1.00  0.00    -0.380 OA 
HETATM   24  C   UNL     1     -10.065   8.379  72.569  1.00  0.00    -0.292 A  
HETATM   25  C   UNL     1      -9.659   8.949  71.376  1.00  0.00    -0.359 A  
HETATM   26  C   UNL     1      -8.287   8.985  71.068  1.00  0.00    -0.237 A  
HETATM   27  C   UNL     1      -7.387   8.419  71.980  1.00  0.00    -0.122 A  
HETATM   28  C   UNL     1      -7.850   7.821  73.151  1.00  0.00    -0.122 A  
HETATM   29  C   UNL     1      -9.202   7.787  73.487  1.00  0.00    -0.350 A  
HETATM   30  F   UNL     1      -6.961   7.250  73.976  1.00  0.00    -0.084 F  
ENDBRANCH  16  21
ENDBRANCH  14  15
ENDBRANCH  13  14
ENDBRANCH   3  13
TORSDOF 4
ENDMDL
MODEL       25
REMARK 921   NORMALIZED FREE ENERGY PREDICTED BY IDOCK:   -6.78 KCAL/MOL
REMARK 922        TOTAL FREE ENERGY PREDICTED BY IDOCK:   -9.11 KCAL/MOL
REMARK 923 INTER-LIGAND FREE ENERGY PREDICTED BY IDOCK:   -9.02 KCAL/MOL
REMARK 924 INTRA-LIGAND FREE ENERGY PREDICTED BY IDOCK:   -0.08 KCAL/MOL
REMARK 927      BINDING AFFINITY PREDICTED BY RF-SCORE:    0.00 PKD
ROOT
HETATM    1  C   UNL     1     -12.711   9.524  71.332  1.00  0.00    -0.445 C  
HETATM    2  C   UNL     1     -11.513   8.768  70.818  1.00  0.00    -0.270 C  
HETATM    3  C   UNL     1     -10.562   9.276  70.010  1.00  0.00    -0.256 C  
HETATM    4  C   UNL     1      -9.699   4.319  70.740  1.00  0.00    -0.274 C  
HETATM    5  C   UNL     1      -9.436   8.367  69.657  1.00  0.00    -0.166 C  
HETATM    6  N   UNL     1      -9.453   7.103  70.213  1.00  0.00    -0.162 N  
HETATM    7  O   UNL     1      -8.541   8.756  68.910  1.00  0.00    -0.133 OA 
HETATM    8  C   UNL     1     -10.562   5.294  71.514  1.00  0.00    -0.254 C  
HETATM    9  N   UNL     1     -11.507   7.478  71.279  1.00  0.00    -0.267 NA 
HETATM   10  C   UNL     1      -8.394   6.194  69.795  1.00  0.00    -0.124 C  
HETATM   11  C   UNL     1      -8.309   4.907  70.598  1.00  0.00    -0.102 C  
HETATM   12  C   UNL     1     -10.527   6.702  70.959  1.00  0.00    -0.214 C  
ENDROOT
BRANCH   3  13
HETATM   13  C   UNL     1     -10.431  10.675  69.460  1.00  0.00    -0.236 C  
BRANCH  13  14
HETATM   14  C   UNL     1     -10.942  10.850  68.001  1.00  0.00    -0.265 C  
BRANCH  14  15
HETATM   15  N   UNL     1     -10.276  11.909  67.223  1.00  0.00    -0.199 NA 
HETATM   16  C   UNL     1     -11.036  14.685  68.103  1.00  0.00    -0.269 C  
HETATM   17  C   UNL     1     -11.986  13.706  67.401  1.00  0.00    -0.413 C  
HETATM   18  C   UNL     1     -11.191  12.779  66.486  1.00  0.00    -0.307 C  
HETATM   19  C   UNL     1      -9.941  13.888  68.829  1.00  0.00    -0.139 C  
HETATM   20  C   UNL     1      -9.336  12.722  68.021  1.00  0.00    -0.213 C  
BRANCH  16  21
HETATM   21  C   UNL     1     -10.597  15.726  67.101  1.00  0.00    -0.313 A  
HETATM   22  N   UNL     1     -10.681  15.537  65.777  1.00  0.00    -0.339 NA 
HETATM   23  O   UNL     1     -10.548  16.795  65.207  1.00  0.00    -0.621 OA 
HETATM   24  C   UNL     1     -10.355  17.723  66.182  1.00  0.00    -0.340 A  
HETATM   25  C   UNL     1     -10.292  17.085  67.408  1.00  0.00    -0.319 A  
HETATM   26  C   UNL     1     -10.084  17.854  68.568  1.00  0.00    -0.392 A  
HETATM   27  C   UNL     1      -9.970  19.243  68.433  1.00  0.00    -0.502 A  
HETATM   28  C   UNL     1     -10.079  19.842  67.179  1.00  0.00    -0.424 A  
HETATM   29  C   UNL     1     -10.269  19.102  66.012  1.00  0.00    -0.494 A  
HETATM   30  F   UNL     1     -10.010  21.178  67.096  1.00  0.00    -0.572 F  
ENDBRANCH  16  21
ENDBRANCH  14  15
ENDBRANCH  13  14
ENDBRANCH   3  13
TORSDOF 4
ENDMDL
MODEL       26
REMARK 921   NORMALIZED FREE ENERGY PREDICTED BY IDOCK:   -6.76 KCAL/MOL
REMARK 922        TOTAL FREE ENERGY PREDICTED BY IDOCK:   -9.08 KCAL/MOL
REMARK 923 INTER-LIGAND FREE ENERGY PREDICTED BY IDOCK:   -8.28 KCAL/MOL
REMARK 924 INTRA-LIGAND FREE ENERGY PREDICTED BY IDOCK:   -0.80 KCAL/MOL
REMARK 927      BINDING AFFINITY PREDICTED BY RF-SCORE:    0.00 PKD
ROOT
HETATM    1  C   UNL     1     -12.134  13.005  63.417  1.00  0.00    -0.591 C  
HETATM    2  C   UNL     1     -11.263  12.050  64.191  1.00  0.00    -0.373 C  
HETATM    3  C   UNL     1     -11.227  11.947  65.534  1.00  0.00    -0.353 C  
HETATM    4  C   UNL     1      -7.706   8.894  63.503  1.00  0.00    -0.128 C  
HETATM    5  C   UNL     1     -10.327  10.901  66.096  1.00  0.00    -0.248 C  
HETATM    6  N   UNL     1      -9.640  10.115  65.193  1.00  0.00    -0.269 N  
HETATM    7  O   UNL     1     -10.229  10.763  67.313  1.00  0.00    -0.189 OA 
HETATM    8  C   UNL     1      -8.918   9.554  62.878  1.00  0.00    -0.230 C  
HETATM    9  N   UNL     1     -10.500  11.283  63.351  1.00  0.00    -0.380 NA 
HETATM   10  C   UNL     1      -8.700   9.153  65.751  1.00  0.00    -0.165 C  
HETATM   11  C   UNL     1      -8.145   8.153  64.751  1.00  0.00    -0.152 C  
HETATM   12  C   UNL     1      -9.722  10.385  63.854  1.00  0.00    -0.305 C  
ENDROOT
BRANCH   3  13
HETATM   13  C   UNL     1     -12.030  12.701  66.567  1.00  0.00    -0.401 C  
BRANCH  13  14
HETATM   14  C   UNL     1     -11.662  14.205  66.705  1.00  0.00    -0.403 C  
BRANCH  14  15
HETATM   15  N   UNL     1     -10.252  14.482  67.027  1.00  0.00    -0.260 NA 
HETATM   16  C   UNL     1      -9.888  16.906  68.774  1.00  0.00    -0.269 C  
HETATM   17  C   UNL     1     -10.359  16.950  67.314  1.00  0.00    -0.309 C  
HETATM   18  C   UNL     1      -9.767  15.774  66.543  1.00  0.00    -0.265 C  
HETATM   19  C   UNL     1     -10.238  15.535  69.372  1.00  0.00    -0.262 C  
HETATM   20  C   UNL     1      -9.936  14.328  68.462  1.00  0.00    -0.235 C  
BRANCH  16  21
HETATM   21  C   UNL     1      -8.444  17.345  68.824  1.00  0.00    -0.225 A  
HETATM   22  N   UNL     1      -7.444  16.507  69.126  1.00  0.00    -0.232 NA 
HETATM   23  O   UNL     1      -6.280  17.146  68.720  1.00  0.00    -0.153 OA 
HETATM   24  C   UNL     1      -6.584  18.369  68.208  1.00  0.00    -0.221 A  
HETATM   25  C   UNL     1      -7.945  18.585  68.327  1.00  0.00    -0.325 A  
HETATM   26  C   UNL     1      -8.487  19.801  67.869  1.00  0.00    -0.348 A  
HETATM   27  C   UNL     1      -7.621  20.737  67.291  1.00  0.00    -0.356 A  
HETATM   28  C   UNL     1      -6.262  20.455  67.158  1.00  0.00    -0.202 A  
HETATM   29  C   UNL     1      -5.698  19.266  67.618  1.00  0.00    -0.191 A  
HETATM   30  F   UNL     1      -5.474  21.358  66.558  1.00  0.00    -0.235 F  
ENDBRANCH  16  21
ENDBRANCH  14  15
ENDBRANCH  13  14
ENDBRANCH   3  13
TORSDOF 4
ENDMDL
MODEL       27
REMARK 921   NORMALIZED FREE ENERGY PREDICTED BY IDOCK:   -6.73 KCAL/MOL
REMARK 922        TOTAL FREE ENERGY PREDICTED BY IDOCK:   -9.05 KCAL/MOL
REMARK 923 INTER-LIGAND FREE ENERGY PREDICTED BY IDOCK:   -8.83 KCAL/MOL
REMARK 924 INTRA-LIGAND FREE ENERGY PREDICTED BY IDOCK:   -0.22 KCAL/MOL
REMARK 927      BINDING AFFINITY PREDICTED BY RF-SCORE:    0.00 PKD
ROOT
HETATM    1  C   UNL     1      -8.954  10.737  62.404  1.00  0.00    -0.347 C  
HETATM    2  C   UNL     1      -8.913   9.843  63.617  1.00  0.00    -0.251 C  
HETATM    3  C   UNL     1      -9.695   9.976  64.706  1.00  0.00    -0.363 C  
HETATM    4  C   UNL     1      -6.332   6.244  65.478  1.00  0.00    -0.038 C  
HETATM    5  C   UNL     1      -9.524   8.955  65.775  1.00  0.00    -0.202 C  
HETATM    6  N   UNL     1      -8.606   7.950  65.540  1.00  0.00    -0.142 N  
HETATM    7  O   UNL     1     -10.190   9.024  66.806  1.00  0.00    -0.256 OA 
HETATM    8  C   UNL     1      -6.786   6.912  64.196  1.00  0.00    -0.046 C  
HETATM    9  N   UNL     1      -7.970   8.860  63.477  1.00  0.00    -0.150 NA 
HETATM   10  C   UNL     1      -8.385   7.004  66.626  1.00  0.00    -0.118 C  
HETATM   11  C   UNL     1      -7.555   5.789  66.249  1.00  0.00    -0.091 C  
HETATM   12  C   UNL     1      -7.830   7.986  64.415  1.00  0.00    -0.139 C  
ENDROOT
BRANCH   3  13
HETATM   13  C   UNL     1     -10.786  10.985  64.974  1.00  0.00    -0.264 C  
BRANCH  13  14
HETATM   14  C   UNL     1     -10.320  12.468  64.952  1.00  0.00    -0.300 C  
BRANCH  14  15
HETATM   15  N   UNL     1      -9.879  13.010  66.249  1.00  0.00    -0.275 NA 
HETATM   16  C   UNL     1     -12.152  14.001  67.956  1.00  0.00    -0.312 C  
HETATM   17  C   UNL     1     -11.688  14.667  66.654  1.00  0.00    -0.345 C  
HETATM   18  C   UNL     1     -10.196  14.423  66.449  1.00  0.00    -0.289 C  
HETATM   19  C   UNL     1     -11.767  12.514  67.921  1.00  0.00    -0.416 C  
HETATM   20  C   UNL     1     -10.345  12.217  67.405  1.00  0.00    -0.206 C  
BRANCH  16  21
HETATM   21  C   UNL     1     -11.656  14.826  69.118  1.00  0.00    -0.303 A  
HETATM   22  N   UNL     1     -10.972  15.967  68.955  1.00  0.00    -0.270 NA 
HETATM   23  O   UNL     1     -11.014  16.611  70.184  1.00  0.00    -0.321 OA 
HETATM   24  C   UNL     1     -11.692  15.845  71.081  1.00  0.00    -0.442 A  
HETATM   25  C   UNL     1     -12.052  14.653  70.477  1.00  0.00    -0.388 A  
HETATM   26  C   UNL     1     -12.757  13.693  71.226  1.00  0.00    -0.443 A  
HETATM   27  C   UNL     1     -13.084  13.997  72.554  1.00  0.00    -0.547 A  
HETATM   28  C   UNL     1     -12.732  15.229  73.104  1.00  0.00    -0.474 A  
HETATM   29  C   UNL     1     -12.019  16.190  72.389  1.00  0.00    -0.649 A  
HETATM   30  F   UNL     1     -13.103  15.499  74.364  1.00  0.00    -0.443 F  
ENDBRANCH  16  21
ENDBRANCH  14  15
ENDBRANCH  13  14
ENDBRANCH   3  13
TORSDOF 4
ENDMDL
MODEL       28
REMARK 921   NORMALIZED FREE ENERGY PREDICTED BY IDOCK:   -6.71 KCAL/MOL
REMARK 922        TOTAL FREE ENERGY PREDICTED BY IDOCK:   -9.02 KCAL/MOL
REMARK 923 INTER-LIGAND FREE ENERGY PREDICTED BY IDOCK:   -8.31 KCAL/MOL
REMARK 924 INTRA-LIGAND FREE ENERGY PREDICTED BY IDOCK:   -0.71 KCAL/MOL
REMARK 927      BINDING AFFINITY PREDICTED BY RF-SCORE:    0.00 PKD
ROOT
HETATM    1  C   UNL     1     -12.061  14.281  70.243  1.00  0.00    -0.403 C  
HETATM    2  C   UNL     1     -11.511  14.996  69.036  1.00  0.00    -0.304 C  
HETATM    3  C   UNL     1     -11.448  14.483  67.791  1.00  0.00    -0.362 C  
HETATM    4  C   UNL     1      -9.197  19.041  67.865  1.00  0.00    -0.345 C  
HETATM    5  C   UNL     1     -10.909  15.379  66.731  1.00  0.00    -0.306 C  
HETATM    6  N   UNL     1     -10.555  16.658  67.112  1.00  0.00    -0.299 N  
HETATM    7  O   UNL     1     -10.806  14.972  65.575  1.00  0.00    -0.313 OA 
HETATM    8  C   UNL     1     -10.159  18.400  68.844  1.00  0.00    -0.352 C  
HETATM    9  N   UNL     1     -11.075  16.253  69.361  1.00  0.00    -0.328 NA 
HETATM   10  C   UNL     1      -9.951  17.498  66.086  1.00  0.00    -0.270 C  
HETATM   11  C   UNL     1      -9.794  18.959  66.473  1.00  0.00    -0.405 C  
HETATM   12  C   UNL     1     -10.606  17.015  68.431  1.00  0.00    -0.375 C  
ENDROOT
BRANCH   3  13
HETATM   13  C   UNL     1     -11.917  13.137  67.294  1.00  0.00    -0.389 C  
BRANCH  13  14
HETATM   14  C   UNL     1     -10.942  11.961  67.584  1.00  0.00    -0.235 C  
BRANCH  14  15
HETATM   15  N   UNL     1     -11.574  10.723  68.070  1.00  0.00    -0.509 NA 
HETATM   16  C   UNL     1     -10.424   9.746  70.674  1.00  0.00    -0.358 C  
HETATM   17  C   UNL     1      -9.671   9.744  69.337  1.00  0.00    -0.214 C  
HETATM   18  C   UNL     1     -10.661   9.587  68.186  1.00  0.00    -0.217 C  
HETATM   19  C   UNL     1     -11.507  10.834  70.637  1.00  0.00    -0.314 C  
HETATM   20  C   UNL     1     -12.323  10.902  69.330  1.00  0.00    -0.118 C  
BRANCH  16  21
HETATM   21  C   UNL     1     -10.859   8.333  70.980  1.00  0.00    -0.233 A  
HETATM   22  N   UNL     1     -12.124   7.919  70.833  1.00  0.00    -0.225 NA 
HETATM   23  O   UNL     1     -12.071   6.532  70.845  1.00  0.00    -0.355 OA 
HETATM   24  C   UNL     1     -10.787   6.124  71.029  1.00  0.00    -0.279 A  
HETATM   25  C   UNL     1      -9.980   7.234  71.207  1.00  0.00    -0.191 A  
HETATM   26  C   UNL     1      -8.603   7.049  71.428  1.00  0.00    -0.121 A  
HETATM   27  C   UNL     1      -8.102   5.741  71.437  1.00  0.00    -0.114 A  
HETATM   28  C   UNL     1      -8.950   4.657  71.214  1.00  0.00    -0.127 A  
HETATM   29  C   UNL     1     -10.320   4.813  71.008  1.00  0.00    -0.188 A  
HETATM   30  F   UNL     1      -8.424   3.425  71.185  1.00  0.00    -0.065 F  
ENDBRANCH  16  21
ENDBRANCH  14  15
ENDBRANCH  13  14
ENDBRANCH   3  13
TORSDOF 4
ENDMDL
MODEL       29
REMARK 921   NORMALIZED FREE ENERGY PREDICTED BY IDOCK:   -6.64 KCAL/MOL
REMARK 922        TOTAL FREE ENERGY PREDICTED BY IDOCK:   -8.94 KCAL/MOL
REMARK 923 INTER-LIGAND FREE ENERGY PREDICTED BY IDOCK:   -8.18 KCAL/MOL
REMARK 924 INTRA-LIGAND FREE ENERGY PREDICTED BY IDOCK:   -0.76 KCAL/MOL
REMARK 927      BINDING AFFINITY PREDICTED BY RF-SCORE:    0.00 PKD
ROOT
HETATM    1  C   UNL     1     -11.069  19.425  67.340  1.00  0.00    -0.278 C  
HETATM    2  C   UNL     1      -9.726  18.750  67.230  1.00  0.00    -0.302 C  
HETATM    3  C   UNL     1      -9.386  17.595  67.835  1.00  0.00    -0.268 C  
HETATM    4  C   UNL     1      -5.332  19.517  65.443  1.00  0.00    -0.185 C  
HETATM    5  C   UNL     1      -8.018  17.076  67.554  1.00  0.00    -0.175 C  
HETATM    6  N   UNL     1      -7.239  17.806  66.678  1.00  0.00    -0.202 N  
HETATM    7  O   UNL     1      -7.632  16.038  68.086  1.00  0.00    -0.131 OA 
HETATM    8  C   UNL     1      -6.808  19.822  65.284  1.00  0.00    -0.291 C  
HETATM    9  N   UNL     1      -8.878  19.463  66.425  1.00  0.00    -0.349 NA 
HETATM   10  C   UNL     1      -5.875  17.337  66.476  1.00  0.00    -0.205 C  
HETATM   11  C   UNL     1      -5.132  18.017  65.339  1.00  0.00    -0.186 C  
HETATM   12  C   UNL     1      -7.694  19.003  66.197  1.00  0.00    -0.271 C  
ENDROOT
BRANCH   3  13
HETATM   13  C   UNL     1     -10.226  16.700  68.713  1.00  0.00    -0.288 C  
BRANCH  13  14
HETATM   14  C   UNL     1     -11.203  15.767  67.945  1.00  0.00    -0.313 C  
BRANCH  14  15
HETATM   15  N   UNL     1     -10.672  15.184  66.700  1.00  0.00    -0.306 NA 
HETATM   16  C   UNL     1     -12.010  12.600  65.933  1.00  0.00    -0.497 C  
HETATM   17  C   UNL     1     -11.089  12.774  67.148  1.00  0.00    -0.315 C  
HETATM   18  C   UNL     1     -10.061  13.866  66.867  1.00  0.00    -0.260 C  
HETATM   19  C   UNL     1     -12.633  13.958  65.578  1.00  0.00    -0.560 C  
HETATM   20  C   UNL     1     -11.656  15.152  65.600  1.00  0.00    -0.118 C  
BRANCH  16  21
HETATM   21  C   UNL     1     -11.244  11.875  64.853  1.00  0.00    -0.292 A  
HETATM   22  N   UNL     1     -11.156  12.335  63.597  1.00  0.00    -0.435 NA 
HETATM   23  O   UNL     1     -10.108  11.637  63.013  1.00  0.00    -0.370 OA 
HETATM   24  C   UNL     1      -9.597  10.746  63.904  1.00  0.00    -0.293 A  
HETATM   25  C   UNL     1     -10.340  10.795  65.070  1.00  0.00    -0.357 A  
HETATM   26  C   UNL     1      -9.996   9.942  66.136  1.00  0.00    -0.331 A  
HETATM   27  C   UNL     1      -8.895   9.091  65.976  1.00  0.00    -0.208 A  
HETATM   28  C   UNL     1      -8.155   9.107  64.795  1.00  0.00    -0.140 A  
HETATM   29  C   UNL     1      -8.485   9.930  63.718  1.00  0.00    -0.182 A  
HETATM   30  F   UNL     1      -7.082   8.310  64.698  1.00  0.00    -0.073 F  
ENDBRANCH  16  21
ENDBRANCH  14  15
ENDBRANCH  13  14
ENDBRANCH   3  13
TORSDOF 4
ENDMDL
MODEL       30
REMARK 921   NORMALIZED FREE ENERGY PREDICTED BY IDOCK:   -6.60 KCAL/MOL
REMARK 922        TOTAL FREE ENERGY PREDICTED BY IDOCK:   -8.88 KCAL/MOL
REMARK 923 INTER-LIGAND FREE ENERGY PREDICTED BY IDOCK:   -8.07 KCAL/MOL
REMARK 924 INTRA-LIGAND FREE ENERGY PREDICTED BY IDOCK:   -0.82 KCAL/MOL
REMARK 927      BINDING AFFINITY PREDICTED BY RF-SCORE:    0.00 PKD
ROOT
HETATM    1  C   UNL     1     -12.136  15.611  72.362  1.00  0.00    -0.557 C  
HETATM    2  C   UNL     1     -11.839  15.435  70.895  1.00  0.00    -0.356 C  
HETATM    3  C   UNL     1     -12.267  14.408  70.134  1.00  0.00    -0.401 C  
HETATM    4  C   UNL     1      -9.190  17.386  67.393  1.00  0.00    -0.236 C  
HETATM    5  C   UNL     1     -11.898  14.453  68.692  1.00  0.00    -0.331 C  
HETATM    6  N   UNL     1     -11.184  15.553  68.261  1.00  0.00    -0.328 N  
HETATM    7  O   UNL     1     -12.238  13.540  67.941  1.00  0.00    -0.305 OA 
HETATM    8  C   UNL     1      -9.923  17.655  68.692  1.00  0.00    -0.367 C  
HETATM    9  N   UNL     1     -11.071  16.464  70.418  1.00  0.00    -0.322 NA 
HETATM   10  C   UNL     1     -10.756  15.546  66.869  1.00  0.00    -0.317 C  
HETATM   11  C   UNL     1     -10.184  16.864  66.374  1.00  0.00    -0.326 C  
HETATM   12  C   UNL     1     -10.756  16.484  69.167  1.00  0.00    -0.335 C  
ENDROOT
BRANCH   3  13
HETATM   13  C   UNL     1     -13.137  13.238  70.521  1.00  0.00     0.194 C  
BRANCH  13  14
HETATM   14  C   UNL     1     -12.380  12.058  71.193  1.00  0.00    -0.177 C  
BRANCH  14  15
HETATM   15  N   UNL     1     -12.634  10.730  70.609  1.00  0.00    -0.350 NA 
HETATM   16  C   UNL     1     -10.285   8.863  70.838  1.00  0.00    -0.304 C  
HETATM   17  C   UNL     1     -10.320  10.109  69.943  1.00  0.00    -0.308 C  
HETATM   18  C   UNL     1     -11.751  10.385  69.495  1.00  0.00    -0.188 C  
HETATM   19  C   UNL     1     -11.271   9.052  72.000  1.00  0.00    -0.379 C  
HETATM   20  C   UNL     1     -12.641   9.641  71.606  1.00  0.00    -0.402 C  
BRANCH  16  21
HETATM   21  C   UNL     1     -10.455   7.643  69.965  1.00  0.00    -0.229 A  
HETATM   22  N   UNL     1     -11.506   6.819  70.072  1.00  0.00    -0.344 NA 
HETATM   23  O   UNL     1     -11.513   6.062  68.908  1.00  0.00    -0.221 OA 
HETATM   24  C   UNL     1     -10.455   6.412  68.128  1.00  0.00    -0.218 A  
HETATM   25  C   UNL     1      -9.696   7.359  68.792  1.00  0.00    -0.149 A  
HETATM   26  C   UNL     1      -8.536   7.861  68.173  1.00  0.00    -0.123 A  
HETATM   27  C   UNL     1      -8.210   7.393  66.894  1.00  0.00    -0.121 A  
HETATM   28  C   UNL     1      -9.030   6.466  66.251  1.00  0.00    -0.156 A  
HETATM   29  C   UNL     1     -10.175   5.941  66.848  1.00  0.00    -0.262 A  
HETATM   30  F   UNL     1      -8.709   6.077  65.009  1.00  0.00    -0.148 F  
ENDBRANCH  16  21
ENDBRANCH  14  15
ENDBRANCH  13  14
ENDBRANCH   3  13
TORSDOF 4
ENDMDL
MODEL       31
REMARK 921   NORMALIZED FREE ENERGY PREDICTED BY IDOCK:   -6.59 KCAL/MOL
REMARK 922        TOTAL FREE ENERGY PREDICTED BY IDOCK:   -8.87 KCAL/MOL
REMARK 923 INTER-LIGAND FREE ENERGY PREDICTED BY IDOCK:   -8.56 KCAL/MOL
REMARK 924 INTRA-LIGAND FREE ENERGY PREDICTED BY IDOCK:   -0.31 KCAL/MOL
REMARK 927      BINDING AFFINITY PREDICTED BY RF-SCORE:    0.00 PKD
ROOT
HETATM    1  C   UNL     1      -9.011  15.630  69.455  1.00  0.00    -0.265 C  
HETATM    2  C   UNL     1      -8.743  16.908  68.703  1.00  0.00    -0.267 C  
HETATM    3  C   UNL     1      -9.603  17.505  67.854  1.00  0.00    -0.277 C  
HETATM    4  C   UNL     1      -5.183  20.016  67.837  1.00  0.00    -0.191 C  
HETATM    5  C   UNL     1      -9.155  18.791  67.251  1.00  0.00    -0.277 C  
HETATM    6  N   UNL     1      -7.920  19.269  67.640  1.00  0.00    -0.273 N  
HETATM    7  O   UNL     1      -9.880  19.382  66.453  1.00  0.00    -0.345 OA 
HETATM    8  C   UNL     1      -5.748  19.021  68.830  1.00  0.00    -0.221 C  
HETATM    9  N   UNL     1      -7.499  17.402  68.993  1.00  0.00    -0.225 NA 
HETATM   10  C   UNL     1      -7.455  20.482  66.982  1.00  0.00    -0.312 C  
HETATM   11  C   UNL     1      -6.213  21.103  67.598  1.00  0.00    -0.426 C  
HETATM   12  C   UNL     1      -7.124  18.514  68.458  1.00  0.00    -0.277 C  
ENDROOT
BRANCH   3  13
HETATM   13  C   UNL     1     -11.003  17.089  67.473  1.00  0.00    -0.119 C  
BRANCH  13  14
HETATM   14  C   UNL     1     -11.212  15.555  67.338  1.00  0.00    -0.248 C  
BRANCH  14  15
HETATM   15  N   UNL     1     -10.665  14.949  66.111  1.00  0.00    -0.308 NA 
HETATM   16  C   UNL     1     -11.659  12.151  65.623  1.00  0.00    -0.409 C  
HETATM   17  C   UNL     1     -10.713  12.550  66.763  1.00  0.00    -0.261 C  
HETATM   18  C   UNL     1      -9.866  13.746  66.339  1.00  0.00    -0.298 C  
HETATM   19  C   UNL     1     -12.485  13.377  65.204  1.00  0.00    -0.509 C  
HETATM   20  C   UNL     1     -11.687  14.691  65.078  1.00  0.00    -0.385 C  
BRANCH  16  21
HETATM   21  C   UNL     1     -10.852  11.452  64.556  1.00  0.00    -0.309 A  
HETATM   22  N   UNL     1     -10.636  11.987  63.346  1.00  0.00    -0.442 NA 
HETATM   23  O   UNL     1      -9.587  11.262  62.796  1.00  0.00    -0.342 OA 
HETATM   24  C   UNL     1      -9.203  10.283  63.659  1.00  0.00    -0.280 A  
HETATM   25  C   UNL     1     -10.034  10.303  64.765  1.00  0.00    -0.392 A  
HETATM   26  C   UNL     1      -9.828   9.362  65.791  1.00  0.00    -0.345 A  
HETATM   27  C   UNL     1      -8.770   8.454  65.656  1.00  0.00    -0.204 A  
HETATM   28  C   UNL     1      -7.936   8.501  64.539  1.00  0.00    -0.145 A  
HETATM   29  C   UNL     1      -8.129   9.412  63.502  1.00  0.00    -0.157 A  
HETATM   30  F   UNL     1      -6.908   7.645  64.469  1.00  0.00    -0.051 F  
ENDBRANCH  16  21
ENDBRANCH  14  15
ENDBRANCH  13  14
ENDBRANCH   3  13
TORSDOF 4
ENDMDL
MODEL       32
REMARK 921   NORMALIZED FREE ENERGY PREDICTED BY IDOCK:   -6.55 KCAL/MOL
REMARK 922        TOTAL FREE ENERGY PREDICTED BY IDOCK:   -8.82 KCAL/MOL
REMARK 923 INTER-LIGAND FREE ENERGY PREDICTED BY IDOCK:   -8.16 KCAL/MOL
REMARK 924 INTRA-LIGAND FREE ENERGY PREDICTED BY IDOCK:   -0.66 KCAL/MOL
REMARK 927      BINDING AFFINITY PREDICTED BY RF-SCORE:    0.00 PKD
ROOT
HETATM    1  C   UNL     1     -10.527  13.190  67.210  1.00  0.00    -0.243 C  
HETATM    2  C   UNL     1     -11.287  12.979  68.494  1.00  0.00    -0.288 C  
HETATM    3  C   UNL     1     -11.538  11.782  69.060  1.00  0.00    -0.372 C  
HETATM    4  C   UNL     1     -13.877  15.435  71.711  1.00  0.00    -0.620 C  
HETATM    5  C   UNL     1     -12.269  11.801  70.358  1.00  0.00    -0.330 C  
HETATM    6  N   UNL     1     -12.592  13.039  70.876  1.00  0.00    -0.323 N  
HETATM    7  O   UNL     1     -12.548  10.745  70.922  1.00  0.00    -0.341 OA 
HETATM    8  C   UNL     1     -12.749  15.517  70.702  1.00  0.00    -0.487 C  
HETATM    9  N   UNL     1     -11.700  14.171  69.028  1.00  0.00    -0.302 NA 
HETATM   10  C   UNL     1     -13.380  13.045  72.101  1.00  0.00    -0.524 C  
HETATM   11  C   UNL     1     -13.513  14.406  72.763  1.00  0.00    -0.582 C  
HETATM   12  C   UNL     1     -12.337  14.169  70.150  1.00  0.00    -0.351 C  
ENDROOT
BRANCH   3  13
HETATM   13  C   UNL     1     -11.118  10.407  68.599  1.00  0.00    -0.313 C  
BRANCH  13  14
HETATM   14  C   UNL     1      -9.711   9.959  69.087  1.00  0.00    -0.198 C  
BRANCH  14  15
HETATM   15  N   UNL     1      -9.579   8.526  69.400  1.00  0.00    -0.169 NA 
HETATM   16  C   UNL     1      -9.191   7.982  72.334  1.00  0.00    -0.264 C  
HETATM   17  C   UNL     1      -8.154   8.665  71.433  1.00  0.00    -0.192 C  
HETATM   18  C   UNL     1      -8.298   8.158  70.001  1.00  0.00    -0.122 C  
HETATM   19  C   UNL     1     -10.591   8.198  71.739  1.00  0.00    -0.313 C  
HETATM   20  C   UNL     1     -10.692   7.997  70.213  1.00  0.00    -0.239 C  
BRANCH  16  21
HETATM   21  C   UNL     1      -8.746   6.561  72.583  1.00  0.00    -0.124 A  
HETATM   22  N   UNL     1      -7.464   6.231  72.789  1.00  0.00    -0.095 NA 
HETATM   23  O   UNL     1      -7.487   4.954  73.334  1.00  0.00    -0.085 OA 
HETATM   24  C   UNL     1      -8.771   4.515  73.422  1.00  0.00    -0.100 A  
HETATM   25  C   UNL     1      -9.613   5.469  72.878  1.00  0.00    -0.159 A  
HETATM   26  C   UNL     1     -10.998   5.220  72.851  1.00  0.00    -0.343 A  
HETATM   27  C   UNL     1     -11.469   4.021  73.399  1.00  0.00    -0.208 A  
HETATM   28  C   UNL     1     -10.582   3.110  73.972  1.00  0.00    -0.190 A  
HETATM   29  C   UNL     1      -9.205   3.324  73.996  1.00  0.00    -0.100 A  
HETATM   30  F   UNL     1     -11.076   1.994  74.527  1.00  0.00    -0.178 F  
ENDBRANCH  16  21
ENDBRANCH  14  15
ENDBRANCH  13  14
ENDBRANCH   3  13
TORSDOF 4
ENDMDL
MODEL       33
REMARK 921   NORMALIZED FREE ENERGY PREDICTED BY IDOCK:   -6.51 KCAL/MOL
REMARK 922        TOTAL FREE ENERGY PREDICTED BY IDOCK:   -8.78 KCAL/MOL
REMARK 923 INTER-LIGAND FREE ENERGY PREDICTED BY IDOCK:   -8.20 KCAL/MOL
REMARK 924 INTRA-LIGAND FREE ENERGY PREDICTED BY IDOCK:   -0.57 KCAL/MOL
REMARK 927      BINDING AFFINITY PREDICTED BY RF-SCORE:    0.00 PKD
ROOT
HETATM    1  C   UNL     1     -12.209  15.473  72.479  1.00  0.00    -0.512 C  
HETATM    2  C   UNL     1     -11.921  15.268  71.014  1.00  0.00    -0.343 C  
HETATM    3  C   UNL     1     -12.313  14.204  70.287  1.00  0.00    -0.421 C  
HETATM    4  C   UNL     1      -9.392  17.228  67.430  1.00  0.00    -0.236 C  
HETATM    5  C   UNL     1     -11.962  14.222  68.840  1.00  0.00    -0.320 C  
HETATM    6  N   UNL     1     -11.298  15.339  68.371  1.00  0.00    -0.313 N  
HETATM    7  O   UNL     1     -12.271  13.276  68.119  1.00  0.00    -0.266 OA 
HETATM    8  C   UNL     1     -10.122  17.503  68.729  1.00  0.00    -0.363 C  
HETATM    9  N   UNL     1     -11.202  16.314  70.500  1.00  0.00    -0.368 NA 
HETATM   10  C   UNL     1     -10.885  15.311  66.975  1.00  0.00    -0.321 C  
HETATM   11  C   UNL     1     -10.374  16.637  66.437  1.00  0.00    -0.310 C  
HETATM   12  C   UNL     1     -10.900  16.312  69.246  1.00  0.00    -0.318 C  
ENDROOT
BRANCH   3  13
HETATM   13  C   UNL     1     -13.130  13.009  70.717  1.00  0.00     0.082 C  
BRANCH  13  14
HETATM   14  C   UNL     1     -12.301  11.830  71.298  1.00  0.00    -0.145 C  
BRANCH  14  15
HETATM   15  N   UNL     1     -12.405  10.560  70.558  1.00  0.00    -0.322 NA 
HETATM   16  C   UNL     1     -11.542   8.171  72.171  1.00  0.00    -0.417 C  
HETATM   17  C   UNL     1     -10.594   9.269  71.671  1.00  0.00    -0.360 C  
HETATM   18  C   UNL     1     -11.131   9.866  70.374  1.00  0.00    -0.319 C  
HETATM   19  C   UNL     1     -12.959   8.750  72.296  1.00  0.00    -0.462 C  
HETATM   20  C   UNL     1     -13.411   9.635  71.117  1.00  0.00    -0.276 C  
BRANCH  16  21
HETATM   21  C   UNL     1     -11.358   6.949  71.303  1.00  0.00    -0.279 A  
HETATM   22  N   UNL     1     -12.079   6.736  70.194  1.00  0.00    -0.207 NA 
HETATM   23  O   UNL     1     -11.401   5.752  69.487  1.00  0.00    -0.261 OA 
HETATM   24  C   UNL     1     -10.301   5.360  70.185  1.00  0.00    -0.290 A  
HETATM   25  C   UNL     1     -10.270   6.033  71.394  1.00  0.00    -0.253 A  
HETATM   26  C   UNL     1      -9.218   5.774  72.292  1.00  0.00    -0.151 A  
HETATM   27  C   UNL     1      -8.230   4.857  71.912  1.00  0.00    -0.115 A  
HETATM   28  C   UNL     1      -8.286   4.235  70.665  1.00  0.00    -0.070 A  
HETATM   29  C   UNL     1      -9.326   4.461  69.764  1.00  0.00    -0.224 A  
HETATM   30  F   UNL     1      -7.298   3.398  70.319  1.00  0.00    -0.040 F  
ENDBRANCH  16  21
ENDBRANCH  14  15
ENDBRANCH  13  14
ENDBRANCH   3  13
TORSDOF 4
ENDMDL
MODEL       34
REMARK 921   NORMALIZED FREE ENERGY PREDICTED BY IDOCK:   -6.51 KCAL/MOL
REMARK 922        TOTAL FREE ENERGY PREDICTED BY IDOCK:   -8.77 KCAL/MOL
REMARK 923 INTER-LIGAND FREE ENERGY PREDICTED BY IDOCK:   -8.22 KCAL/MOL
REMARK 924 INTRA-LIGAND FREE ENERGY PREDICTED BY IDOCK:   -0.55 KCAL/MOL
REMARK 927      BINDING AFFINITY PREDICTED BY RF-SCORE:    0.00 PKD
ROOT
HETATM    1  C   UNL     1      -7.458   9.421  66.552  1.00  0.00    -0.093 C  
HETATM    2  C   UNL     1      -8.360   8.214  66.523  1.00  0.00    -0.113 C  
HETATM    3  C   UNL     1      -9.477   8.061  67.261  1.00  0.00    -0.196 C  
HETATM    4  C   UNL     1      -8.564   3.789  64.661  1.00  0.00    -0.105 C  
HETATM    5  C   UNL     1     -10.249   6.806  67.045  1.00  0.00    -0.237 C  
HETATM    6  N   UNL     1      -9.770   5.933  66.089  1.00  0.00    -0.099 N  
HETATM    7  O   UNL     1     -11.269   6.591  67.697  1.00  0.00    -0.324 OA 
HETATM    8  C   UNL     1      -8.033   5.195  64.466  1.00  0.00    -0.106 C  
HETATM    9  N   UNL     1      -7.900   7.273  65.640  1.00  0.00    -0.105 NA 
HETATM   10  C   UNL     1     -10.484   4.671  65.945  1.00  0.00    -0.268 C  
HETATM   11  C   UNL     1     -10.077   3.847  64.735  1.00  0.00    -0.203 C  
HETATM   12  C   UNL     1      -8.578   6.189  65.469  1.00  0.00    -0.130 C  
ENDROOT
BRANCH   3  13
HETATM   13  C   UNL     1     -10.107   9.023  68.239  1.00  0.00    -0.223 C  
BRANCH  13  14
HETATM   14  C   UNL     1     -10.947  10.157  67.586  1.00  0.00    -0.268 C  
BRANCH  14  15
HETATM   15  N   UNL     1     -10.214  11.404  67.309  1.00  0.00    -0.195 NA 
HETATM   16  C   UNL     1     -12.020  13.724  66.663  1.00  0.00    -0.469 C  
HETATM   17  C   UNL     1     -11.817  12.503  65.757  1.00  0.00    -0.494 C  
HETATM   18  C   UNL     1     -10.416  11.933  65.961  1.00  0.00    -0.245 C  
HETATM   19  C   UNL     1     -11.720  13.324  68.116  1.00  0.00    -0.397 C  
HETATM   20  C   UNL     1     -10.457  12.462  68.311  1.00  0.00    -0.225 C  
BRANCH  16  21
HETATM   21  C   UNL     1     -11.250  14.884  66.082  1.00  0.00    -0.325 A  
HETATM   22  N   UNL     1     -11.119  15.076  64.762  1.00  0.00    -0.390 NA 
HETATM   23  O   UNL     1     -10.690  16.388  64.612  1.00  0.00    -0.693 OA 
HETATM   24  C   UNL     1     -10.537  16.963  65.836  1.00  0.00    -0.233 A  
HETATM   25  C   UNL     1     -10.799  16.021  66.815  1.00  0.00    -0.195 A  
HETATM   26  C   UNL     1     -10.690  16.394  68.167  1.00  0.00    -0.336 A  
HETATM   27  C   UNL     1     -10.339  17.716  68.466  1.00  0.00    -0.370 A  
HETATM   28  C   UNL     1     -10.123  18.638  67.442  1.00  0.00    -0.362 A  
HETATM   29  C   UNL     1     -10.209  18.291  66.095  1.00  0.00    -0.393 A  
HETATM   30  F   UNL     1      -9.833  19.905  67.769  1.00  0.00    -0.426 F  
ENDBRANCH  16  21
ENDBRANCH  14  15
ENDBRANCH  13  14
ENDBRANCH   3  13
TORSDOF 4
ENDMDL
MODEL       35
REMARK 921   NORMALIZED FREE ENERGY PREDICTED BY IDOCK:   -6.50 KCAL/MOL
REMARK 922        TOTAL FREE ENERGY PREDICTED BY IDOCK:   -8.76 KCAL/MOL
REMARK 923 INTER-LIGAND FREE ENERGY PREDICTED BY IDOCK:   -8.16 KCAL/MOL
REMARK 924 INTRA-LIGAND FREE ENERGY PREDICTED BY IDOCK:   -0.60 KCAL/MOL
REMARK 927      BINDING AFFINITY PREDICTED BY RF-SCORE:    0.00 PKD
ROOT
HETATM    1  C   UNL     1      -8.314  10.228  66.122  1.00  0.00    -0.140 C  
HETATM    2  C   UNL     1      -9.282  10.221  67.276  1.00  0.00    -0.141 C  
HETATM    3  C   UNL     1     -10.484  10.832  67.285  1.00  0.00    -0.282 C  
HETATM    4  C   UNL     1      -9.559   8.837  71.869  1.00  0.00    -0.372 C  
HETATM    5  C   UNL     1     -11.306  10.661  68.515  1.00  0.00    -0.284 C  
HETATM    6  N   UNL     1     -10.778   9.869  69.516  1.00  0.00    -0.228 N  
HETATM    7  O   UNL     1     -12.405  11.205  68.602  1.00  0.00    -0.549 OA 
HETATM    8  C   UNL     1      -8.920   8.556  70.524  1.00  0.00    -0.171 C  
HETATM    9  N   UNL     1      -8.787   9.507  68.334  1.00  0.00    -0.124 NA 
HETATM   10  C   UNL     1     -11.551   9.777  70.747  1.00  0.00    -0.339 C  
HETATM   11  C   UNL     1     -11.064   8.721  71.725  1.00  0.00    -0.417 C  
HETATM   12  C   UNL     1      -9.510   9.373  69.395  1.00  0.00    -0.173 C  
ENDROOT
BRANCH   3  13
HETATM   13  C   UNL     1     -11.158  11.617  66.187  1.00  0.00    -0.335 C  
BRANCH  13  14
HETATM   14  C   UNL     1     -11.357  13.128  66.496  1.00  0.00    -0.315 C  
BRANCH  14  15
HETATM   15  N   UNL     1     -10.282  13.758  67.281  1.00  0.00    -0.251 NA 
HETATM   16  C   UNL     1     -10.556  16.749  67.481  1.00  0.00    -0.309 C  
HETATM   17  C   UNL     1     -10.214  15.992  66.191  1.00  0.00    -0.340 C  
HETATM   18  C   UNL     1      -9.464  14.707  66.527  1.00  0.00    -0.297 C  
HETATM   19  C   UNL     1     -11.326  15.811  68.423  1.00  0.00    -0.372 C  
HETATM   20  C   UNL     1     -10.758  14.382  68.532  1.00  0.00    -0.253 C  
BRANCH  16  21
HETATM   21  C   UNL     1      -9.294  17.389  68.008  1.00  0.00    -0.276 A  
HETATM   22  N   UNL     1      -8.599  16.880  69.034  1.00  0.00    -0.203 NA 
HETATM   23  O   UNL     1      -7.356  17.497  68.990  1.00  0.00    -0.250 OA 
HETATM   24  C   UNL     1      -7.323  18.390  67.964  1.00  0.00    -0.247 A  
HETATM   25  C   UNL     1      -8.564  18.425  67.354  1.00  0.00    -0.261 A  
HETATM   26  C   UNL     1      -8.766  19.295  66.266  1.00  0.00    -0.333 A  
HETATM   27  C   UNL     1      -7.688  20.077  65.833  1.00  0.00    -0.298 A  
HETATM   28  C   UNL     1      -6.446  19.976  66.457  1.00  0.00    -0.198 A  
HETATM   29  C   UNL     1      -6.224  19.134  67.546  1.00  0.00    -0.205 A  
HETATM   30  F   UNL     1      -5.427  20.707  65.983  1.00  0.00    -0.192 F  
ENDBRANCH  16  21
ENDBRANCH  14  15
ENDBRANCH  13  14
ENDBRANCH   3  13
TORSDOF 4
ENDMDL
MODEL       36
REMARK 921   NORMALIZED FREE ENERGY PREDICTED BY IDOCK:   -6.50 KCAL/MOL
REMARK 922        TOTAL FREE ENERGY PREDICTED BY IDOCK:   -8.75 KCAL/MOL
REMARK 923 INTER-LIGAND FREE ENERGY PREDICTED BY IDOCK:   -8.29 KCAL/MOL
REMARK 924 INTRA-LIGAND FREE ENERGY PREDICTED BY IDOCK:   -0.47 KCAL/MOL
REMARK 927      BINDING AFFINITY PREDICTED BY RF-SCORE:    0.00 PKD
ROOT
HETATM    1  C   UNL     1     -11.418   6.406  69.355  1.00  0.00    -0.374 C  
HETATM    2  C   UNL     1     -10.517   6.545  68.156  1.00  0.00    -0.217 C  
HETATM    3  C   UNL     1      -9.843   7.661  67.815  1.00  0.00    -0.196 C  
HETATM    4  C   UNL     1      -9.182   4.120  64.229  1.00  0.00    -0.150 C  
HETATM    5  C   UNL     1      -8.969   7.569  66.613  1.00  0.00    -0.153 C  
HETATM    6  N   UNL     1      -8.903   6.344  65.980  1.00  0.00    -0.157 N  
HETATM    7  O   UNL     1      -8.339   8.553  66.233  1.00  0.00    -0.108 OA 
HETATM    8  C   UNL     1      -9.666   3.997  65.659  1.00  0.00    -0.192 C  
HETATM    9  N   UNL     1     -10.461   5.379  67.440  1.00  0.00    -0.210 NA 
HETATM   10  C   UNL     1      -8.113   6.286  64.758  1.00  0.00    -0.127 C  
HETATM   11  C   UNL     1      -7.872   4.884  64.224  1.00  0.00    -0.088 C  
HETATM   12  C   UNL     1      -9.703   5.317  66.398  1.00  0.00    -0.169 C  
ENDROOT
BRANCH   3  13
HETATM   13  C   UNL     1      -9.790   8.992  68.526  1.00  0.00    -0.184 C  
BRANCH  13  14
HETATM   14  C   UNL     1     -10.721  10.085  67.929  1.00  0.00    -0.272 C  
BRANCH  14  15
HETATM   15  N   UNL     1     -10.070  11.373  67.629  1.00  0.00    -0.178 NA 
HETATM   16  C   UNL     1     -12.003  13.501  66.740  1.00  0.00    -0.453 C  
HETATM   17  C   UNL     1     -11.644  12.256  65.918  1.00  0.00    -0.450 C  
HETATM   18  C   UNL     1     -10.220  11.814  66.243  1.00  0.00    -0.221 C  
HETATM   19  C   UNL     1     -11.772  13.203  68.229  1.00  0.00    -0.384 C  
HETATM   20  C   UNL     1     -10.462  12.457  68.552  1.00  0.00    -0.228 C  
BRANCH  16  21
HETATM   21  C   UNL     1     -11.287  14.689  66.144  1.00  0.00    -0.350 A  
HETATM   22  N   UNL     1     -11.196  14.889  64.822  1.00  0.00    -0.394 NA 
HETATM   23  O   UNL     1     -10.816  16.216  64.667  1.00  0.00    -0.650 OA 
HETATM   24  C   UNL     1     -10.653  16.792  65.888  1.00  0.00    -0.248 A  
HETATM   25  C   UNL     1     -10.858  15.839  66.870  1.00  0.00    -0.265 A  
HETATM   26  C   UNL     1     -10.729  16.211  68.221  1.00  0.00    -0.307 A  
HETATM   27  C   UNL     1     -10.416  17.544  68.515  1.00  0.00    -0.361 A  
HETATM   28  C   UNL     1     -10.257  18.476  67.490  1.00  0.00    -0.385 A  
HETATM   29  C   UNL     1     -10.364  18.129  66.144  1.00  0.00    -0.394 A  
HETATM   30  F   UNL     1     -10.003  19.751  67.814  1.00  0.00    -0.419 F  
ENDBRANCH  16  21
ENDBRANCH  14  15
ENDBRANCH  13  14
ENDBRANCH   3  13
TORSDOF 4
ENDMDL
MODEL       37
REMARK 921   NORMALIZED FREE ENERGY PREDICTED BY IDOCK:   -6.49 KCAL/MOL
REMARK 922        TOTAL FREE ENERGY PREDICTED BY IDOCK:   -8.75 KCAL/MOL
REMARK 923 INTER-LIGAND FREE ENERGY PREDICTED BY IDOCK:   -7.99 KCAL/MOL
REMARK 924 INTRA-LIGAND FREE ENERGY PREDICTED BY IDOCK:   -0.76 KCAL/MOL
REMARK 927      BINDING AFFINITY PREDICTED BY RF-SCORE:    0.00 PKD
ROOT
HETATM    1  C   UNL     1     -10.596  19.800  65.742  1.00  0.00    -0.522 C  
HETATM    2  C   UNL     1      -9.584  19.297  66.738  1.00  0.00    -0.334 C  
HETATM    3  C   UNL     1      -9.661  18.125  67.399  1.00  0.00    -0.275 C  
HETATM    4  C   UNL     1      -5.639  20.752  69.063  1.00  0.00    -0.405 C  
HETATM    5  C   UNL     1      -8.526  17.799  68.307  1.00  0.00    -0.277 C  
HETATM    6  N   UNL     1      -7.487  18.707  68.362  1.00  0.00    -0.287 N  
HETATM    7  O   UNL     1      -8.537  16.756  68.956  1.00  0.00    -0.232 OA 
HETATM    8  C   UNL     1      -6.464  20.906  67.802  1.00  0.00    -0.400 C  
HETATM    9  N   UNL     1      -8.555  20.188  66.892  1.00  0.00    -0.329 NA 
HETATM   10  C   UNL     1      -6.423  18.421  69.314  1.00  0.00    -0.257 C  
HETATM   11  C   UNL     1      -5.196  19.306  69.180  1.00  0.00    -0.208 C  
HETATM   12  C   UNL     1      -7.582  19.893  67.687  1.00  0.00    -0.289 C  
ENDROOT
BRANCH   3  13
HETATM   13  C   UNL     1     -10.712  17.047  67.300  1.00  0.00    -0.206 C  
BRANCH  13  14
HETATM   14  C   UNL     1     -10.523  16.062  66.112  1.00  0.00    -0.326 C  
BRANCH  14  15
HETATM   15  N   UNL     1     -11.168  14.747  66.273  1.00  0.00    -0.342 NA 
HETATM   16  C   UNL     1      -9.652  12.898  68.101  1.00  0.00    -0.223 C  
HETATM   17  C   UNL     1      -9.164  13.343  66.716  1.00  0.00    -0.242 C  
HETATM   18  C   UNL     1     -10.360  13.620  65.810  1.00  0.00    -0.298 C  
HETATM   19  C   UNL     1     -10.616  13.957  68.657  1.00  0.00    -0.265 C  
HETATM   20  C   UNL     1     -11.650  14.495  67.646  1.00  0.00    -0.378 C  
BRANCH  16  21
HETATM   21  C   UNL     1     -10.153  11.478  67.998  1.00  0.00    -0.186 A  
HETATM   22  N   UNL     1     -11.457  11.174  67.944  1.00  0.00    -0.456 NA 
HETATM   23  O   UNL     1     -11.521   9.863  67.491  1.00  0.00    -0.071 OA 
HETATM   24  C   UNL     1     -10.263   9.380  67.307  1.00  0.00    -0.246 A  
HETATM   25  C   UNL     1      -9.347  10.342  67.697  1.00  0.00    -0.158 A  
HETATM   26  C   UNL     1      -7.973  10.053  67.604  1.00  0.00    -0.105 A  
HETATM   27  C   UNL     1      -7.589   8.805  67.098  1.00  0.00    -0.088 A  
HETATM   28  C   UNL     1      -8.551   7.885  66.681  1.00  0.00    -0.135 A  
HETATM   29  C   UNL     1      -9.918   8.140  66.778  1.00  0.00    -0.349 A  
HETATM   30  F   UNL     1      -8.142   6.720  66.160  1.00  0.00    -0.098 F  
ENDBRANCH  16  21
ENDBRANCH  14  15
ENDBRANCH  13  14
ENDBRANCH   3  13
TORSDOF 4
ENDMDL
MODEL       38
REMARK 921   NORMALIZED FREE ENERGY PREDICTED BY IDOCK:   -6.49 KCAL/MOL
REMARK 922        TOTAL FREE ENERGY PREDICTED BY IDOCK:   -8.75 KCAL/MOL
REMARK 923 INTER-LIGAND FREE ENERGY PREDICTED BY IDOCK:   -8.08 KCAL/MOL
REMARK 924 INTRA-LIGAND FREE ENERGY PREDICTED BY IDOCK:   -0.66 KCAL/MOL
REMARK 927      BINDING AFFINITY PREDICTED BY RF-SCORE:    0.00 PKD
ROOT
HETATM    1  C   UNL     1      -9.943  13.041  65.706  1.00  0.00    -0.260 C  
HETATM    2  C   UNL     1     -10.167  14.293  66.514  1.00  0.00    -0.276 C  
HETATM    3  C   UNL     1     -11.105  14.443  67.470  1.00  0.00    -0.312 C  
HETATM    4  C   UNL     1      -8.700  18.862  66.745  1.00  0.00    -0.307 C  
HETATM    5  C   UNL     1     -11.125  15.750  68.182  1.00  0.00    -0.341 C  
HETATM    6  N   UNL     1     -10.164  16.674  67.821  1.00  0.00    -0.282 N  
HETATM    7  O   UNL     1     -11.965  15.965  69.053  1.00  0.00    -0.378 OA 
HETATM    8  C   UNL     1      -8.310  17.451  66.354  1.00  0.00    -0.302 C  
HETATM    9  N   UNL     1      -9.286  15.278  66.156  1.00  0.00    -0.311 NA 
HETATM   10  C   UNL     1     -10.244  17.979  68.462  1.00  0.00    -0.385 C  
HETATM   11  C   UNL     1      -9.044  18.879  68.221  1.00  0.00    -0.363 C  
HETATM   12  C   UNL     1      -9.320  16.408  66.778  1.00  0.00    -0.245 C  
ENDROOT
BRANCH   3  13
HETATM   13  C   UNL     1     -12.109  13.438  67.981  1.00  0.00    -0.283 C  
BRANCH  13  14
HETATM   14  C   UNL     1     -11.582  12.510  69.112  1.00  0.00    -0.320 C  
BRANCH  14  15
HETATM   15  N   UNL     1     -11.991  11.098  69.011  1.00  0.00    -0.419 NA 
HETATM   16  C   UNL     1      -9.804   9.173  69.766  1.00  0.00    -0.192 C  
HETATM   17  C   UNL     1      -9.790  10.053  68.510  1.00  0.00    -0.168 C  
HETATM   18  C   UNL     1     -11.220  10.316  68.046  1.00  0.00    -0.235 C  
HETATM   19  C   UNL     1     -10.689   9.835  70.833  1.00  0.00    -0.375 C  
HETATM   20  C   UNL     1     -12.025  10.403  70.314  1.00  0.00    -0.302 C  
BRANCH  16  21
HETATM   21  C   UNL     1     -10.140   7.759  69.355  1.00  0.00    -0.195 A  
HETATM   22  N   UNL     1     -11.098   7.041  69.956  1.00  0.00    -0.275 NA 
HETATM   23  O   UNL     1     -11.365   5.980  69.101  1.00  0.00    -0.364 OA 
HETATM   24  C   UNL     1     -10.551   6.050  68.014  1.00  0.00    -0.262 A  
HETATM   25  C   UNL     1      -9.687   7.121  68.164  1.00  0.00    -0.147 A  
HETATM   26  C   UNL     1      -8.740   7.379  67.156  1.00  0.00    -0.121 A  
HETATM   27  C   UNL     1      -8.726   6.549  66.029  1.00  0.00    -0.155 A  
HETATM   28  C   UNL     1      -9.643   5.507  65.907  1.00  0.00    -0.063 A  
HETATM   29  C   UNL     1     -10.581   5.219  66.898  1.00  0.00    -0.283 A  
HETATM   30  F   UNL     1      -9.628   4.763  64.792  1.00  0.00    -0.160 F  
ENDBRANCH  16  21
ENDBRANCH  14  15
ENDBRANCH  13  14
ENDBRANCH   3  13
TORSDOF 4
ENDMDL
MODEL       39
REMARK 921   NORMALIZED FREE ENERGY PREDICTED BY IDOCK:   -6.49 KCAL/MOL
REMARK 922        TOTAL FREE ENERGY PREDICTED BY IDOCK:   -8.74 KCAL/MOL
REMARK 923 INTER-LIGAND FREE ENERGY PREDICTED BY IDOCK:   -8.34 KCAL/MOL
REMARK 924 INTRA-LIGAND FREE ENERGY PREDICTED BY IDOCK:   -0.40 KCAL/MOL
REMARK 927      BINDING AFFINITY PREDICTED BY RF-SCORE:    0.00 PKD
ROOT
HETATM    1  C   UNL     1      -9.335  16.603  68.595  1.00  0.00    -0.247 C  
HETATM    2  C   UNL     1     -10.369  15.677  69.183  1.00  0.00    -0.241 C  
HETATM    3  C   UNL     1     -10.712  14.476  68.678  1.00  0.00    -0.257 C  
HETATM    4  C   UNL     1     -13.708  15.571  72.636  1.00  0.00    -0.667 C  
HETATM    5  C   UNL     1     -11.726  13.699  69.443  1.00  0.00    -0.324 C  
HETATM    6  N   UNL     1     -12.197  14.264  70.612  1.00  0.00    -0.333 N  
HETATM    7  O   UNL     1     -12.101  12.603  69.033  1.00  0.00    -0.261 OA 
HETATM    8  C   UNL     1     -12.378  16.161  72.213  1.00  0.00    -0.538 C  
HETATM    9  N   UNL     1     -10.928  16.212  70.313  1.00  0.00    -0.353 NA 
HETATM   10  C   UNL     1     -13.250  13.537  71.308  1.00  0.00    -0.216 C  
HETATM   11  C   UNL     1     -13.573  14.062  72.697  1.00  0.00    -0.623 C  
HETATM   12  C   UNL     1     -11.810  15.529  70.961  1.00  0.00    -0.382 C  
ENDROOT
BRANCH   3  13
HETATM   13  C   UNL     1     -10.157  13.760  67.471  1.00  0.00    -0.241 C  
BRANCH  13  14
HETATM   14  C   UNL     1      -8.789  13.058  67.702  1.00  0.00    -0.191 C  
BRANCH  14  15
HETATM   15  N   UNL     1      -8.639  11.741  67.058  1.00  0.00    -0.167 NA 
HETATM   16  C   UNL     1     -10.704   9.742  67.949  1.00  0.00    -0.312 C  
HETATM   17  C   UNL     1      -9.582  10.286  68.841  1.00  0.00    -0.193 C  
HETATM   18  C   UNL     1      -8.369  10.645  67.988  1.00  0.00    -0.118 C  
HETATM   19  C   UNL     1     -11.007  10.765  66.844  1.00  0.00    -0.255 C  
HETATM   20  C   UNL     1      -9.767  11.389  66.172  1.00  0.00    -0.219 C  
BRANCH  16  21
HETATM   21  C   UNL     1     -10.340   8.339  67.526  1.00  0.00    -0.265 A  
HETATM   22  N   UNL     1      -9.624   8.080  66.424  1.00  0.00    -0.214 NA 
HETATM   23  O   UNL     1      -9.185   6.769  66.559  1.00  0.00    -0.155 OA 
HETATM   24  C   UNL     1      -9.663   6.243  67.719  1.00  0.00    -0.118 A  
HETATM   25  C   UNL     1     -10.479   7.174  68.337  1.00  0.00    -0.228 A  
HETATM   26  C   UNL     1     -11.097   6.839  69.556  1.00  0.00    -0.324 A  
HETATM   27  C   UNL     1     -10.841   5.576  70.104  1.00  0.00    -0.299 A  
HETATM   28  C   UNL     1      -9.980   4.688  69.462  1.00  0.00    -0.196 A  
HETATM   29  C   UNL     1      -9.368   4.989  68.246  1.00  0.00    -0.160 A  
HETATM   30  F   UNL     1      -9.725   3.507  70.042  1.00  0.00    -0.246 F  
ENDBRANCH  16  21
ENDBRANCH  14  15
ENDBRANCH  13  14
ENDBRANCH   3  13
TORSDOF 4
ENDMDL
MODEL       40
REMARK 921   NORMALIZED FREE ENERGY PREDICTED BY IDOCK:   -6.48 KCAL/MOL
REMARK 922        TOTAL FREE ENERGY PREDICTED BY IDOCK:   -8.73 KCAL/MOL
REMARK 923 INTER-LIGAND FREE ENERGY PREDICTED BY IDOCK:   -8.21 KCAL/MOL
REMARK 924 INTRA-LIGAND FREE ENERGY PREDICTED BY IDOCK:   -0.52 KCAL/MOL
REMARK 927      BINDING AFFINITY PREDICTED BY RF-SCORE:    0.00 PKD
ROOT
HETATM    1  C   UNL     1     -12.495  13.701  71.070  1.00  0.00    -0.456 C  
HETATM    2  C   UNL     1     -12.029  13.252  69.710  1.00  0.00    -0.324 C  
HETATM    3  C   UNL     1     -12.035  11.979  69.268  1.00  0.00    -0.329 C  
HETATM    4  C   UNL     1      -9.840  14.970  65.792  1.00  0.00    -0.386 C  
HETATM    5  C   UNL     1     -11.572  11.759  67.869  1.00  0.00    -0.307 C  
HETATM    6  N   UNL     1     -11.212  12.878  67.146  1.00  0.00    -0.276 N  
HETATM    7  O   UNL     1     -11.534  10.621  67.405  1.00  0.00    -0.436 OA 
HETATM    8  C   UNL     1     -10.733  15.314  66.967  1.00  0.00    -0.313 C  
HETATM    9  N   UNL     1     -11.590  14.311  68.961  1.00  0.00    -0.285 NA 
HETATM   10  C   UNL     1     -10.682  12.645  65.809  1.00  0.00    -0.268 C  
HETATM   11  C   UNL     1     -10.520  13.897  64.964  1.00  0.00    -0.428 C  
HETATM   12  C   UNL     1     -11.187  14.103  67.753  1.00  0.00    -0.287 C  
ENDROOT
BRANCH   3  13
HETATM   13  C   UNL     1     -12.516  10.732  69.970  1.00  0.00    -0.317 C  
BRANCH  13  14
HETATM   14  C   UNL     1     -11.669  10.313  71.204  1.00  0.00    -0.341 C  
BRANCH  14  15
HETATM   15  N   UNL     1     -10.656   9.273  70.951  1.00  0.00    -0.270 NA 
HETATM   16  C   UNL     1     -11.399   6.589  72.092  1.00  0.00    -0.321 C  
HETATM   17  C   UNL     1     -11.034   7.820  72.932  1.00  0.00    -0.467 C  
HETATM   18  C   UNL     1     -10.062   8.706  72.160  1.00  0.00    -0.318 C  
HETATM   19  C   UNL     1     -11.935   7.055  70.729  1.00  0.00    -0.392 C  
HETATM   20  C   UNL     1     -11.134   8.193  70.065  1.00  0.00    -0.146 C  
BRANCH  16  21
HETATM   21  C   UNL     1     -10.224   5.642  72.096  1.00  0.00    -0.202 A  
HETATM   22  N   UNL     1      -9.612   5.255  73.223  1.00  0.00    -0.141 NA 
HETATM   23  O   UNL     1      -8.857   4.141  72.880  1.00  0.00    -0.102 OA 
HETATM   24  C   UNL     1      -8.996   3.885  71.551  1.00  0.00    -0.107 A  
HETATM   25  C   UNL     1      -9.791   4.864  70.982  1.00  0.00    -0.266 A  
HETATM   26  C   UNL     1     -10.061   4.808  69.602  1.00  0.00    -0.275 A  
HETATM   27  C   UNL     1      -9.527   3.744  68.864  1.00  0.00    -0.223 A  
HETATM   28  C   UNL     1      -8.764   2.761  69.492  1.00  0.00    -0.077 A  
HETATM   29  C   UNL     1      -8.468   2.803  70.854  1.00  0.00    -0.094 A  
HETATM   30  F   UNL     1      -8.308   1.735  68.760  1.00  0.00    -0.059 F  
ENDBRANCH  16  21
ENDBRANCH  14  15
ENDBRANCH  13  14
ENDBRANCH   3  13
TORSDOF 4
ENDMDL
MODEL       41
REMARK 921   NORMALIZED FREE ENERGY PREDICTED BY IDOCK:   -6.44 KCAL/MOL
REMARK 922        TOTAL FREE ENERGY PREDICTED BY IDOCK:   -8.69 KCAL/MOL
REMARK 923 INTER-LIGAND FREE ENERGY PREDICTED BY IDOCK:   -8.18 KCAL/MOL
REMARK 924 INTRA-LIGAND FREE ENERGY PREDICTED BY IDOCK:   -0.50 KCAL/MOL
REMARK 927      BINDING AFFINITY PREDICTED BY RF-SCORE:    0.00 PKD
ROOT
HETATM    1  C   UNL     1     -11.858  13.797  69.801  1.00  0.00    -0.394 C  
HETATM    2  C   UNL     1     -11.624  13.070  68.502  1.00  0.00    -0.328 C  
HETATM    3  C   UNL     1     -10.996  11.885  68.376  1.00  0.00    -0.273 C  
HETATM    4  C   UNL     1     -12.115  13.707  63.765  1.00  0.00    -0.435 C  
HETATM    5  C   UNL     1     -10.913  11.319  67.002  1.00  0.00    -0.294 C  
HETATM    6  N   UNL     1     -11.515  12.041  65.990  1.00  0.00    -0.357 N  
HETATM    7  O   UNL     1     -10.338  10.250  66.809  1.00  0.00    -0.221 OA 
HETATM    8  C   UNL     1     -12.658  14.078  65.130  1.00  0.00    -0.453 C  
HETATM    9  N   UNL     1     -12.139  13.771  67.443  1.00  0.00    -0.379 NA 
HETATM   10  C   UNL     1     -11.357  11.523  64.638  1.00  0.00    -0.155 C  
HETATM   11  C   UNL     1     -12.221  12.205  63.591  1.00  0.00    -0.663 C  
HETATM   12  C   UNL     1     -12.054  13.269  66.257  1.00  0.00    -0.414 C  
ENDROOT
BRANCH   3  13
HETATM   13  C   UNL     1     -10.415  11.000  69.453  1.00  0.00    -0.177 C  
BRANCH  13  14
HETATM   14  C   UNL     1     -11.469  10.293  70.351  1.00  0.00    -0.335 C  
BRANCH  14  15
HETATM   15  N   UNL     1     -10.918   9.405  71.389  1.00  0.00    -0.361 NA 
HETATM   16  C   UNL     1     -11.246   6.483  70.747  1.00  0.00    -0.377 C  
HETATM   17  C   UNL     1     -12.402   7.432  71.090  1.00  0.00    -0.349 C  
HETATM   18  C   UNL     1     -11.907   8.534  72.022  1.00  0.00    -0.362 C  
HETATM   19  C   UNL     1     -10.079   7.301  70.173  1.00  0.00    -0.192 C  
HETATM   20  C   UNL     1      -9.763   8.608  70.928  1.00  0.00    -0.204 C  
BRANCH  16  21
HETATM   21  C   UNL     1     -10.968   5.613  71.949  1.00  0.00    -0.235 A  
HETATM   22  N   UNL     1     -11.902   5.326  72.865  1.00  0.00    -0.195 NA 
HETATM   23  O   UNL     1     -11.407   4.246  73.583  1.00  0.00    -0.268 OA 
HETATM   24  C   UNL     1     -10.174   3.912  73.118  1.00  0.00    -0.156 A  
HETATM   25  C   UNL     1      -9.805   4.808  72.129  1.00  0.00    -0.228 A  
HETATM   26  C   UNL     1      -8.551   4.661  71.508  1.00  0.00    -0.125 A  
HETATM   27  C   UNL     1      -7.733   3.597  71.906  1.00  0.00    -0.058 A  
HETATM   28  C   UNL     1      -8.167   2.698  72.880  1.00  0.00    -0.070 A  
HETATM   29  C   UNL     1      -9.398   2.830  73.522  1.00  0.00    -0.102 A  
HETATM   30  F   UNL     1      -7.374   1.667  73.201  1.00  0.00    -0.025 F  
ENDBRANCH  16  21
ENDBRANCH  14  15
ENDBRANCH  13  14
ENDBRANCH   3  13
TORSDOF 4
ENDMDL
MODEL       42
REMARK 921   NORMALIZED FREE ENERGY PREDICTED BY IDOCK:   -6.41 KCAL/MOL
REMARK 922        TOTAL FREE ENERGY PREDICTED BY IDOCK:   -8.65 KCAL/MOL
REMARK 923 INTER-LIGAND FREE ENERGY PREDICTED BY IDOCK:   -7.91 KCAL/MOL
REMARK 924 INTRA-LIGAND FREE ENERGY PREDICTED BY IDOCK:   -0.74 KCAL/MOL
REMARK 927      BINDING AFFINITY PREDICTED BY RF-SCORE:    0.00 PKD
ROOT
HETATM    1  C   UNL     1      -8.512  11.276  68.188  1.00  0.00    -0.145 C  
HETATM    2  C   UNL     1      -9.148  11.465  66.834  1.00  0.00    -0.175 C  
HETATM    3  C   UNL     1      -8.856  10.746  65.732  1.00  0.00    -0.201 C  
HETATM    4  C   UNL     1     -12.141  14.436  64.532  1.00  0.00    -0.498 C  
HETATM    5  C   UNL     1      -9.637  11.066  64.506  1.00  0.00    -0.256 C  
HETATM    6  N   UNL     1     -10.607  12.043  64.617  1.00  0.00    -0.291 N  
HETATM    7  O   UNL     1      -9.413  10.463  63.458  1.00  0.00    -0.270 OA 
HETATM    8  C   UNL     1     -11.766  13.849  65.878  1.00  0.00    -0.372 C  
HETATM    9  N   UNL     1     -10.075  12.472  66.859  1.00  0.00    -0.222 NA 
HETATM   10  C   UNL     1     -11.307  12.407  63.393  1.00  0.00    -0.433 C  
HETATM   11  C   UNL     1     -12.516  13.304  63.596  1.00  0.00    -0.347 C  
HETATM   12  C   UNL     1     -10.740  12.740  65.786  1.00  0.00    -0.272 C  
ENDROOT
BRANCH   3  13
HETATM   13  C   UNL     1      -7.888   9.599  65.576  1.00  0.00    -0.111 C  
BRANCH  13  14
HETATM   14  C   UNL     1      -8.554   8.208  65.379  1.00  0.00    -0.129 C  
BRANCH  14  15
HETATM   15  N   UNL     1      -8.369   7.256  66.488  1.00  0.00    -0.116 NA 
HETATM   16  C   UNL     1     -10.951   6.457  67.811  1.00  0.00    -0.425 C  
HETATM   17  C   UNL     1     -10.329   7.857  67.895  1.00  0.00    -0.281 C  
HETATM   18  C   UNL     1      -8.810   7.756  67.789  1.00  0.00    -0.126 C  
HETATM   19  C   UNL     1     -10.465   5.769  66.526  1.00  0.00    -0.280 C  
HETATM   20  C   UNL     1      -8.960   5.929  66.227  1.00  0.00    -0.148 C  
BRANCH  16  21
HETATM   21  C   UNL     1     -10.709   5.747  69.121  1.00  0.00    -0.300 A  
HETATM   22  N   UNL     1     -10.013   4.605  69.206  1.00  0.00    -0.191 NA 
HETATM   23  O   UNL     1      -9.690   4.459  70.549  1.00  0.00    -0.185 OA 
HETATM   24  C   UNL     1     -10.218   5.490  71.262  1.00  0.00    -0.222 A  
HETATM   25  C   UNL     1     -10.952   6.299  70.412  1.00  0.00    -0.385 A  
HETATM   26  C   UNL     1     -11.603   7.430  70.939  1.00  0.00    -0.318 A  
HETATM   27  C   UNL     1     -11.461   7.701  72.306  1.00  0.00    -0.366 A  
HETATM   28  C   UNL     1     -10.678   6.876  73.112  1.00  0.00    -0.308 A  
HETATM   29  C   UNL     1     -10.036   5.741  72.618  1.00  0.00    -0.204 A  
HETATM   30  F   UNL     1     -10.530   7.195  74.406  1.00  0.00    -0.338 F  
ENDBRANCH  16  21
ENDBRANCH  14  15
ENDBRANCH  13  14
ENDBRANCH   3  13
TORSDOF 4
ENDMDL
MODEL       43
REMARK 921   NORMALIZED FREE ENERGY PREDICTED BY IDOCK:   -6.37 KCAL/MOL
REMARK 922        TOTAL FREE ENERGY PREDICTED BY IDOCK:   -8.60 KCAL/MOL
REMARK 923 INTER-LIGAND FREE ENERGY PREDICTED BY IDOCK:   -7.91 KCAL/MOL
REMARK 924 INTRA-LIGAND FREE ENERGY PREDICTED BY IDOCK:   -0.69 KCAL/MOL
REMARK 927      BINDING AFFINITY PREDICTED BY RF-SCORE:    0.00 PKD
ROOT
HETATM    1  C   UNL     1      -7.639  15.506  69.616  1.00  0.00    -0.144 C  
HETATM    2  C   UNL     1      -7.837  16.771  68.821  1.00  0.00    -0.243 C  
HETATM    3  C   UNL     1      -8.992  17.149  68.238  1.00  0.00    -0.248 C  
HETATM    4  C   UNL     1      -5.319  20.447  67.023  1.00  0.00    -0.188 C  
HETATM    5  C   UNL     1      -8.983  18.463  67.537  1.00  0.00    -0.264 C  
HETATM    6  N   UNL     1      -7.807  19.186  67.577  1.00  0.00    -0.243 N  
HETATM    7  O   UNL     1      -9.995  18.864  66.967  1.00  0.00    -0.310 OA 
HETATM    8  C   UNL     1      -5.392  19.417  68.132  1.00  0.00    -0.190 C  
HETATM    9  N   UNL     1      -6.683  17.506  68.762  1.00  0.00    -0.215 NA 
HETATM   10  C   UNL     1      -7.782  20.429  66.818  1.00  0.00    -0.262 C  
HETATM   11  C   UNL     1      -6.567  21.305  67.075  1.00  0.00    -0.375 C  
HETATM   12  C   UNL     1      -6.690  18.639  68.146  1.00  0.00    -0.224 C  
ENDROOT
BRANCH   3  13
HETATM   13  C   UNL     1     -10.333  16.457  68.251  1.00  0.00    -0.279 C  
BRANCH  13  14
HETATM   14  C   UNL     1     -10.608  15.548  67.020  1.00  0.00    -0.311 C  
BRANCH  14  15
HETATM   15  N   UNL     1      -9.980  14.216  67.067  1.00  0.00    -0.255 NA 
HETATM   16  C   UNL     1     -11.939  11.999  67.623  1.00  0.00    -0.149 C  
HETATM   17  C   UNL     1     -11.529  13.071  68.641  1.00  0.00    -0.344 C  
HETATM   18  C   UNL     1     -10.104  13.538  68.356  1.00  0.00    -0.240 C  
HETATM   19  C   UNL     1     -11.741  12.554  66.204  1.00  0.00    -0.466 C  
HETATM   20  C   UNL     1     -10.422  13.321  65.979  1.00  0.00    -0.286 C  
BRANCH  16  21
HETATM   21  C   UNL     1     -11.236  10.711  67.976  1.00  0.00    -0.307 A  
HETATM   22  N   UNL     1     -10.326  10.140  67.175  1.00  0.00    -0.224 NA 
HETATM   23  O   UNL     1      -9.653   9.219  67.965  1.00  0.00    -0.140 OA 
HETATM   24  C   UNL     1     -10.179   9.219  69.219  1.00  0.00    -0.206 A  
HETATM   25  C   UNL     1     -11.251  10.093  69.261  1.00  0.00    -0.247 A  
HETATM   26  C   UNL     1     -11.960  10.246  70.466  1.00  0.00    -0.415 A  
HETATM   27  C   UNL     1     -11.535   9.518  71.585  1.00  0.00    -0.433 A  
HETATM   28  C   UNL     1     -10.424   8.680  71.501  1.00  0.00    -0.274 A  
HETATM   29  C   UNL     1      -9.714   8.498  70.315  1.00  0.00    -0.182 A  
HETATM   30  F   UNL     1     -10.021   8.035  72.605  1.00  0.00    -0.249 F  
ENDBRANCH  16  21
ENDBRANCH  14  15
ENDBRANCH  13  14
ENDBRANCH   3  13
TORSDOF 4
ENDMDL
MODEL       44
REMARK 921   NORMALIZED FREE ENERGY PREDICTED BY IDOCK:   -6.32 KCAL/MOL
REMARK 922        TOTAL FREE ENERGY PREDICTED BY IDOCK:   -8.54 KCAL/MOL
REMARK 923 INTER-LIGAND FREE ENERGY PREDICTED BY IDOCK:   -7.84 KCAL/MOL
REMARK 924 INTRA-LIGAND FREE ENERGY PREDICTED BY IDOCK:   -0.70 KCAL/MOL
REMARK 927      BINDING AFFINITY PREDICTED BY RF-SCORE:    0.00 PKD
ROOT
HETATM    1  C   UNL     1      -8.166   8.799  64.301  1.00  0.00    -0.164 C  
HETATM    2  C   UNL     1      -8.904   8.480  65.576  1.00  0.00    -0.154 C  
HETATM    3  C   UNL     1      -9.810   9.281  66.170  1.00  0.00    -0.363 C  
HETATM    4  C   UNL     1      -8.980   5.202  69.088  1.00  0.00    -0.125 C  
HETATM    5  C   UNL     1     -10.457   8.752  67.402  1.00  0.00    -0.279 C  
HETATM    6  N   UNL     1     -10.095   7.481  67.803  1.00  0.00    -0.174 N  
HETATM    7  O   UNL     1     -11.280   9.435  68.007  1.00  0.00    -0.040 OA 
HETATM    8  C   UNL     1      -8.674   5.446  67.624  1.00  0.00    -0.106 C  
HETATM    9  N   UNL     1      -8.537   7.255  66.067  1.00  0.00    -0.147 NA 
HETATM   10  C   UNL     1     -10.669   7.006  69.055  1.00  0.00    -0.210 C  
HETATM   11  C   UNL     1     -10.438   5.532  69.340  1.00  0.00    -0.360 C  
HETATM   12  C   UNL     1      -9.103   6.814  67.139  1.00  0.00    -0.126 C  
ENDROOT
BRANCH   3  13
HETATM   13  C   UNL     1     -10.325  10.627  65.722  1.00  0.00    -0.287 C  
BRANCH  13  14
HETATM   14  C   UNL     1      -9.282  11.778  65.792  1.00  0.00    -0.139 C  
BRANCH  14  15
HETATM   15  N   UNL     1      -9.442  12.707  66.924  1.00  0.00    -0.222 NA 
HETATM   16  C   UNL     1     -11.205  15.062  66.289  1.00  0.00    -0.309 C  
HETATM   17  C   UNL     1      -9.814  14.829  65.684  1.00  0.00    -0.361 C  
HETATM   18  C   UNL     1      -8.942  14.057  66.670  1.00  0.00    -0.154 C  
HETATM   19  C   UNL     1     -11.799  13.710  66.712  1.00  0.00    -0.452 C  
HETATM   20  C   UNL     1     -10.823  12.766  67.444  1.00  0.00    -0.240 C  
BRANCH  16  21
HETATM   21  C   UNL     1     -11.095  16.139  67.340  1.00  0.00    -0.134 A  
HETATM   22  N   UNL     1     -11.206  15.884  68.651  1.00  0.00    -0.339 NA 
HETATM   23  O   UNL     1     -10.695  17.002  69.297  1.00  0.00    -0.323 OA 
HETATM   24  C   UNL     1     -10.312  17.928  68.378  1.00  0.00    -0.374 A  
HETATM   25  C   UNL     1     -10.623  17.465  67.111  1.00  0.00    -0.264 A  
HETATM   26  C   UNL     1     -10.324  18.271  65.997  1.00  0.00    -0.377 A  
HETATM   27  C   UNL     1      -9.702  19.506  66.218  1.00  0.00    -0.481 A  
HETATM   28  C   UNL     1      -9.374  19.910  67.512  1.00  0.00    -0.353 A  
HETATM   29  C   UNL     1      -9.673  19.138  68.633  1.00  0.00    -0.478 A  
HETATM   30  F   UNL     1      -8.738  21.078  67.678  1.00  0.00    -0.306 F  
ENDBRANCH  16  21
ENDBRANCH  14  15
ENDBRANCH  13  14
ENDBRANCH   3  13
TORSDOF 4
ENDMDL
MODEL       45
REMARK 921   NORMALIZED FREE ENERGY PREDICTED BY IDOCK:   -6.31 KCAL/MOL
REMARK 922        TOTAL FREE ENERGY PREDICTED BY IDOCK:   -8.52 KCAL/MOL
REMARK 923 INTER-LIGAND FREE ENERGY PREDICTED BY IDOCK:   -7.97 KCAL/MOL
REMARK 924 INTRA-LIGAND FREE ENERGY PREDICTED BY IDOCK:   -0.56 KCAL/MOL
REMARK 927      BINDING AFFINITY PREDICTED BY RF-SCORE:    0.00 PKD
ROOT
HETATM    1  C   UNL     1     -13.021  10.562  70.994  1.00  0.00    -0.475 C  
HETATM    2  C   UNL     1     -11.656  10.029  70.646  1.00  0.00    -0.340 C  
HETATM    3  C   UNL     1     -11.073  10.118  69.434  1.00  0.00    -0.288 C  
HETATM    4  C   UNL     1      -8.128   7.370  72.536  1.00  0.00    -0.117 C  
HETATM    5  C   UNL     1      -9.695   9.564  69.318  1.00  0.00    -0.176 C  
HETATM    6  N   UNL     1      -9.132   9.040  70.465  1.00  0.00    -0.200 N  
HETATM    7  O   UNL     1      -9.108   9.594  68.238  1.00  0.00    -0.124 OA 
HETATM    8  C   UNL     1      -9.267   8.321  72.844  1.00  0.00    -0.329 C  
HETATM    9  N   UNL     1     -11.067   9.431  71.728  1.00  0.00    -0.342 NA 
HETATM   10  C   UNL     1      -7.819   8.425  70.322  1.00  0.00    -0.096 C  
HETATM   11  C   UNL     1      -7.136   8.076  71.633  1.00  0.00    -0.072 C  
HETATM   12  C   UNL     1      -9.875   8.951  71.609  1.00  0.00    -0.317 C  
ENDROOT
BRANCH   3  13
HETATM   13  C   UNL     1     -11.592  10.772  68.177  1.00  0.00    -0.276 C  
BRANCH  13  14
HETATM   14  C   UNL     1     -11.964  12.273  68.330  1.00  0.00    -0.210 C  
BRANCH  14  15
HETATM   15  N   UNL     1     -10.862  13.157  68.750  1.00  0.00    -0.255 NA 
HETATM   16  C   UNL     1     -11.491  16.081  68.414  1.00  0.00    -0.331 C  
HETATM   17  C   UNL     1     -11.281  15.099  67.254  1.00  0.00    -0.324 C  
HETATM   18  C   UNL     1     -10.321  13.992  67.680  1.00  0.00    -0.242 C  
HETATM   19  C   UNL     1     -11.956  15.300  69.654  1.00  0.00    -0.364 C  
HETATM   20  C   UNL     1     -11.192  13.988  69.925  1.00  0.00    -0.071 C  
BRANCH  16  21
HETATM   21  C   UNL     1     -10.254  16.935  68.547  1.00  0.00    -0.310 A  
HETATM   22  N   UNL     1      -9.218  16.592  69.324  1.00  0.00    -0.185 NA 
HETATM   23  O   UNL     1      -8.159  17.392  68.917  1.00  0.00    -0.260 OA 
HETATM   24  C   UNL     1      -8.570  18.228  67.926  1.00  0.00    -0.258 A  
HETATM   25  C   UNL     1      -9.923  18.039  67.707  1.00  0.00    -0.329 A  
HETATM   26  C   UNL     1     -10.571  18.812  66.725  1.00  0.00    -0.458 A  
HETATM   27  C   UNL     1      -9.807  19.730  65.993  1.00  0.00    -0.497 A  
HETATM   28  C   UNL     1      -8.438  19.855  66.225  1.00  0.00    -0.338 A  
HETATM   29  C   UNL     1      -7.776  19.113  67.203  1.00  0.00    -0.263 A  
HETATM   30  F   UNL     1      -7.735  20.712  65.473  1.00  0.00    -0.121 F  
ENDBRANCH  16  21
ENDBRANCH  14  15
ENDBRANCH  13  14
ENDBRANCH   3  13
TORSDOF 4
ENDMDL
MODEL       46
REMARK 921   NORMALIZED FREE ENERGY PREDICTED BY IDOCK:   -6.31 KCAL/MOL
REMARK 922        TOTAL FREE ENERGY PREDICTED BY IDOCK:   -8.52 KCAL/MOL
REMARK 923 INTER-LIGAND FREE ENERGY PREDICTED BY IDOCK:   -8.21 KCAL/MOL
REMARK 924 INTRA-LIGAND FREE ENERGY PREDICTED BY IDOCK:   -0.31 KCAL/MOL
REMARK 927      BINDING AFFINITY PREDICTED BY RF-SCORE:    0.00 PKD
ROOT
HETATM    1  C   UNL     1      -9.234   5.216  71.386  1.00  0.00    -0.180 C  
HETATM    2  C   UNL     1      -9.543   5.007  69.926  1.00  0.00    -0.176 C  
HETATM    3  C   UNL     1     -10.204   5.879  69.140  1.00  0.00    -0.275 C  
HETATM    4  C   UNL     1      -9.255   1.621  66.530  1.00  0.00     0.021 C  
HETATM    5  C   UNL     1     -10.362   5.495  67.710  1.00  0.00    -0.189 C  
HETATM    6  N   UNL     1      -9.791   4.301  67.315  1.00  0.00    -0.180 N  
HETATM    7  O   UNL     1     -10.970   6.233  66.937  1.00  0.00    -0.358 OA 
HETATM    8  C   UNL     1      -8.641   2.150  67.810  1.00  0.00    -0.110 C  
HETATM    9  N   UNL     1      -9.061   3.803  69.486  1.00  0.00    -0.118 NA 
HETATM   10  C   UNL     1     -10.023   3.894  65.936  1.00  0.00    -0.074 C  
HETATM   11  C   UNL     1      -9.192   2.708  65.476  1.00  0.00    -0.099 C  
HETATM   12  C   UNL     1      -9.212   3.482  68.245  1.00  0.00    -0.170 C  
ENDROOT
BRANCH   3  13
HETATM   13  C   UNL     1     -10.754   7.241  69.486  1.00  0.00    -0.244 C  
BRANCH  13  14
HETATM   14  C   UNL     1      -9.946   8.435  68.906  1.00  0.00    -0.187 C  
BRANCH  14  15
HETATM   15  N   UNL     1      -9.891   9.634  69.761  1.00  0.00    -0.214 NA 
HETATM   16  C   UNL     1     -11.835  11.775  68.931  1.00  0.00    -0.381 C  
HETATM   17  C   UNL     1     -10.601  11.361  68.119  1.00  0.00    -0.220 C  
HETATM   18  C   UNL     1      -9.509  10.857  69.058  1.00  0.00    -0.146 C  
HETATM   19  C   UNL     1     -12.273  10.597  69.814  1.00  0.00    -0.318 C  
HETATM   20  C   UNL     1     -11.127   9.859  70.536  1.00  0.00    -0.332 C  
BRANCH  16  21
HETATM   21  C   UNL     1     -11.540  13.090  69.611  1.00  0.00    -0.253 A  
HETATM   22  N   UNL     1     -10.738  14.019  69.073  1.00  0.00    -0.235 NA 
HETATM   23  O   UNL     1     -10.996  15.191  69.772  1.00  0.00    -0.254 OA 
HETATM   24  C   UNL     1     -11.921  14.953  70.740  1.00  0.00    -0.314 A  
HETATM   25  C   UNL     1     -12.242  13.607  70.739  1.00  0.00    -0.424 A  
HETATM   26  C   UNL     1     -13.179  13.128  71.674  1.00  0.00    -0.435 A  
HETATM   27  C   UNL     1     -13.764  14.045  72.556  1.00  0.00    -0.651 A  
HETATM   28  C   UNL     1     -13.436  15.398  72.490  1.00  0.00    -0.504 A  
HETATM   29  C   UNL     1     -12.500  15.896  71.585  1.00  0.00    -0.502 A  
HETATM   30  F   UNL     1     -14.052  16.250  73.321  1.00  0.00    -0.685 F  
ENDBRANCH  16  21
ENDBRANCH  14  15
ENDBRANCH  13  14
ENDBRANCH   3  13
TORSDOF 4
ENDMDL
MODEL       47
REMARK 921   NORMALIZED FREE ENERGY PREDICTED BY IDOCK:   -6.29 KCAL/MOL
REMARK 922        TOTAL FREE ENERGY PREDICTED BY IDOCK:   -8.49 KCAL/MOL
REMARK 923 INTER-LIGAND FREE ENERGY PREDICTED BY IDOCK:   -8.22 KCAL/MOL
REMARK 924 INTRA-LIGAND FREE ENERGY PREDICTED BY IDOCK:   -0.28 KCAL/MOL
REMARK 927      BINDING AFFINITY PREDICTED BY RF-SCORE:    0.00 PKD
ROOT
HETATM    1  C   UNL     1      -8.130  14.295  67.447  1.00  0.00    -0.213 C  
HETATM    2  C   UNL     1      -8.826  15.519  66.908  1.00  0.00    -0.255 C  
HETATM    3  C   UNL     1      -9.806  15.510  65.983  1.00  0.00    -0.364 C  
HETATM    4  C   UNL     1      -8.556  20.312  67.087  1.00  0.00    -0.417 C  
HETATM    5  C   UNL     1     -10.391  16.832  65.623  1.00  0.00    -0.265 C  
HETATM    6  N   UNL     1      -9.901  17.936  66.292  1.00  0.00    -0.319 N  
HETATM    7  O   UNL     1     -11.276  16.903  64.774  1.00  0.00    -0.733 OA 
HETATM    8  C   UNL     1      -8.282  19.025  67.838  1.00  0.00    -0.311 C  
HETATM    9  N   UNL     1      -8.336  16.661  67.482  1.00  0.00    -0.173 NA 
HETATM   10  C   UNL     1     -10.419  19.232  65.874  1.00  0.00    -0.451 C  
HETATM   11  C   UNL     1     -10.039  20.390  66.780  1.00  0.00    -0.478 C  
HETATM   12  C   UNL     1      -8.850  17.799  67.156  1.00  0.00    -0.246 C  
ENDROOT
BRANCH   3  13
HETATM   13  C   UNL     1     -10.456  14.332  65.299  1.00  0.00    -0.408 C  
BRANCH  13  14
HETATM   14  C   UNL     1     -11.628  13.686  66.090  1.00  0.00    -0.347 C  
BRANCH  14  15
HETATM   15  N   UNL     1     -11.789  12.233  65.905  1.00  0.00    -0.546 NA 
HETATM   16  C   UNL     1      -9.434  10.642  66.896  1.00  0.00    -0.189 C  
HETATM   17  C   UNL     1      -9.404  11.567  65.672  1.00  0.00    -0.221 C  
HETATM   18  C   UNL     1     -10.788  11.624  65.031  1.00  0.00    -0.288 C  
HETATM   19  C   UNL     1     -10.541  11.112  67.852  1.00  0.00    -0.235 C  
HETATM   20  C   UNL     1     -11.875  11.486  67.176  1.00  0.00     0.086 C  
BRANCH  16  21
HETATM   21  C   UNL     1      -9.485   9.213  66.413  1.00  0.00    -0.227 A  
HETATM   22  N   UNL     1      -8.886   8.810  65.284  1.00  0.00    -0.187 NA 
HETATM   23  O   UNL     1      -8.831   7.424  65.360  1.00  0.00    -0.047 OA 
HETATM   24  C   UNL     1      -9.421   7.005  66.512  1.00  0.00    -0.150 A  
HETATM   25  C   UNL     1      -9.933   8.100  67.183  1.00  0.00    -0.304 A  
HETATM   26  C   UNL     1     -10.604   7.900  68.405  1.00  0.00    -0.154 A  
HETATM   27  C   UNL     1     -10.705   6.595  68.900  1.00  0.00    -0.304 A  
HETATM   28  C   UNL     1     -10.138   5.528  68.204  1.00  0.00    -0.172 A  
HETATM   29  C   UNL     1      -9.483   5.697  66.985  1.00  0.00    -0.132 A  
HETATM   30  F   UNL     1     -10.217   4.300  68.734  1.00  0.00    -0.164 F  
ENDBRANCH  16  21
ENDBRANCH  14  15
ENDBRANCH  13  14
ENDBRANCH   3  13
TORSDOF 4
ENDMDL
MODEL       48
REMARK 921   NORMALIZED FREE ENERGY PREDICTED BY IDOCK:   -6.28 KCAL/MOL
REMARK 922        TOTAL FREE ENERGY PREDICTED BY IDOCK:   -8.49 KCAL/MOL
REMARK 923 INTER-LIGAND FREE ENERGY PREDICTED BY IDOCK:   -8.18 KCAL/MOL
REMARK 924 INTRA-LIGAND FREE ENERGY PREDICTED BY IDOCK:   -0.31 KCAL/MOL
REMARK 927      BINDING AFFINITY PREDICTED BY RF-SCORE:    0.00 PKD
ROOT
HETATM    1  C   UNL     1      -9.945   5.329  69.018  1.00  0.00    -0.260 C  
HETATM    2  C   UNL     1     -10.415   6.449  69.909  1.00  0.00    -0.213 C  
HETATM    3  C   UNL     1      -9.631   7.422  70.413  1.00  0.00    -0.165 C  
HETATM    4  C   UNL     1     -14.332   7.891  72.288  1.00  0.00    -0.320 C  
HETATM    5  C   UNL     1     -10.308   8.462  71.236  1.00  0.00    -0.214 C  
HETATM    6  N   UNL     1     -11.678   8.353  71.380  1.00  0.00    -0.277 N  
HETATM    7  O   UNL     1      -9.653   9.369  71.744  1.00  0.00    -0.239 OA 
HETATM    8  C   UNL     1     -13.823   7.127  71.083  1.00  0.00    -0.177 C  
HETATM    9  N   UNL     1     -11.761   6.360  70.149  1.00  0.00    -0.398 NA 
HETATM   10  C   UNL     1     -12.319   9.325  72.254  1.00  0.00    -0.274 C  
HETATM   11  C   UNL     1     -13.837   9.321  72.202  1.00  0.00    -0.478 C  
HETATM   12  C   UNL     1     -12.332   7.266  70.869  1.00  0.00    -0.248 C  
ENDROOT
BRANCH   3  13
HETATM   13  C   UNL     1      -8.154   7.654  70.205  1.00  0.00    -0.118 C  
BRANCH  13  14
HETATM   14  C   UNL     1      -7.695   7.624  68.720  1.00  0.00    -0.118 C  
BRANCH  14  15
HETATM   15  N   UNL     1      -7.748   8.918  68.016  1.00  0.00    -0.100 NA 
HETATM   16  C   UNL     1     -10.103   9.162  66.158  1.00  0.00    -0.278 C  
HETATM   17  C   UNL     1      -8.913   8.221  65.933  1.00  0.00    -0.208 C  
HETATM   18  C   UNL     1      -7.656   8.815  66.561  1.00  0.00    -0.095 C  
HETATM   19  C   UNL     1     -10.239   9.447  67.662  1.00  0.00    -0.281 C  
HETATM   20  C   UNL     1      -8.914   9.743  68.394  1.00  0.00    -0.123 C  
BRANCH  16  21
HETATM   21  C   UNL     1      -9.960  10.344  65.230  1.00  0.00    -0.309 A  
HETATM   22  N   UNL     1      -9.330  10.265  64.051  1.00  0.00    -0.268 NA 
HETATM   23  O   UNL     1      -9.712  11.396  63.342  1.00  0.00    -0.304 OA 
HETATM   24  C   UNL     1     -10.538  12.159  64.107  1.00  0.00    -0.365 A  
HETATM   25  C   UNL     1     -10.664  11.577  65.356  1.00  0.00    -0.335 A  
HETATM   26  C   UNL     1     -11.470  12.206  66.324  1.00  0.00    -0.433 A  
HETATM   27  C   UNL     1     -12.130  13.390  65.971  1.00  0.00    -0.487 A  
HETATM   28  C   UNL     1     -12.002  13.914  64.686  1.00  0.00    -0.419 A  
HETATM   29  C   UNL     1     -11.197  13.320  63.714  1.00  0.00    -0.230 A  
HETATM   30  F   UNL     1     -12.685  15.024  64.373  1.00  0.00    -0.444 F  
ENDBRANCH  16  21
ENDBRANCH  14  15
ENDBRANCH  13  14
ENDBRANCH   3  13
TORSDOF 4
ENDMDL
MODEL       49
REMARK 921   NORMALIZED FREE ENERGY PREDICTED BY IDOCK:   -6.26 KCAL/MOL
REMARK 922        TOTAL FREE ENERGY PREDICTED BY IDOCK:   -8.46 KCAL/MOL
REMARK 923 INTER-LIGAND FREE ENERGY PREDICTED BY IDOCK:   -7.98 KCAL/MOL
REMARK 924 INTRA-LIGAND FREE ENERGY PREDICTED BY IDOCK:   -0.49 KCAL/MOL
REMARK 927      BINDING AFFINITY PREDICTED BY RF-SCORE:    0.00 PKD
ROOT
HETATM    1  C   UNL     1     -12.550  14.268  71.215  1.00  0.00    -0.436 C  
HETATM    2  C   UNL     1     -12.065  13.760  69.882  1.00  0.00    -0.348 C  
HETATM    3  C   UNL     1     -12.160  12.486  69.455  1.00  0.00    -0.248 C  
HETATM    4  C   UNL     1      -9.574  15.229  66.045  1.00  0.00    -0.372 C  
HETATM    5  C   UNL     1     -11.658  12.207  68.081  1.00  0.00    -0.337 C  
HETATM    6  N   UNL     1     -11.173  13.281  67.361  1.00  0.00    -0.278 N  
HETATM    7  O   UNL     1     -11.696  11.063  67.632  1.00  0.00    -0.576 OA 
HETATM    8  C   UNL     1     -10.484  15.665  67.175  1.00  0.00    -0.303 C  
HETATM    9  N   UNL     1     -11.507  14.768  69.141  1.00  0.00    -0.282 NA 
HETATM   10  C   UNL     1     -10.608  12.984  66.052  1.00  0.00    -0.279 C  
HETATM   11  C   UNL     1     -10.305  14.205  65.200  1.00  0.00    -0.429 C  
HETATM   12  C   UNL     1     -11.071  14.509  67.955  1.00  0.00    -0.279 C  
ENDROOT
BRANCH   3  13
HETATM   13  C   UNL     1     -12.774  11.295  70.150  1.00  0.00    -0.109 C  
BRANCH  13  14
HETATM   14  C   UNL     1     -11.802  10.508  71.073  1.00  0.00    -0.340 C  
BRANCH  14  15
HETATM   15  N   UNL     1     -11.992   9.047  71.091  1.00  0.00    -0.293 NA 
HETATM   16  C   UNL     1      -9.408   7.514  71.260  1.00  0.00    -0.157 C  
HETATM   17  C   UNL     1      -9.858   8.327  70.038  1.00  0.00    -0.182 C  
HETATM   18  C   UNL     1     -11.381   8.347  69.962  1.00  0.00    -0.001 C  
HETATM   19  C   UNL     1     -10.083   8.084  72.517  1.00  0.00    -0.346 C  
HETATM   20  C   UNL     1     -11.581   8.417  72.361  1.00  0.00    -0.380 C  
BRANCH  16  21
HETATM   21  C   UNL     1      -9.609   6.049  70.959  1.00  0.00    -0.172 A  
HETATM   22  N   UNL     1      -9.090   5.456  69.875  1.00  0.00    -0.133 NA 
HETATM   23  O   UNL     1      -9.162   4.091  70.121  1.00  0.00    -0.111 OA 
HETATM   24  C   UNL     1      -9.747   3.873  71.329  1.00  0.00    -0.177 A  
HETATM   25  C   UNL     1     -10.131   5.087  71.872  1.00  0.00    -0.257 A  
HETATM   26  C   UNL     1     -10.773   5.102  73.124  1.00  0.00    -0.318 A  
HETATM   27  C   UNL     1     -10.979   3.882  73.780  1.00  0.00    -0.321 A  
HETATM   28  C   UNL     1     -10.538   2.689  73.208  1.00  0.00    -0.164 A  
HETATM   29  C   UNL     1      -9.914   2.645  71.962  1.00  0.00    -0.224 A  
HETATM   30  F   UNL     1     -10.712   1.548  73.888  1.00  0.00    -0.128 F  
ENDBRANCH  16  21
ENDBRANCH  14  15
ENDBRANCH  13  14
ENDBRANCH   3  13
TORSDOF 4
ENDMDL
MODEL       50
REMARK 921   NORMALIZED FREE ENERGY PREDICTED BY IDOCK:   -6.25 KCAL/MOL
REMARK 922        TOTAL FREE ENERGY PREDICTED BY IDOCK:   -8.45 KCAL/MOL
REMARK 923 INTER-LIGAND FREE ENERGY PREDICTED BY IDOCK:   -8.32 KCAL/MOL
REMARK 924 INTRA-LIGAND FREE ENERGY PREDICTED BY IDOCK:   -0.13 KCAL/MOL
REMARK 927      BINDING AFFINITY PREDICTED BY RF-SCORE:    0.00 PKD
ROOT
HETATM    1  C   UNL     1     -10.766  14.773  69.820  1.00  0.00    -0.176 C  
HETATM    2  C   UNL     1     -10.642  15.744  68.675  1.00  0.00    -0.250 C  
HETATM    3  C   UNL     1     -10.791  15.433  67.372  1.00  0.00    -0.309 C  
HETATM    4  C   UNL     1      -9.366  20.294  67.802  1.00  0.00    -0.426 C  
HETATM    5  C   UNL     1     -10.673  16.557  66.403  1.00  0.00    -0.146 C  
HETATM    6  N   UNL     1     -10.454  17.816  66.927  1.00  0.00    -0.333 N  
HETATM    7  O   UNL     1     -10.779  16.344  65.197  1.00  0.00    -0.579 OA 
HETATM    8  C   UNL     1      -9.952  19.344  68.827  1.00  0.00    -0.522 C  
HETATM    9  N   UNL     1     -10.354  17.006  69.124  1.00  0.00    -0.320 NA 
HETATM   10  C   UNL     1     -10.255  18.894  65.968  1.00  0.00    -0.387 C  
HETATM   11  C   UNL     1     -10.253  20.288  66.572  1.00  0.00    -0.477 C  
HETATM   12  C   UNL     1     -10.249  17.968  68.271  1.00  0.00    -0.395 C  
ENDROOT
BRANCH   3  13
HETATM   13  C   UNL     1     -11.137  14.103  66.748  1.00  0.00    -0.314 C  
BRANCH  13  14
HETATM   14  C   UNL     1      -9.919  13.306  66.200  1.00  0.00    -0.293 C  
BRANCH  14  15
HETATM   15  N   UNL     1      -9.360  12.298  67.117  1.00  0.00    -0.191 NA 
HETATM   16  C   UNL     1     -10.882   9.702  67.097  1.00  0.00    -0.184 C  
HETATM   17  C   UNL     1     -11.426  11.023  67.656  1.00  0.00    -0.303 C  
HETATM   18  C   UNL     1     -10.274  11.878  68.178  1.00  0.00    -0.199 C  
HETATM   19  C   UNL     1      -9.811  10.008  66.039  1.00  0.00    -0.321 C  
HETATM   20  C   UNL     1      -8.809  11.116  66.424  1.00  0.00    -0.178 C  
BRANCH  16  21
HETATM   21  C   UNL     1     -10.490   8.817  68.256  1.00  0.00    -0.187 A  
HETATM   22  N   UNL     1     -10.733   9.147  69.531  1.00  0.00    -0.229 NA 
HETATM   23  O   UNL     1     -10.582   7.975  70.260  1.00  0.00    -0.222 OA 
HETATM   24  C   UNL     1     -10.220   6.962  69.428  1.00  0.00    -0.182 A  
HETATM   25  C   UNL     1     -10.063   7.461  68.147  1.00  0.00    -0.210 A  
HETATM   26  C   UNL     1      -9.677   6.586  67.115  1.00  0.00    -0.176 A  
HETATM   27  C   UNL     1      -9.487   5.234  67.428  1.00  0.00    -0.137 A  
HETATM   28  C   UNL     1      -9.695   4.773  68.726  1.00  0.00    -0.167 A  
HETATM   29  C   UNL     1     -10.063   5.622  69.770  1.00  0.00    -0.286 A  
HETATM   30  F   UNL     1      -9.547   3.464  68.975  1.00  0.00    -0.225 F  
ENDBRANCH  16  21
ENDBRANCH  14  15
ENDBRANCH  13  14
ENDBRANCH   3  13
TORSDOF 4
ENDMDL
MODEL       51
REMARK 921   NORMALIZED FREE ENERGY PREDICTED BY IDOCK:   -6.20 KCAL/MOL
REMARK 922        TOTAL FREE ENERGY PREDICTED BY IDOCK:   -8.39 KCAL/MOL
REMARK 923 INTER-LIGAND FREE ENERGY PREDICTED BY IDOCK:   -7.94 KCAL/MOL
REMARK 924 INTRA-LIGAND FREE ENERGY PREDICTED BY IDOCK:   -0.46 KCAL/MOL
REMARK 927      BINDING AFFINITY PREDICTED BY RF-SCORE:    0.00 PKD
ROOT
HETATM    1  C   UNL     1     -12.134  14.119  69.785  1.00  0.00    -0.409 C  
HETATM    2  C   UNL     1     -11.788  13.367  68.526  1.00  0.00    -0.366 C  
HETATM    3  C   UNL     1     -11.123  12.196  68.479  1.00  0.00    -0.295 C  
HETATM    4  C   UNL     1     -11.942  13.873  63.751  1.00  0.00    -0.305 C  
HETATM    5  C   UNL     1     -10.926  11.598  67.130  1.00  0.00    -0.280 C  
HETATM    6  N   UNL     1     -11.468  12.279  66.058  1.00  0.00    -0.364 N  
HETATM    7  O   UNL     1     -10.312  10.541  67.008  1.00  0.00    -0.215 OA 
HETATM    8  C   UNL     1     -12.594  14.263  65.062  1.00  0.00    -0.360 C  
HETATM    9  N   UNL     1     -12.240  14.028  67.414  1.00  0.00    -0.336 NA 
HETATM   10  C   UNL     1     -11.197  11.732  64.735  1.00  0.00    -0.271 C  
HETATM   11  C   UNL     1     -11.998  12.365  63.610  1.00  0.00    -0.626 C  
HETATM   12  C   UNL     1     -12.055  13.499  66.252  1.00  0.00    -0.428 C  
ENDROOT
BRANCH   3  13
HETATM   13  C   UNL     1     -10.602  11.354  69.618  1.00  0.00     0.068 C  
BRANCH  13  14
HETATM   14  C   UNL     1     -11.671  10.457  70.304  1.00  0.00    -0.321 C  
BRANCH  14  15
HETATM   15  N   UNL     1     -11.407   9.008  70.252  1.00  0.00    -0.223 NA 
HETATM   16  C   UNL     1      -9.709   8.028  72.535  1.00  0.00    -0.325 C  
HETATM   17  C   UNL     1      -9.205   8.936  71.406  1.00  0.00    -0.328 C  
HETATM   18  C   UNL     1      -9.992   8.659  70.129  1.00  0.00    -0.182 C  
HETATM   19  C   UNL     1     -11.226   8.215  72.690  1.00  0.00    -0.447 C  
HETATM   20  C   UNL     1     -12.018   8.259  71.368  1.00  0.00    -0.299 C  
BRANCH  16  21
HETATM   21  C   UNL     1      -9.197   6.629  72.288  1.00  0.00    -0.136 A  
HETATM   22  N   UNL     1      -7.935   6.377  71.915  1.00  0.00    -0.104 NA 
HETATM   23  O   UNL     1      -7.738   5.021  72.142  1.00  0.00    -0.093 OA 
HETATM   24  C   UNL     1      -8.885   4.465  72.618  1.00  0.00    -0.109 A  
HETATM   25  C   UNL     1      -9.876   5.430  72.652  1.00  0.00    -0.184 A  
HETATM   26  C   UNL     1     -11.161   5.073  73.103  1.00  0.00    -0.395 A  
HETATM   27  C   UNL     1     -11.375   3.754  73.521  1.00  0.00    -0.245 A  
HETATM   28  C   UNL     1     -10.332   2.829  73.505  1.00  0.00    -0.129 A  
HETATM   29  C   UNL     1      -9.055   3.152  73.047  1.00  0.00    -0.107 A  
HETATM   30  F   UNL     1     -10.565   1.588  73.955  1.00  0.00    -0.121 F  
ENDBRANCH  16  21
ENDBRANCH  14  15
ENDBRANCH  13  14
ENDBRANCH   3  13
TORSDOF 4
ENDMDL
MODEL       52
REMARK 921   NORMALIZED FREE ENERGY PREDICTED BY IDOCK:   -6.20 KCAL/MOL
REMARK 922        TOTAL FREE ENERGY PREDICTED BY IDOCK:   -8.39 KCAL/MOL
REMARK 923 INTER-LIGAND FREE ENERGY PREDICTED BY IDOCK:   -7.82 KCAL/MOL
REMARK 924 INTRA-LIGAND FREE ENERGY PREDICTED BY IDOCK:   -0.57 KCAL/MOL
REMARK 927      BINDING AFFINITY PREDICTED BY RF-SCORE:    0.00 PKD
ROOT
HETATM    1  C   UNL     1     -10.902  16.183  67.747  1.00  0.00    -0.318 C  
HETATM    2  C   UNL     1     -11.448  15.417  68.925  1.00  0.00    -0.342 C  
HETATM    3  C   UNL     1     -11.857  14.134  68.895  1.00  0.00    -0.382 C  
HETATM    4  C   UNL     1     -12.793  16.104  73.486  1.00  0.00    -0.655 C  
HETATM    5  C   UNL     1     -12.319  13.553  70.186  1.00  0.00    -0.275 C  
HETATM    6  N   UNL     1     -12.255  14.370  71.298  1.00  0.00    -0.345 N  
HETATM    7  O   UNL     1     -12.723  12.394  70.230  1.00  0.00     0.001 OA 
HETATM    8  C   UNL     1     -11.876  16.580  72.377  1.00  0.00    -0.425 C  
HETATM    9  N   UNL     1     -11.477  16.196  70.052  1.00  0.00    -0.323 NA 
HETATM   10  C   UNL     1     -12.788  13.822  72.538  1.00  0.00    -0.246 C  
HETATM   11  C   UNL     1     -12.489  14.648  73.777  1.00  0.00    -0.302 C  
HETATM   12  C   UNL     1     -11.885  15.679  71.161  1.00  0.00    -0.408 C  
ENDROOT
BRANCH   3  13
HETATM   13  C   UNL     1     -11.848  13.162  67.740  1.00  0.00    -0.392 C  
BRANCH  13  14
HETATM   14  C   UNL     1     -10.443  12.876  67.140  1.00  0.00    -0.238 C  
BRANCH  14  15
HETATM   15  N   UNL     1      -9.598  11.958  67.923  1.00  0.00    -0.187 NA 
HETATM   16  C   UNL     1      -9.434   9.196  66.739  1.00  0.00    -0.230 C  
HETATM   17  C   UNL     1     -10.696   9.796  67.371  1.00  0.00    -0.314 C  
HETATM   18  C   UNL     1     -10.307  10.796  68.456  1.00  0.00    -0.185 C  
HETATM   19  C   UNL     1      -8.534  10.335  66.237  1.00  0.00    -0.138 C  
HETATM   20  C   UNL     1      -8.381  11.525  67.207  1.00  0.00    -0.154 C  
BRANCH  16  21
HETATM   21  C   UNL     1      -8.836   8.207  67.711  1.00  0.00    -0.130 A  
HETATM   22  N   UNL     1      -7.554   8.258  68.096  1.00  0.00    -0.097 NA 
HETATM   23  O   UNL     1      -7.469   7.461  69.230  1.00  0.00    -0.087 OA 
HETATM   24  C   UNL     1      -8.685   6.917  69.500  1.00  0.00    -0.133 A  
HETATM   25  C   UNL     1      -9.578   7.291  68.512  1.00  0.00    -0.140 A  
HETATM   26  C   UNL     1     -10.906   6.829  68.581  1.00  0.00    -0.277 A  
HETATM   27  C   UNL     1     -11.273   6.022  69.665  1.00  0.00    -0.428 A  
HETATM   28  C   UNL     1     -10.345   5.705  70.656  1.00  0.00    -0.252 A  
HETATM   29  C   UNL     1      -9.020   6.136  70.603  1.00  0.00    -0.148 A  
HETATM   30  F   UNL     1     -10.747   4.968  71.701  1.00  0.00    -0.273 F  
ENDBRANCH  16  21
ENDBRANCH  14  15
ENDBRANCH  13  14
ENDBRANCH   3  13
TORSDOF 4
ENDMDL
MODEL       53
REMARK 921   NORMALIZED FREE ENERGY PREDICTED BY IDOCK:   -6.19 KCAL/MOL
REMARK 922        TOTAL FREE ENERGY PREDICTED BY IDOCK:   -8.37 KCAL/MOL
REMARK 923 INTER-LIGAND FREE ENERGY PREDICTED BY IDOCK:   -7.80 KCAL/MOL
REMARK 924 INTRA-LIGAND FREE ENERGY PREDICTED BY IDOCK:   -0.57 KCAL/MOL
REMARK 927      BINDING AFFINITY PREDICTED BY RF-SCORE:    0.00 PKD
ROOT
HETATM    1  C   UNL     1     -10.734  11.486  67.869  1.00  0.00    -0.241 C  
HETATM    2  C   UNL     1     -11.507  11.801  69.124  1.00  0.00    -0.297 C  
HETATM    3  C   UNL     1     -11.945  10.891  70.015  1.00  0.00    -0.429 C  
HETATM    4  C   UNL     1     -13.628  15.503  71.334  1.00  0.00    -0.561 C  
HETATM    5  C   UNL     1     -12.651  11.422  71.215  1.00  0.00    -0.374 C  
HETATM    6  N   UNL     1     -12.762  12.794  71.319  1.00  0.00    -0.336 N  
HETATM    7  O   UNL     1     -13.095  10.648  72.061  1.00  0.00    -0.481 OA 
HETATM    8  C   UNL     1     -12.512  15.092  70.396  1.00  0.00    -0.407 C  
HETATM    9  N   UNL     1     -11.713  13.149  69.254  1.00  0.00    -0.305 NA 
HETATM   10  C   UNL     1     -13.526  13.300  72.451  1.00  0.00    -0.569 C  
HETATM   11  C   UNL     1     -13.428  14.801  72.663  1.00  0.00    -0.570 C  
HETATM   12  C   UNL     1     -12.331  13.592  70.296  1.00  0.00    -0.322 C  
ENDROOT
BRANCH   3  13
HETATM   13  C   UNL     1     -11.761   9.392  70.011  1.00  0.00     0.028 C  
BRANCH  13  14
HETATM   14  C   UNL     1     -10.347   8.910  70.441  1.00  0.00    -0.204 C  
BRANCH  14  15
HETATM   15  N   UNL     1      -9.587   8.185  69.408  1.00  0.00    -0.166 NA 
HETATM   16  C   UNL     1     -10.400   5.300  69.141  1.00  0.00    -0.264 C  
HETATM   17  C   UNL     1      -9.668   5.887  70.355  1.00  0.00    -0.217 C  
HETATM   18  C   UNL     1      -8.800   7.063  69.918  1.00  0.00    -0.142 C  
HETATM   19  C   UNL     1     -11.183   6.419  68.438  1.00  0.00    -0.297 C  
HETATM   20  C   UNL     1     -10.416   7.746  68.268  1.00  0.00    -0.168 C  
BRANCH  16  21
HETATM   21  C   UNL     1      -9.407   4.515  68.318  1.00  0.00    -0.141 A  
HETATM   22  N   UNL     1      -8.444   3.764  68.870  1.00  0.00    -0.076 NA 
HETATM   23  O   UNL     1      -7.987   2.932  67.857  1.00  0.00    -0.066 OA 
HETATM   24  C   UNL     1      -8.652   3.207  66.703  1.00  0.00    -0.119 A  
HETATM   25  C   UNL     1      -9.512   4.269  66.918  1.00  0.00    -0.205 A  
HETATM   26  C   UNL     1     -10.300   4.737  65.850  1.00  0.00    -0.303 A  
HETATM   27  C   UNL     1     -10.193   4.089  64.613  1.00  0.00    -0.226 A  
HETATM   28  C   UNL     1      -9.340   2.998  64.458  1.00  0.00    -0.145 A  
HETATM   29  C   UNL     1      -8.537   2.525  65.495  1.00  0.00    -0.113 A  
HETATM   30  F   UNL     1      -9.300   2.377  63.271  1.00  0.00    -0.091 F  
ENDBRANCH  16  21
ENDBRANCH  14  15
ENDBRANCH  13  14
ENDBRANCH   3  13
TORSDOF 4
ENDMDL
MODEL       54
REMARK 921   NORMALIZED FREE ENERGY PREDICTED BY IDOCK:   -6.17 KCAL/MOL
REMARK 922        TOTAL FREE ENERGY PREDICTED BY IDOCK:   -8.35 KCAL/MOL
REMARK 923 INTER-LIGAND FREE ENERGY PREDICTED BY IDOCK:   -7.80 KCAL/MOL
REMARK 924 INTRA-LIGAND FREE ENERGY PREDICTED BY IDOCK:   -0.55 KCAL/MOL
REMARK 927      BINDING AFFINITY PREDICTED BY RF-SCORE:    0.00 PKD
ROOT
HETATM    1  C   UNL     1      -9.541  12.403  66.216  1.00  0.00    -0.245 C  
HETATM    2  C   UNL     1      -9.867  13.768  66.766  1.00  0.00    -0.275 C  
HETATM    3  C   UNL     1     -10.909  14.052  67.571  1.00  0.00    -0.277 C  
HETATM    4  C   UNL     1      -8.473  18.349  66.370  1.00  0.00    -0.264 C  
HETATM    5  C   UNL     1     -11.022  15.461  68.040  1.00  0.00    -0.307 C  
HETATM    6  N   UNL     1     -10.033  16.336  67.636  1.00  0.00    -0.243 N  
HETATM    7  O   UNL     1     -11.958  15.797  68.762  1.00  0.00    -0.374 OA 
HETATM    8  C   UNL     1      -8.029  16.904  66.274  1.00  0.00    -0.350 C  
HETATM    9  N   UNL     1      -8.958  14.702  66.345  1.00  0.00    -0.212 NA 
HETATM   10  C   UNL     1     -10.197  17.729  68.030  1.00  0.00    -0.377 C  
HETATM   11  C   UNL     1      -8.984  18.608  67.774  1.00  0.00    -0.301 C  
HETATM   12  C   UNL     1      -9.073  15.920  66.756  1.00  0.00    -0.248 C  
ENDROOT
BRANCH   3  13
HETATM   13  C   UNL     1     -11.957  13.121  68.132  1.00  0.00    -0.333 C  
BRANCH  13  14
HETATM   14  C   UNL     1     -11.466  12.217  69.297  1.00  0.00    -0.302 C  
BRANCH  14  15
HETATM   15  N   UNL     1     -11.852  10.798  69.201  1.00  0.00    -0.299 NA 
HETATM   16  C   UNL     1     -10.809   9.126  71.475  1.00  0.00    -0.436 C  
HETATM   17  C   UNL     1      -9.931   9.753  70.384  1.00  0.00    -0.294 C  
HETATM   18  C   UNL     1     -10.725   9.875  69.087  1.00  0.00    -0.224 C  
HETATM   19  C   UNL     1     -12.099   9.948  71.614  1.00  0.00    -0.457 C  
HETATM   20  C   UNL     1     -12.758  10.362  70.282  1.00  0.00    -0.155 C  
BRANCH  16  21
HETATM   21  C   UNL     1     -10.945   7.650  71.190  1.00  0.00    -0.246 A  
HETATM   22  N   UNL     1     -11.931   7.148  70.434  1.00  0.00    -0.201 NA 
HETATM   23  O   UNL     1     -11.531   5.862  70.098  1.00  0.00    -0.288 OA 
HETATM   24  C   UNL     1     -10.330   5.590  70.675  1.00  0.00    -0.262 A  
HETATM   25  C   UNL     1      -9.948   6.667  71.455  1.00  0.00    -0.189 A  
HETATM   26  C   UNL     1      -8.732   6.601  72.162  1.00  0.00    -0.130 A  
HETATM   27  C   UNL     1      -7.948   5.449  72.028  1.00  0.00    -0.113 A  
HETATM   28  C   UNL     1      -8.359   4.407  71.198  1.00  0.00    -0.089 A  
HETATM   29  C   UNL     1      -9.565   4.440  70.500  1.00  0.00    -0.269 A  
HETATM   30  F   UNL     1      -7.558   3.341  71.061  1.00  0.00    -0.039 F  
ENDBRANCH  16  21
ENDBRANCH  14  15
ENDBRANCH  13  14
ENDBRANCH   3  13
TORSDOF 4
ENDMDL
MODEL       55
REMARK 921   NORMALIZED FREE ENERGY PREDICTED BY IDOCK:   -6.16 KCAL/MOL
REMARK 922        TOTAL FREE ENERGY PREDICTED BY IDOCK:   -8.34 KCAL/MOL
REMARK 923 INTER-LIGAND FREE ENERGY PREDICTED BY IDOCK:   -7.82 KCAL/MOL
REMARK 924 INTRA-LIGAND FREE ENERGY PREDICTED BY IDOCK:   -0.52 KCAL/MOL
REMARK 927      BINDING AFFINITY PREDICTED BY RF-SCORE:    0.00 PKD
ROOT
HETATM    1  C   UNL     1      -7.235  14.515  67.641  1.00  0.00    -0.206 C  
HETATM    2  C   UNL     1      -8.043  15.683  67.137  1.00  0.00    -0.215 C  
HETATM    3  C   UNL     1      -9.090  15.597  66.294  1.00  0.00    -0.376 C  
HETATM    4  C   UNL     1      -8.044  20.488  67.206  1.00  0.00    -0.362 C  
HETATM    5  C   UNL     1      -9.779  16.874  65.958  1.00  0.00    -0.233 C  
HETATM    6  N   UNL     1      -9.304  18.020  66.564  1.00  0.00    -0.287 N  
HETATM    7  O   UNL     1     -10.730  16.874  65.180  1.00  0.00    -0.663 OA 
HETATM    8  C   UNL     1      -7.636  19.236  67.955  1.00  0.00    -0.319 C  
HETATM    9  N   UNL     1      -7.577  16.865  67.649  1.00  0.00    -0.161 NA 
HETATM   10  C   UNL     1      -9.929  19.274  66.165  1.00  0.00    -0.397 C  
HETATM   11  C   UNL     1      -9.548  20.473  67.017  1.00  0.00    -0.540 C  
HETATM   12  C   UNL     1      -8.181  17.963  67.344  1.00  0.00    -0.219 C  
ENDROOT
BRANCH   3  13
HETATM   13  C   UNL     1      -9.720  14.368  65.685  1.00  0.00    -0.258 C  
BRANCH  13  14
HETATM   14  C   UNL     1     -10.746  13.643  66.602  1.00  0.00    -0.280 C  
BRANCH  14  15
HETATM   15  N   UNL     1     -10.751  12.173  66.502  1.00  0.00    -0.247 NA 
HETATM   16  C   UNL     1     -10.229  10.803  69.130  1.00  0.00    -0.229 C  
HETATM   17  C   UNL     1      -9.186  11.615  68.352  1.00  0.00    -0.182 C  
HETATM   18  C   UNL     1      -9.481  11.541  66.857  1.00  0.00    -0.182 C  
HETATM   19  C   UNL     1     -11.633  11.297  68.752  1.00  0.00    -0.383 C  
HETATM   20  C   UNL     1     -11.858  11.538  67.245  1.00  0.00     0.024 C  
BRANCH  16  21
HETATM   21  C   UNL     1      -9.928   9.335  68.943  1.00  0.00    -0.181 A  
HETATM   22  N   UNL     1      -8.915   8.896  68.184  1.00  0.00    -0.137 NA 
HETATM   23  O   UNL     1      -8.725   7.568  68.539  1.00  0.00    -0.128 OA 
HETATM   24  C   UNL     1      -9.638   7.210  69.481  1.00  0.00    -0.154 A  
HETATM   25  C   UNL     1     -10.488   8.277  69.716  1.00  0.00    -0.220 A  
HETATM   26  C   UNL     1     -11.528   8.128  70.653  1.00  0.00    -0.237 A  
HETATM   27  C   UNL     1     -11.645   6.906  71.326  1.00  0.00    -0.352 A  
HETATM   28  C   UNL     1     -10.738   5.875  71.083  1.00  0.00    -0.265 A  
HETATM   29  C   UNL     1      -9.710   5.990  70.148  1.00  0.00    -0.204 A  
HETATM   30  F   UNL     1     -10.857   4.737  71.781  1.00  0.00    -0.224 F  
ENDBRANCH  16  21
ENDBRANCH  14  15
ENDBRANCH  13  14
ENDBRANCH   3  13
TORSDOF 4
ENDMDL
MODEL       56
REMARK 921   NORMALIZED FREE ENERGY PREDICTED BY IDOCK:   -6.14 KCAL/MOL
REMARK 922        TOTAL FREE ENERGY PREDICTED BY IDOCK:   -8.31 KCAL/MOL
REMARK 923 INTER-LIGAND FREE ENERGY PREDICTED BY IDOCK:   -8.21 KCAL/MOL
REMARK 924 INTRA-LIGAND FREE ENERGY PREDICTED BY IDOCK:   -0.10 KCAL/MOL
REMARK 927      BINDING AFFINITY PREDICTED BY RF-SCORE:    0.00 PKD
ROOT
HETATM    1  C   UNL     1     -10.232  13.628  67.431  1.00  0.00    -0.241 C  
HETATM    2  C   UNL     1     -11.086  13.342  68.638  1.00  0.00    -0.268 C  
HETATM    3  C   UNL     1     -11.520  12.122  69.011  1.00  0.00    -0.351 C  
HETATM    4  C   UNL     1     -13.521  15.644  72.081  1.00  0.00    -0.561 C  
HETATM    5  C   UNL     1     -12.316  12.055  70.268  1.00  0.00    -0.195 C  
HETATM    6  N   UNL     1     -12.508  13.240  70.951  1.00  0.00    -0.366 N  
HETATM    7  O   UNL     1     -12.761  10.978  70.659  1.00  0.00    -0.324 OA 
HETATM    8  C   UNL     1     -12.336  15.715  71.140  1.00  0.00    -0.482 C  
HETATM    9  N   UNL     1     -11.373  14.491  69.327  1.00  0.00    -0.271 NA 
HETATM   10  C   UNL     1     -13.358  13.178  72.132  1.00  0.00    -0.524 C  
HETATM   11  C   UNL     1     -13.354  14.437  72.983  1.00  0.00    -0.484 C  
HETATM   12  C   UNL     1     -12.068  14.417  70.411  1.00  0.00    -0.331 C  
ENDROOT
BRANCH   3  13
HETATM   13  C   UNL     1     -11.254  10.782  68.368  1.00  0.00    -0.345 C  
BRANCH  13  14
HETATM   14  C   UNL     1      -9.894  10.135  68.753  1.00  0.00    -0.175 C  
BRANCH  14  15
HETATM   15  N   UNL     1      -9.787   9.673  70.147  1.00  0.00    -0.249 NA 
HETATM   16  C   UNL     1      -9.393   6.699  70.385  1.00  0.00    -0.160 C  
HETATM   17  C   UNL     1     -10.686   7.367  69.900  1.00  0.00    -0.254 C  
HETATM   18  C   UNL     1     -10.836   8.738  70.552  1.00  0.00    -0.233 C  
HETATM   19  C   UNL     1      -8.210   7.643  70.120  1.00  0.00    -0.124 C  
HETATM   20  C   UNL     1      -8.459   9.121  70.483  1.00  0.00    -0.205 C  
BRANCH  16  21
HETATM   21  C   UNL     1      -9.604   6.220  71.801  1.00  0.00    -0.153 A  
HETATM   22  N   UNL     1      -9.838   7.058  72.820  1.00  0.00    -0.168 NA 
HETATM   23  O   UNL     1     -10.335   6.271  73.850  1.00  0.00    -0.257 OA 
HETATM   24  C   UNL     1     -10.367   4.969  73.457  1.00  0.00    -0.209 A  
HETATM   25  C   UNL     1      -9.831   4.866  72.186  1.00  0.00    -0.226 A  
HETATM   26  C   UNL     1      -9.753   3.599  71.578  1.00  0.00    -0.238 A  
HETATM   27  C   UNL     1     -10.242   2.493  72.284  1.00  0.00    -0.200 A  
HETATM   28  C   UNL     1     -10.809   2.655  73.548  1.00  0.00    -0.194 A  
HETATM   29  C   UNL     1     -10.884   3.897  74.178  1.00  0.00    -0.233 A  
HETATM   30  F   UNL     1     -11.307   1.579  74.172  1.00  0.00    -0.187 F  
ENDBRANCH  16  21
ENDBRANCH  14  15
ENDBRANCH  13  14
ENDBRANCH   3  13
TORSDOF 4
ENDMDL
MODEL       57
REMARK 921   NORMALIZED FREE ENERGY PREDICTED BY IDOCK:   -6.09 KCAL/MOL
REMARK 922        TOTAL FREE ENERGY PREDICTED BY IDOCK:   -8.26 KCAL/MOL
REMARK 923 INTER-LIGAND FREE ENERGY PREDICTED BY IDOCK:   -7.65 KCAL/MOL
REMARK 924 INTRA-LIGAND FREE ENERGY PREDICTED BY IDOCK:   -0.61 KCAL/MOL
REMARK 927      BINDING AFFINITY PREDICTED BY RF-SCORE:    0.00 PKD
ROOT
HETATM    1  C   UNL     1     -10.375   8.967  70.042  1.00  0.00    -0.219 C  
HETATM    2  C   UNL     1      -9.886   8.372  68.747  1.00  0.00    -0.173 C  
HETATM    3  C   UNL     1      -9.930   8.983  67.546  1.00  0.00    -0.262 C  
HETATM    4  C   UNL     1      -8.219   4.230  66.971  1.00  0.00    -0.101 C  
HETATM    5  C   UNL     1      -9.348   8.233  66.398  1.00  0.00    -0.213 C  
HETATM    6  N   UNL     1      -8.790   7.000  66.673  1.00  0.00    -0.126 N  
HETATM    7  O   UNL     1      -9.370   8.720  65.270  1.00  0.00    -0.122 OA 
HETATM    8  C   UNL     1      -8.322   5.098  68.209  1.00  0.00    -0.096 C  
HETATM    9  N   UNL     1      -9.380   7.114  68.939  1.00  0.00    -0.140 NA 
HETATM   10  C   UNL     1      -8.301   6.239  65.532  1.00  0.00    -0.147 C  
HETATM   11  C   UNL     1      -7.489   5.006  65.893  1.00  0.00    -0.082 C  
HETATM   12  C   UNL     1      -8.885   6.475  67.933  1.00  0.00    -0.114 C  
ENDROOT
BRANCH   3  13
HETATM   13  C   UNL     1     -10.426  10.366  67.202  1.00  0.00    -0.311 C  
BRANCH  13  14
HETATM   14  C   UNL     1      -9.342  11.478  67.257  1.00  0.00    -0.166 C  
BRANCH  14  15
HETATM   15  N   UNL     1      -9.609  12.574  68.205  1.00  0.00    -0.212 NA 
HETATM   16  C   UNL     1     -11.019  14.916  66.946  1.00  0.00    -0.327 C  
HETATM   17  C   UNL     1      -9.572  14.507  66.642  1.00  0.00    -0.291 C  
HETATM   18  C   UNL     1      -8.955  13.836  67.865  1.00  0.00    -0.193 C  
HETATM   19  C   UNL     1     -11.796  13.683  67.434  1.00  0.00    -0.429 C  
HETATM   20  C   UNL     1     -11.048  12.799  68.452  1.00  0.00    -0.262 C  
BRANCH  16  21
HETATM   21  C   UNL     1     -10.995  16.129  67.844  1.00  0.00    -0.318 A  
HETATM   22  N   UNL     1     -11.025  16.040  69.180  1.00  0.00    -0.274 NA 
HETATM   23  O   UNL     1     -10.623  17.283  69.651  1.00  0.00    -0.208 OA 
HETATM   24  C   UNL     1     -10.385  18.115  68.602  1.00  0.00    -0.298 A  
HETATM   25  C   UNL     1     -10.689  17.456  67.423  1.00  0.00    -0.251 A  
HETATM   26  C   UNL     1     -10.528  18.135  66.201  1.00  0.00    -0.377 A  
HETATM   27  C   UNL     1     -10.045  19.449  66.230  1.00  0.00    -0.539 A  
HETATM   28  C   UNL     1      -9.717  20.055  67.441  1.00  0.00    -0.417 A  
HETATM   29  C   UNL     1      -9.881  19.411  68.667  1.00  0.00    -0.522 A  
HETATM   30  F   UNL     1      -9.215  21.298  67.423  1.00  0.00    -0.456 F  
ENDBRANCH  16  21
ENDBRANCH  14  15
ENDBRANCH  13  14
ENDBRANCH   3  13
TORSDOF 4
ENDMDL
MODEL       58
REMARK 921   NORMALIZED FREE ENERGY PREDICTED BY IDOCK:   -6.09 KCAL/MOL
REMARK 922        TOTAL FREE ENERGY PREDICTED BY IDOCK:   -8.25 KCAL/MOL
REMARK 923 INTER-LIGAND FREE ENERGY PREDICTED BY IDOCK:   -7.96 KCAL/MOL
REMARK 924 INTRA-LIGAND FREE ENERGY PREDICTED BY IDOCK:   -0.29 KCAL/MOL
REMARK 927      BINDING AFFINITY PREDICTED BY RF-SCORE:    0.00 PKD
ROOT
HETATM    1  C   UNL     1     -11.666  15.345  64.256  1.00  0.00    -0.212 C  
HETATM    2  C   UNL     1     -10.965  15.996  65.421  1.00  0.00    -0.253 C  
HETATM    3  C   UNL     1     -10.360  15.339  66.429  1.00  0.00    -0.296 C  
HETATM    4  C   UNL     1     -10.253  20.336  67.356  1.00  0.00    -0.494 C  
HETATM    5  C   UNL     1      -9.685  16.178  67.458  1.00  0.00    -0.233 C  
HETATM    6  N   UNL     1      -9.714  17.546  67.269  1.00  0.00    -0.269 N  
HETATM    7  O   UNL     1      -9.128  15.647  68.417  1.00  0.00    -0.183 OA 
HETATM    8  C   UNL     1     -10.506  19.577  66.069  1.00  0.00    -0.611 C  
HETATM    9  N   UNL     1     -11.017  17.362  65.330  1.00  0.00    -0.462 NA 
HETATM   10  C   UNL     1      -9.126  18.361  68.323  1.00  0.00    -0.312 C  
HETATM   11  C   UNL     1      -8.965  19.830  67.973  1.00  0.00    -0.376 C  
HETATM   12  C   UNL     1     -10.433  18.074  66.233  1.00  0.00    -0.335 C  
ENDROOT
BRANCH   3  13
HETATM   13  C   UNL     1     -10.202  13.852  66.634  1.00  0.00    -0.276 C  
BRANCH  13  14
HETATM   14  C   UNL     1     -11.366  13.176  67.413  1.00  0.00    -0.306 C  
BRANCH  14  15
HETATM   15  N   UNL     1     -11.408  11.705  67.333  1.00  0.00    -0.353 NA 
HETATM   16  C   UNL     1      -9.625  10.356  69.348  1.00  0.00    -0.213 C  
HETATM   17  C   UNL     1      -9.121  11.170  68.149  1.00  0.00    -0.159 C  
HETATM   18  C   UNL     1     -10.126  11.084  67.005  1.00  0.00    -0.196 C  
HETATM   19  C   UNL     1     -11.034  10.839  69.724  1.00  0.00    -0.314 C  
HETATM   20  C   UNL     1     -11.987  11.069  68.533  1.00  0.00    -0.135 C  
BRANCH  16  21
HETATM   21  C   UNL     1      -9.446   8.889  69.039  1.00  0.00    -0.156 A  
HETATM   22  N   UNL     1      -8.566   8.444  68.132  1.00  0.00    -0.138 NA 
HETATM   23  O   UNL     1      -8.420   7.086  68.383  1.00  0.00    -0.123 OA 
HETATM   24  C   UNL     1      -9.231   6.720  69.411  1.00  0.00    -0.143 A  
HETATM   25  C   UNL     1      -9.974   7.816  69.814  1.00  0.00    -0.189 A  
HETATM   26  C   UNL     1     -10.897   7.666  70.866  1.00  0.00    -0.250 A  
HETATM   27  C   UNL     1     -11.009   6.411  71.477  1.00  0.00    -0.310 A  
HETATM   28  C   UNL     1     -10.209   5.348  71.060  1.00  0.00    -0.229 A  
HETATM   29  C   UNL     1      -9.299   5.466  70.010  1.00  0.00    -0.192 A  
HETATM   30  F   UNL     1     -10.314   4.175  71.700  1.00  0.00    -0.246 F  
ENDBRANCH  16  21
ENDBRANCH  14  15
ENDBRANCH  13  14
ENDBRANCH   3  13
TORSDOF 4
ENDMDL
MODEL       59
REMARK 921   NORMALIZED FREE ENERGY PREDICTED BY IDOCK:   -6.08 KCAL/MOL
REMARK 922        TOTAL FREE ENERGY PREDICTED BY IDOCK:   -8.24 KCAL/MOL
REMARK 923 INTER-LIGAND FREE ENERGY PREDICTED BY IDOCK:   -8.19 KCAL/MOL
REMARK 924 INTRA-LIGAND FREE ENERGY PREDICTED BY IDOCK:   -0.06 KCAL/MOL
REMARK 927      BINDING AFFINITY PREDICTED BY RF-SCORE:    0.00 PKD
ROOT
HETATM    1  C   UNL     1     -11.161  12.257  63.369  1.00  0.00    -0.487 C  
HETATM    2  C   UNL     1     -11.050  11.718  64.771  1.00  0.00    -0.296 C  
HETATM    3  C   UNL     1     -11.649  12.247  65.856  1.00  0.00    -0.450 C  
HETATM    4  C   UNL     1      -8.657   8.391  67.280  1.00  0.00    -0.123 C  
HETATM    5  C   UNL     1     -11.445  11.528  67.144  1.00  0.00    -0.237 C  
HETATM    6  N   UNL     1     -10.691  10.372  67.103  1.00  0.00    -0.266 N  
HETATM    7  O   UNL     1     -11.946  11.963  68.179  1.00  0.00    -0.496 OA 
HETATM    8  C   UNL     1      -9.211   8.759  65.919  1.00  0.00    -0.282 C  
HETATM    9  N   UNL     1     -10.254  10.604  64.812  1.00  0.00    -0.341 NA 
HETATM   10  C   UNL     1     -10.427   9.722  68.380  1.00  0.00    -0.218 C  
HETATM   11  C   UNL     1      -9.803   8.341  68.273  1.00  0.00    -0.192 C  
HETATM   12  C   UNL     1     -10.083   9.996  65.937  1.00  0.00    -0.249 C  
ENDROOT
BRANCH   3  13
HETATM   13  C   UNL     1     -12.568  13.441  65.946  1.00  0.00    -0.412 C  
BRANCH  13  14
HETATM   14  C   UNL     1     -11.895  14.805  65.629  1.00  0.00    -0.212 C  
BRANCH  14  15
HETATM   15  N   UNL     1     -10.619  15.055  66.322  1.00  0.00    -0.299 NA 
HETATM   16  C   UNL     1     -10.468  17.784  67.583  1.00  0.00    -0.393 C  
HETATM   17  C   UNL     1     -10.475  17.525  66.071  1.00  0.00    -0.274 C  
HETATM   18  C   UNL     1      -9.845  16.168  65.775  1.00  0.00    -0.320 C  
HETATM   19  C   UNL     1     -11.160  16.612  68.295  1.00  0.00    -0.295 C  
HETATM   20  C   UNL     1     -10.767  15.211  67.784  1.00  0.00    -0.279 C  
BRANCH  16  21
HETATM   21  C   UNL     1      -9.059  18.127  68.002  1.00  0.00    -0.283 A  
HETATM   22  N   UNL     1      -8.615  19.388  68.081  1.00  0.00    -0.326 NA 
HETATM   23  O   UNL     1      -7.447  19.331  68.829  1.00  0.00    -0.328 OA 
HETATM   24  C   UNL     1      -7.182  18.041  69.168  1.00  0.00    -0.148 A  
HETATM   25  C   UNL     1      -8.134  17.217  68.593  1.00  0.00    -0.261 A  
HETATM   26  C   UNL     1      -8.050  15.828  68.802  1.00  0.00    -0.179 A  
HETATM   27  C   UNL     1      -7.011  15.338  69.603  1.00  0.00    -0.188 A  
HETATM   28  C   UNL     1      -6.099  16.214  70.191  1.00  0.00    -0.094 A  
HETATM   29  C   UNL     1      -6.151  17.592  69.988  1.00  0.00    -0.118 A  
HETATM   30  F   UNL     1      -5.147  15.710  70.988  1.00  0.00    -0.140 F  
ENDBRANCH  16  21
ENDBRANCH  14  15
ENDBRANCH  13  14
ENDBRANCH   3  13
TORSDOF 4
ENDMDL
MODEL       60
REMARK 921   NORMALIZED FREE ENERGY PREDICTED BY IDOCK:   -6.08 KCAL/MOL
REMARK 922        TOTAL FREE ENERGY PREDICTED BY IDOCK:   -8.24 KCAL/MOL
REMARK 923 INTER-LIGAND FREE ENERGY PREDICTED BY IDOCK:   -7.93 KCAL/MOL
REMARK 924 INTRA-LIGAND FREE ENERGY PREDICTED BY IDOCK:   -0.31 KCAL/MOL
REMARK 927      BINDING AFFINITY PREDICTED BY RF-SCORE:    0.00 PKD
ROOT
HETATM    1  C   UNL     1     -11.345  15.841  64.672  1.00  0.00    -0.343 C  
HETATM    2  C   UNL     1     -10.138  15.631  65.550  1.00  0.00    -0.362 C  
HETATM    3  C   UNL     1      -9.862  14.504  66.235  1.00  0.00    -0.322 C  
HETATM    4  C   UNL     1      -6.420  18.067  67.374  1.00  0.00    -0.182 C  
HETATM    5  C   UNL     1      -8.589  14.491  67.008  1.00  0.00    -0.217 C  
HETATM    6  N   UNL     1      -7.796  15.619  66.926  1.00  0.00    -0.233 N  
HETATM    7  O   UNL     1      -8.281  13.504  67.671  1.00  0.00    -0.151 OA 
HETATM    8  C   UNL     1      -7.392  17.970  66.216  1.00  0.00    -0.317 C  
HETATM    9  N   UNL     1      -9.340  16.744  65.569  1.00  0.00    -0.374 NA 
HETATM   10  C   UNL     1      -6.596  15.630  67.752  1.00  0.00    -0.161 C  
HETATM   11  C   UNL     1      -5.636  16.772  67.460  1.00  0.00    -0.165 C  
HETATM   12  C   UNL     1      -8.244  16.719  66.248  1.00  0.00    -0.324 C  
ENDROOT
BRANCH   3  13
HETATM   13  C   UNL     1     -10.632  13.206  66.277  1.00  0.00    -0.292 C  
BRANCH  13  14
HETATM   14  C   UNL     1     -11.457  12.981  67.575  1.00  0.00    -0.328 C  
BRANCH  14  15
HETATM   15  N   UNL     1     -11.954  11.609  67.777  1.00  0.00    -0.623 NA 
HETATM   16  C   UNL     1     -10.230   9.982  69.631  1.00  0.00    -0.267 C  
HETATM   17  C   UNL     1      -9.806  10.441  68.230  1.00  0.00    -0.169 C  
HETATM   18  C   UNL     1     -11.033  10.564  67.332  1.00  0.00    -0.288 C  
HETATM   19  C   UNL     1     -11.298  10.945  70.172  1.00  0.00    -0.367 C  
HETATM   20  C   UNL     1     -12.393  11.342  69.161  1.00  0.00    -0.048 C  
BRANCH  16  21
HETATM   21  C   UNL     1     -10.576   8.514  69.569  1.00  0.00    -0.211 A  
HETATM   22  N   UNL     1     -10.437   7.785  68.453  1.00  0.00    -0.192 NA 
HETATM   23  O   UNL     1     -10.491   6.458  68.860  1.00  0.00    -0.181 OA 
HETATM   24  C   UNL     1     -10.691   6.399  70.204  1.00  0.00    -0.271 A  
HETATM   25  C   UNL     1     -10.838   7.683  70.697  1.00  0.00    -0.245 A  
HETATM   26  C   UNL     1     -11.069   7.863  72.074  1.00  0.00    -0.332 A  
HETATM   27  C   UNL     1     -11.118   6.728  72.893  1.00  0.00    -0.277 A  
HETATM   28  C   UNL     1     -10.924   5.458  72.352  1.00  0.00    -0.240 A  
HETATM   29  C   UNL     1     -10.710   5.251  70.990  1.00  0.00    -0.194 A  
HETATM   30  F   UNL     1     -10.934   4.401  73.176  1.00  0.00    -0.255 F  
ENDBRANCH  16  21
ENDBRANCH  14  15
ENDBRANCH  13  14
ENDBRANCH   3  13
TORSDOF 4
ENDMDL
MODEL       61
REMARK 921   NORMALIZED FREE ENERGY PREDICTED BY IDOCK:   -6.08 KCAL/MOL
REMARK 922        TOTAL FREE ENERGY PREDICTED BY IDOCK:   -8.24 KCAL/MOL
REMARK 923 INTER-LIGAND FREE ENERGY PREDICTED BY IDOCK:   -7.51 KCAL/MOL
REMARK 924 INTRA-LIGAND FREE ENERGY PREDICTED BY IDOCK:   -0.73 KCAL/MOL
REMARK 927      BINDING AFFINITY PREDICTED BY RF-SCORE:    0.00 PKD
ROOT
HETATM    1  C   UNL     1      -9.531  17.407  68.772  1.00  0.00    -0.256 C  
HETATM    2  C   UNL     1     -10.538  16.410  69.284  1.00  0.00    -0.311 C  
HETATM    3  C   UNL     1     -11.050  15.387  68.572  1.00  0.00    -0.295 C  
HETATM    4  C   UNL     1     -13.326  15.598  73.113  1.00  0.00    -0.660 C  
HETATM    5  C   UNL     1     -12.000  14.490  69.286  1.00  0.00    -0.319 C  
HETATM    6  N   UNL     1     -12.244  14.769  70.617  1.00  0.00    -0.296 N  
HETATM    7  O   UNL     1     -12.521  13.547  68.694  1.00  0.00    -0.082 OA 
HETATM    8  C   UNL     1     -12.029  16.216  72.630  1.00  0.00    -0.653 C  
HETATM    9  N   UNL     1     -10.878  16.673  70.585  1.00  0.00     0.050 NA 
HETATM   10  C   UNL     1     -13.238  13.938  71.283  1.00  0.00    -0.282 C  
HETATM   11  C   UNL     1     -13.307  14.117  72.790  1.00  0.00    -0.618 C  
HETATM   12  C   UNL     1     -11.707  15.889  71.188  1.00  0.00    -0.442 C  
ENDROOT
BRANCH   3  13
HETATM   13  C   UNL     1     -10.742  14.970  67.155  1.00  0.00    -0.303 C  
BRANCH  13  14
HETATM   14  C   UNL     1      -9.331  14.349  66.952  1.00  0.00    -0.256 C  
BRANCH  14  15
HETATM   15  N   UNL     1      -8.958  13.302  67.919  1.00  0.00    -0.189 NA 
HETATM   16  C   UNL     1      -7.850  10.825  66.616  1.00  0.00    -0.140 C  
HETATM   17  C   UNL     1      -9.311  11.281  66.513  1.00  0.00    -0.201 C  
HETATM   18  C   UNL     1      -9.703  12.053  67.769  1.00  0.00    -0.192 C  
HETATM   19  C   UNL     1      -6.962  12.047  66.894  1.00  0.00    -0.033 C  
HETATM   20  C   UNL     1      -7.507  13.025  67.954  1.00  0.00    -0.137 C  
BRANCH  16  21
HETATM   21  C   UNL     1      -7.778   9.670  67.587  1.00  0.00    -0.095 A  
HETATM   22  N   UNL     1      -6.947   9.661  68.637  1.00  0.00    -0.063 NA 
HETATM   23  O   UNL     1      -7.409   8.655  69.475  1.00  0.00    -0.065 OA 
HETATM   24  C   UNL     1      -8.489   8.049  68.912  1.00  0.00    -0.131 A  
HETATM   25  C   UNL     1      -8.718   8.602  67.664  1.00  0.00    -0.136 A  
HETATM   26  C   UNL     1      -9.787   8.116  66.888  1.00  0.00    -0.316 A  
HETATM   27  C   UNL     1     -10.591   7.103  67.426  1.00  0.00    -0.372 A  
HETATM   28  C   UNL     1     -10.343   6.607  68.705  1.00  0.00    -0.188 A  
HETATM   29  C   UNL     1      -9.280   7.059  69.487  1.00  0.00    -0.149 A  
HETATM   30  F   UNL     1     -11.162   5.670  69.201  1.00  0.00    -0.378 F  
ENDBRANCH  16  21
ENDBRANCH  14  15
ENDBRANCH  13  14
ENDBRANCH   3  13
TORSDOF 4
ENDMDL
MODEL       62
REMARK 921   NORMALIZED FREE ENERGY PREDICTED BY IDOCK:   -6.07 KCAL/MOL
REMARK 922        TOTAL FREE ENERGY PREDICTED BY IDOCK:   -8.23 KCAL/MOL
REMARK 923 INTER-LIGAND FREE ENERGY PREDICTED BY IDOCK:   -8.10 KCAL/MOL
REMARK 924 INTRA-LIGAND FREE ENERGY PREDICTED BY IDOCK:   -0.13 KCAL/MOL
REMARK 927      BINDING AFFINITY PREDICTED BY RF-SCORE:    0.00 PKD
ROOT
HETATM    1  C   UNL     1      -9.869  17.728  69.395  1.00  0.00     0.079 C  
HETATM    2  C   UNL     1     -10.746  16.530  69.655  1.00  0.00    -0.323 C  
HETATM    3  C   UNL     1     -10.900  15.484  68.820  1.00  0.00    -0.256 C  
HETATM    4  C   UNL     1     -14.022  14.954  72.797  1.00  0.00    -0.325 C  
HETATM    5  C   UNL     1     -11.780  14.380  69.294  1.00  0.00    -0.317 C  
HETATM    6  N   UNL     1     -12.331  14.515  70.553  1.00  0.00    -0.316 N  
HETATM    7  O   UNL     1     -11.981  13.402  68.577  1.00  0.00    -0.348 OA 
HETATM    8  C   UNL     1     -12.801  15.831  72.612  1.00  0.00    -0.554 C  
HETATM    9  N   UNL     1     -11.379  16.634  70.865  1.00  0.00    -0.071 NA 
HETATM   10  C   UNL     1     -13.257  13.471  70.973  1.00  0.00    -0.076 C  
HETATM   11  C   UNL     1     -13.654  13.528  72.438  1.00  0.00    -0.709 C  
HETATM   12  C   UNL     1     -12.144  15.671  71.258  1.00  0.00    -0.411 C  
ENDROOT
BRANCH   3  13
HETATM   13  C   UNL     1     -10.243  15.230  67.485  1.00  0.00    -0.239 C  
BRANCH  13  14
HETATM   14  C   UNL     1     -11.122  15.581  66.251  1.00  0.00    -0.177 C  
BRANCH  14  15
HETATM   15  N   UNL     1     -10.863  14.778  65.044  1.00  0.00    -0.399 NA 
HETATM   16  C   UNL     1     -11.099  11.815  65.515  1.00  0.00    -0.336 C  
HETATM   17  C   UNL     1      -9.988  12.700  66.094  1.00  0.00    -0.269 C  
HETATM   18  C   UNL     1      -9.720  13.874  65.156  1.00  0.00     0.051 C  
HETATM   19  C   UNL     1     -12.337  12.681  65.237  1.00  0.00    -0.528 C  
HETATM   20  C   UNL     1     -12.049  14.039  64.565  1.00  0.00    -0.459 C  
BRANCH  16  21
HETATM   21  C   UNL     1     -10.527  11.021  64.365  1.00  0.00    -0.354 A  
HETATM   22  N   UNL     1     -10.627  11.420  63.090  1.00  0.00    -0.280 NA 
HETATM   23  O   UNL     1      -9.698  10.667  62.385  1.00  0.00    -0.204 OA 
HETATM   24  C   UNL     1      -9.072   9.803  63.229  1.00  0.00    -0.237 A  
HETATM   25  C   UNL     1      -9.623   9.926  64.493  1.00  0.00    -0.290 A  
HETATM   26  C   UNL     1      -9.134   9.113  65.532  1.00  0.00    -0.275 A  
HETATM   27  C   UNL     1      -8.090   8.225  65.246  1.00  0.00    -0.142 A  
HETATM   28  C   UNL     1      -7.543   8.167  63.965  1.00  0.00    -0.130 A  
HETATM   29  C   UNL     1      -8.020   8.949  62.914  1.00  0.00    -0.159 A  
HETATM   30  F   UNL     1      -6.515   7.336  63.742  1.00  0.00    -0.045 F  
ENDBRANCH  16  21
ENDBRANCH  14  15
ENDBRANCH  13  14
ENDBRANCH   3  13
TORSDOF 4
ENDMDL
MODEL       63
REMARK 921   NORMALIZED FREE ENERGY PREDICTED BY IDOCK:   -6.06 KCAL/MOL
REMARK 922        TOTAL FREE ENERGY PREDICTED BY IDOCK:   -8.21 KCAL/MOL
REMARK 923 INTER-LIGAND FREE ENERGY PREDICTED BY IDOCK:   -7.86 KCAL/MOL
REMARK 924 INTRA-LIGAND FREE ENERGY PREDICTED BY IDOCK:   -0.36 KCAL/MOL
REMARK 927      BINDING AFFINITY PREDICTED BY RF-SCORE:    0.00 PKD
ROOT
HETATM    1  C   UNL     1      -7.811  12.142  67.634  1.00  0.00    -0.153 C  
HETATM    2  C   UNL     1      -8.519  13.413  67.242  1.00  0.00    -0.200 C  
HETATM    3  C   UNL     1      -9.831  13.514  66.951  1.00  0.00    -0.257 C  
HETATM    4  C   UNL     1      -7.568  17.994  66.148  1.00  0.00    -0.285 C  
HETATM    5  C   UNL     1     -10.338  14.877  66.632  1.00  0.00    -0.283 C  
HETATM    6  N   UNL     1      -9.428  15.914  66.695  1.00  0.00    -0.226 N  
HETATM    7  O   UNL     1     -11.520  15.041  66.340  1.00  0.00    -0.321 OA 
HETATM    8  C   UNL     1      -7.110  16.786  66.940  1.00  0.00    -0.258 C  
HETATM    9  N   UNL     1      -7.654  14.474  67.217  1.00  0.00    -0.174 NA 
HETATM   10  C   UNL     1      -9.913  17.229  66.299  1.00  0.00    -0.300 C  
HETATM   11  C   UNL     1      -8.962  18.374  66.604  1.00  0.00    -0.295 C  
HETATM   12  C   UNL     1      -8.108  15.648  66.933  1.00  0.00    -0.255 C  
ENDROOT
BRANCH   3  13
HETATM   13  C   UNL     1     -10.893  12.441  66.971  1.00  0.00    -0.282 C  
BRANCH  13  14
HETATM   14  C   UNL     1     -11.649  12.300  68.322  1.00  0.00    -0.331 C  
BRANCH  14  15
HETATM   15  N   UNL     1     -12.158  10.951  68.623  1.00  0.00    -0.516 NA 
HETATM   16  C   UNL     1     -10.576   9.532  70.754  1.00  0.00    -0.387 C  
HETATM   17  C   UNL     1     -10.049   9.853  69.349  1.00  0.00    -0.227 C  
HETATM   18  C   UNL     1     -11.205   9.875  68.354  1.00  0.00    -0.074 C  
HETATM   19  C   UNL     1     -11.683  10.535  71.114  1.00  0.00    -0.323 C  
HETATM   20  C   UNL     1     -12.700  10.819  69.990  1.00  0.00    -0.111 C  
BRANCH  16  21
HETATM   21  C   UNL     1     -10.915   8.062  70.813  1.00  0.00    -0.248 A  
HETATM   22  N   UNL     1     -11.083   7.314  69.715  1.00  0.00    -0.221 NA 
HETATM   23  O   UNL     1     -11.011   5.995  70.142  1.00  0.00    -0.311 OA 
HETATM   24  C   UNL     1     -10.833   5.959  71.490  1.00  0.00    -0.266 A  
HETATM   25  C   UNL     1     -10.849   7.251  71.984  1.00  0.00    -0.264 A  
HETATM   26  C   UNL     1     -10.693   7.455  73.368  1.00  0.00    -0.407 A  
HETATM   27  C   UNL     1     -10.506   6.335  74.187  1.00  0.00    -0.250 A  
HETATM   28  C   UNL     1     -10.458   5.055  73.635  1.00  0.00    -0.246 A  
HETATM   29  C   UNL     1     -10.626   4.825  72.270  1.00  0.00    -0.225 A  
HETATM   30  F   UNL     1     -10.232   4.013  74.446  1.00  0.00    -0.159 F  
ENDBRANCH  16  21
ENDBRANCH  14  15
ENDBRANCH  13  14
ENDBRANCH   3  13
TORSDOF 4
ENDMDL
MODEL       64
REMARK 921   NORMALIZED FREE ENERGY PREDICTED BY IDOCK:   -6.05 KCAL/MOL
REMARK 922        TOTAL FREE ENERGY PREDICTED BY IDOCK:   -8.20 KCAL/MOL
REMARK 923 INTER-LIGAND FREE ENERGY PREDICTED BY IDOCK:   -7.31 KCAL/MOL
REMARK 924 INTRA-LIGAND FREE ENERGY PREDICTED BY IDOCK:   -0.88 KCAL/MOL
REMARK 927      BINDING AFFINITY PREDICTED BY RF-SCORE:    0.00 PKD
ROOT
HETATM    1  C   UNL     1     -12.462  14.038  71.208  1.00  0.00    -0.448 C  
HETATM    2  C   UNL     1     -12.033  13.560  69.845  1.00  0.00    -0.348 C  
HETATM    3  C   UNL     1     -12.087  12.283  69.418  1.00  0.00    -0.234 C  
HETATM    4  C   UNL     1      -9.861  15.166  65.871  1.00  0.00    -0.372 C  
HETATM    5  C   UNL     1     -11.657  12.033  68.014  1.00  0.00    -0.342 C  
HETATM    6  N   UNL     1     -11.274  13.133  67.272  1.00  0.00    -0.276 N  
HETATM    7  O   UNL     1     -11.662  10.890  67.562  1.00  0.00    -0.543 OA 
HETATM    8  C   UNL     1     -10.722  15.551  67.057  1.00  0.00    -0.321 C  
HETATM    9  N   UNL     1     -11.575  14.597  69.077  1.00  0.00    -0.282 NA 
HETATM   10  C   UNL     1     -10.775  12.869  65.929  1.00  0.00    -0.271 C  
HETATM   11  C   UNL     1     -10.588  14.106  65.067  1.00  0.00    -0.436 C  
HETATM   12  C   UNL     1     -11.200  14.363  67.865  1.00  0.00    -0.286 C  
ENDROOT
BRANCH   3  13
HETATM   13  C   UNL     1     -12.595  11.060  70.142  1.00  0.00    -0.281 C  
BRANCH  13  14
HETATM   14  C   UNL     1     -11.583  10.427  71.138  1.00  0.00    -0.228 C  
BRANCH  14  15
HETATM   15  N   UNL     1     -11.648   8.960  71.257  1.00  0.00    -0.285 NA 
HETATM   16  C   UNL     1      -9.018   7.607  70.703  1.00  0.00    -0.153 C  
HETATM   17  C   UNL     1      -9.866   8.324  69.644  1.00  0.00    -0.184 C  
HETATM   18  C   UNL     1     -11.342   8.243  70.021  1.00  0.00     0.000 C  
HETATM   19  C   UNL     1      -9.337   8.197  72.085  1.00  0.00    -0.270 C  
HETATM   20  C   UNL     1     -10.836   8.425  72.369  1.00  0.00    -0.346 C  
BRANCH  16  21
HETATM   21  C   UNL     1      -9.185   6.117  70.521  1.00  0.00    -0.157 A  
HETATM   22  N   UNL     1      -9.892   5.360  71.371  1.00  0.00    -0.161 NA 
HETATM   23  O   UNL     1     -10.129   4.165  70.705  1.00  0.00    -0.167 OA 
HETATM   24  C   UNL     1      -9.541   4.200  69.479  1.00  0.00    -0.204 A  
HETATM   25  C   UNL     1      -8.851   5.391  69.340  1.00  0.00    -0.117 A  
HETATM   26  C   UNL     1      -8.151   5.640  68.145  1.00  0.00    -0.097 A  
HETATM   27  C   UNL     1      -8.201   4.674  67.133  1.00  0.00    -0.105 A  
HETATM   28  C   UNL     1      -8.943   3.506  67.306  1.00  0.00    -0.146 A  
HETATM   29  C   UNL     1      -9.631   3.228  68.486  1.00  0.00    -0.125 A  
HETATM   30  F   UNL     1      -9.002   2.626  66.297  1.00  0.00    -0.127 F  
ENDBRANCH  16  21
ENDBRANCH  14  15
ENDBRANCH  13  14
ENDBRANCH   3  13
TORSDOF 4
ENDMDL
MODEL       65
REMARK 921   NORMALIZED FREE ENERGY PREDICTED BY IDOCK:   -6.00 KCAL/MOL
REMARK 922        TOTAL FREE ENERGY PREDICTED BY IDOCK:   -8.14 KCAL/MOL
REMARK 923 INTER-LIGAND FREE ENERGY PREDICTED BY IDOCK:   -7.36 KCAL/MOL
REMARK 924 INTRA-LIGAND FREE ENERGY PREDICTED BY IDOCK:   -0.78 KCAL/MOL
REMARK 927      BINDING AFFINITY PREDICTED BY RF-SCORE:    0.00 PKD
ROOT
HETATM    1  C   UNL     1     -11.381   8.964  71.019  1.00  0.00    -0.350 C  
HETATM    2  C   UNL     1     -10.774   7.899  70.143  1.00  0.00    -0.244 C  
HETATM    3  C   UNL     1     -10.484   8.042  68.835  1.00  0.00    -0.207 C  
HETATM    4  C   UNL     1      -9.572   3.248  70.261  1.00  0.00    -0.198 C  
HETATM    5  C   UNL     1      -9.842   6.877  68.166  1.00  0.00    -0.136 C  
HETATM    6  N   UNL     1      -9.574   5.773  68.951  1.00  0.00    -0.127 N  
HETATM    7  O   UNL     1      -9.566   6.928  66.969  1.00  0.00    -0.144 OA 
HETATM    8  C   UNL     1      -9.747   4.506  71.087  1.00  0.00    -0.256 C  
HETATM    9  N   UNL     1     -10.546   6.748  70.848  1.00  0.00    -0.217 NA 
HETATM   10  C   UNL     1      -9.025   4.608  68.270  1.00  0.00    -0.114 C  
HETATM   11  C   UNL     1      -8.527   3.509  69.194  1.00  0.00    -0.096 C  
HETATM   12  C   UNL     1      -9.994   5.745  70.252  1.00  0.00    -0.198 C  
ENDROOT
BRANCH   3  13
HETATM   13  C   UNL     1     -10.653   9.255  67.952  1.00  0.00    -0.288 C  
BRANCH  13  14
HETATM   14  C   UNL     1      -9.543  10.332  68.108  1.00  0.00    -0.140 C  
BRANCH  14  15
HETATM   15  N   UNL     1      -9.958  11.572  68.787  1.00  0.00    -0.190 NA 
HETATM   16  C   UNL     1     -10.888  13.712  66.887  1.00  0.00    -0.286 C  
HETATM   17  C   UNL     1      -9.437  13.227  67.006  1.00  0.00    -0.243 C  
HETATM   18  C   UNL     1      -9.166  12.748  68.429  1.00  0.00    -0.136 C  
HETATM   19  C   UNL     1     -11.831  12.592  67.353  1.00  0.00    -0.381 C  
HETATM   20  C   UNL     1     -11.398  11.866  68.642  1.00  0.00    -0.276 C  
BRANCH  16  21
HETATM   21  C   UNL     1     -11.001  15.053  67.571  1.00  0.00    -0.307 A  
HETATM   22  N   UNL     1     -11.734  15.241  68.676  1.00  0.00    -0.354 NA 
HETATM   23  O   UNL     1     -11.313  16.453  69.207  1.00  0.00    -0.300 OA 
HETATM   24  C   UNL     1     -10.357  16.997  68.406  1.00  0.00    -0.351 A  
HETATM   25  C   UNL     1     -10.179  16.185  67.299  1.00  0.00    -0.277 A  
HETATM   26  C   UNL     1      -9.239  16.562  66.321  1.00  0.00    -0.345 A  
HETATM   27  C   UNL     1      -8.506  17.738  66.523  1.00  0.00    -0.288 A  
HETATM   28  C   UNL     1      -8.695  18.500  67.674  1.00  0.00    -0.267 A  
HETATM   29  C   UNL     1      -9.631  18.159  68.650  1.00  0.00    -0.342 A  
HETATM   30  F   UNL     1      -7.942  19.594  67.852  1.00  0.00    -0.305 F  
ENDBRANCH  16  21
ENDBRANCH  14  15
ENDBRANCH  13  14
ENDBRANCH   3  13
TORSDOF 4
ENDMDL
MODEL       66
REMARK 921   NORMALIZED FREE ENERGY PREDICTED BY IDOCK:   -6.00 KCAL/MOL
REMARK 922        TOTAL FREE ENERGY PREDICTED BY IDOCK:   -8.14 KCAL/MOL
REMARK 923 INTER-LIGAND FREE ENERGY PREDICTED BY IDOCK:   -7.82 KCAL/MOL
REMARK 924 INTRA-LIGAND FREE ENERGY PREDICTED BY IDOCK:   -0.32 KCAL/MOL
REMARK 927      BINDING AFFINITY PREDICTED BY RF-SCORE:    0.00 PKD
ROOT
HETATM    1  C   UNL     1     -13.395   9.450  71.463  1.00  0.00    -0.458 C  
HETATM    2  C   UNL     1     -12.842  10.820  71.165  1.00  0.00    -0.414 C  
HETATM    3  C   UNL     1     -11.911  11.095  70.231  1.00  0.00    -0.455 C  
HETATM    4  C   UNL     1     -12.983  15.316  72.852  1.00  0.00    -0.564 C  
HETATM    5  C   UNL     1     -11.537  12.527  70.068  1.00  0.00    -0.130 C  
HETATM    6  N   UNL     1     -12.199  13.442  70.863  1.00  0.00    -0.339 N  
HETATM    7  O   UNL     1     -10.681  12.851  69.247  1.00  0.00    -0.086 OA 
HETATM    8  C   UNL     1     -13.746  14.013  72.727  1.00  0.00    -0.435 C  
HETATM    9  N   UNL     1     -13.410  11.770  71.972  1.00  0.00    -0.438 NA 
HETATM   10  C   UNL     1     -11.767  14.829  70.756  1.00  0.00    -0.300 C  
HETATM   11  C   UNL     1     -12.667  15.830  71.462  1.00  0.00    -0.512 C  
HETATM   12  C   UNL     1     -13.071  13.005  71.822  1.00  0.00    -0.373 C  
ENDROOT
BRANCH   3  13
HETATM   13  C   UNL     1     -11.233  10.158  69.262  1.00  0.00    -0.247 C  
BRANCH  13  14
HETATM   14  C   UNL     1      -9.795   9.728  69.671  1.00  0.00    -0.221 C  
BRANCH  14  15
HETATM   15  N   UNL     1      -9.624   8.293  69.958  1.00  0.00    -0.167 NA 
HETATM   16  C   UNL     1      -9.087   7.720  72.863  1.00  0.00    -0.255 C  
HETATM   17  C   UNL     1      -8.106   8.432  71.922  1.00  0.00    -0.193 C  
HETATM   18  C   UNL     1      -8.310   7.940  70.493  1.00  0.00    -0.124 C  
HETATM   19  C   UNL     1     -10.517   7.918  72.339  1.00  0.00    -0.339 C  
HETATM   20  C   UNL     1     -10.688   7.735  70.817  1.00  0.00    -0.226 C  
BRANCH  16  21
HETATM   21  C   UNL     1      -8.606   6.304  73.072  1.00  0.00    -0.121 A  
HETATM   22  N   UNL     1      -7.337   6.010  73.384  1.00  0.00    -0.089 NA 
HETATM   23  O   UNL     1      -7.356   4.702  73.848  1.00  0.00    -0.075 OA 
HETATM   24  C   UNL     1      -8.623   4.211  73.784  1.00  0.00    -0.091 A  
HETATM   25  C   UNL     1      -9.450   5.163  73.215  1.00  0.00    -0.149 A  
HETATM   26  C   UNL     1     -10.813   4.865  73.037  1.00  0.00    -0.331 A  
HETATM   27  C   UNL     1     -11.282   3.617  73.466  1.00  0.00    -0.285 A  
HETATM   28  C   UNL     1     -10.415   2.706  74.069  1.00  0.00    -0.156 A  
HETATM   29  C   UNL     1      -9.057   2.970  74.242  1.00  0.00    -0.091 A  
HETATM   30  F   UNL     1     -10.911   1.541  74.506  1.00  0.00    -0.158 F  
ENDBRANCH  16  21
ENDBRANCH  14  15
ENDBRANCH  13  14
ENDBRANCH   3  13
TORSDOF 4
ENDMDL
MODEL       67
REMARK 921   NORMALIZED FREE ENERGY PREDICTED BY IDOCK:   -5.96 KCAL/MOL
REMARK 922        TOTAL FREE ENERGY PREDICTED BY IDOCK:   -8.09 KCAL/MOL
REMARK 923 INTER-LIGAND FREE ENERGY PREDICTED BY IDOCK:   -7.49 KCAL/MOL
REMARK 924 INTRA-LIGAND FREE ENERGY PREDICTED BY IDOCK:   -0.61 KCAL/MOL
REMARK 927      BINDING AFFINITY PREDICTED BY RF-SCORE:    0.00 PKD
ROOT
HETATM    1  C   UNL     1      -6.713  10.432  67.160  1.00  0.00    -0.078 C  
HETATM    2  C   UNL     1      -7.822   9.565  67.697  1.00  0.00    -0.102 C  
HETATM    3  C   UNL     1      -8.973   9.290  67.053  1.00  0.00    -0.142 C  
HETATM    4  C   UNL     1      -9.115   7.274  71.717  1.00  0.00    -0.141 C  
HETATM    5  C   UNL     1      -9.918   8.370  67.745  1.00  0.00    -0.186 C  
HETATM    6  N   UNL     1      -9.515   7.860  68.963  1.00  0.00    -0.151 N  
HETATM    7  O   UNL     1     -10.996   8.089  67.225  1.00  0.00    -0.175 OA 
HETATM    8  C   UNL     1      -7.944   7.767  70.891  1.00  0.00    -0.097 C  
HETATM    9  N   UNL     1      -7.514   9.080  68.940  1.00  0.00    -0.074 NA 
HETATM   10  C   UNL     1     -10.480   7.029  69.671  1.00  0.00    -0.223 C  
HETATM   11  C   UNL     1      -9.922   6.300  70.882  1.00  0.00    -0.219 C  
HETATM   12  C   UNL     1      -8.346   8.289  69.529  1.00  0.00    -0.121 C  
ENDROOT
BRANCH   3  13
HETATM   13  C   UNL     1      -9.421   9.728  65.679  1.00  0.00    -0.307 C  
BRANCH  13  14
HETATM   14  C   UNL     1     -10.361  10.966  65.667  1.00  0.00    -0.242 C  
BRANCH  14  15
HETATM   15  N   UNL     1      -9.690  12.267  65.499  1.00  0.00    -0.206 NA 
HETATM   16  C   UNL     1     -11.345  14.591  66.457  1.00  0.00    -0.354 C  
HETATM   17  C   UNL     1     -11.675  13.739  65.224  1.00  0.00    -0.349 C  
HETATM   18  C   UNL     1     -10.388  13.195  64.611  1.00  0.00    -0.361 C  
HETATM   19  C   UNL     1     -10.500  13.756  67.431  1.00  0.00    -0.256 C  
HETATM   20  C   UNL     1      -9.372  12.932  66.779  1.00  0.00    -0.243 C  
BRANCH  16  21
HETATM   21  C   UNL     1     -10.778  15.909  65.988  1.00  0.00    -0.284 A  
HETATM   22  N   UNL     1     -11.254  16.562  64.920  1.00  0.00    -0.426 NA 
HETATM   23  O   UNL     1     -10.760  17.856  65.017  1.00  0.00    -0.653 OA 
HETATM   24  C   UNL     1      -9.971  17.964  66.120  1.00  0.00    -0.283 A  
HETATM   25  C   UNL     1      -9.877  16.726  66.732  1.00  0.00    -0.282 A  
HETATM   26  C   UNL     1      -9.095  16.598  67.895  1.00  0.00    -0.218 A  
HETATM   27  C   UNL     1      -8.458  17.740  68.396  1.00  0.00    -0.295 A  
HETATM   28  C   UNL     1      -8.615  18.972  67.764  1.00  0.00    -0.298 A  
HETATM   29  C   UNL     1      -9.371  19.123  66.602  1.00  0.00    -0.375 A  
HETATM   30  F   UNL     1      -8.026  20.050  68.300  1.00  0.00    -0.345 F  
ENDBRANCH  16  21
ENDBRANCH  14  15
ENDBRANCH  13  14
ENDBRANCH   3  13
TORSDOF 4
ENDMDL
MODEL       68
REMARK 921   NORMALIZED FREE ENERGY PREDICTED BY IDOCK:   -5.94 KCAL/MOL
REMARK 922        TOTAL FREE ENERGY PREDICTED BY IDOCK:   -8.07 KCAL/MOL
REMARK 923 INTER-LIGAND FREE ENERGY PREDICTED BY IDOCK:   -8.86 KCAL/MOL
REMARK 924 INTRA-LIGAND FREE ENERGY PREDICTED BY IDOCK:    0.80 KCAL/MOL
REMARK 927      BINDING AFFINITY PREDICTED BY RF-SCORE:    0.00 PKD
ROOT
HETATM    1  C   UNL     1      -9.909  10.978  68.178  1.00  0.00    -0.185 C  
HETATM    2  C   UNL     1     -10.833  10.518  69.276  1.00  0.00    -0.243 C  
HETATM    3  C   UNL     1     -11.646  11.318  69.993  1.00  0.00    -0.404 C  
HETATM    4  C   UNL     1     -11.891   6.579  71.817  1.00  0.00    -0.384 C  
HETATM    5  C   UNL     1     -12.514  10.650  71.002  1.00  0.00    -0.413 C  
HETATM    6  N   UNL     1     -12.431   9.275  71.088  1.00  0.00    -0.297 N  
HETATM    7  O   UNL     1     -13.267  11.320  71.706  1.00  0.00    -0.450 OA 
HETATM    8  C   UNL     1     -11.380   7.099  70.489  1.00  0.00    -0.333 C  
HETATM    9  N   UNL     1     -10.748   9.163  69.460  1.00  0.00    -0.229 NA 
HETATM   10  C   UNL     1     -13.220   8.639  72.134  1.00  0.00    -0.383 C  
HETATM   11  C   UNL     1     -13.287   7.124  72.047  1.00  0.00    -0.169 C  
HETATM   12  C   UNL     1     -11.502   8.601  70.343  1.00  0.00    -0.136 C  
ENDROOT
BRANCH   3  13
HETATM   13  C   UNL     1     -11.860  12.808  69.872  1.00  0.00    -0.371 C  
BRANCH  13  14
HETATM   14  C   UNL     1     -11.837  13.352  68.416  1.00  0.00    -0.366 C  
BRANCH  14  15
HETATM   15  N   UNL     1     -11.297  14.713  68.260  1.00  0.00    -0.283 NA 
HETATM   16  C   UNL     1      -8.677  14.790  66.781  1.00  0.00    -0.255 C  
HETATM   17  C   UNL     1      -8.865  14.201  68.185  1.00  0.00    -0.183 C  
HETATM   18  C   UNL     1     -10.001  14.924  68.903  1.00  0.00    -0.233 C  
HETATM   19  C   UNL     1     -10.016  14.735  66.031  1.00  0.00    -0.336 C  
HETATM   20  C   UNL     1     -11.246  15.167  66.856  1.00  0.00    -0.292 C  
BRANCH  16  21
HETATM   21  C   UNL     1      -8.002  16.134  66.913  1.00  0.00    -0.244 A  
HETATM   22  N   UNL     1      -6.708  16.325  66.621  1.00  0.00    -0.240 NA 
HETATM   23  O   UNL     1      -6.547  17.699  66.505  1.00  0.00    -0.181 OA 
HETATM   24  C   UNL     1      -7.729  18.323  66.757  1.00  0.00    -0.225 A  
HETATM   25  C   UNL     1      -8.675  17.376  67.108  1.00  0.00    -0.239 A  
HETATM   26  C   UNL     1      -9.979  17.799  67.425  1.00  0.00    -0.323 A  
HETATM   27  C   UNL     1     -10.270  19.166  67.352  1.00  0.00    -0.490 A  
HETATM   28  C   UNL     1      -9.291  20.077  66.955  1.00  0.00    -0.386 A  
HETATM   29  C   UNL     1      -7.988  19.686  66.651  1.00  0.00    -0.321 A  
HETATM   30  F   UNL     1      -9.621  21.372  66.853  1.00  0.00    -0.268 F  
ENDBRANCH  16  21
ENDBRANCH  14  15
ENDBRANCH  13  14
ENDBRANCH   3  13
TORSDOF 4
ENDMDL
MODEL       69
REMARK 921   NORMALIZED FREE ENERGY PREDICTED BY IDOCK:   -5.93 KCAL/MOL
REMARK 922        TOTAL FREE ENERGY PREDICTED BY IDOCK:   -8.06 KCAL/MOL
REMARK 923 INTER-LIGAND FREE ENERGY PREDICTED BY IDOCK:   -7.35 KCAL/MOL
REMARK 924 INTRA-LIGAND FREE ENERGY PREDICTED BY IDOCK:   -0.71 KCAL/MOL
REMARK 927      BINDING AFFINITY PREDICTED BY RF-SCORE:    0.00 PKD
ROOT
HETATM    1  C   UNL     1     -11.907  14.864  68.848  1.00  0.00    -0.334 C  
HETATM    2  C   UNL     1     -10.810  15.671  68.203  1.00  0.00    -0.301 C  
HETATM    3  C   UNL     1      -9.637  15.175  67.763  1.00  0.00    -0.203 C  
HETATM    4  C   UNL     1      -9.633  20.234  67.264  1.00  0.00    -0.581 C  
HETATM    5  C   UNL     1      -8.710  16.141  67.112  1.00  0.00    -0.194 C  
HETATM    6  N   UNL     1      -9.148  17.445  66.991  1.00  0.00    -0.236 N  
HETATM    7  O   UNL     1      -7.614  15.763  66.703  1.00  0.00    -0.196 OA 
HETATM    8  C   UNL     1     -10.780  19.264  67.464  1.00  0.00    -0.571 C  
HETATM    9  N   UNL     1     -11.155  16.994  68.114  1.00  0.00    -0.266 NA 
HETATM   10  C   UNL     1      -8.201  18.400  66.430  1.00  0.00    -0.257 C  
HETATM   11  C   UNL     1      -8.793  19.758  66.096  1.00  0.00    -0.378 C  
HETATM   12  C   UNL     1     -10.337  17.819  67.553  1.00  0.00    -0.369 C  
ENDROOT
BRANCH   3  13
HETATM   13  C   UNL     1      -9.148  13.747  67.770  1.00  0.00    -0.193 C  
BRANCH  13  14
HETATM   14  C   UNL     1      -9.695  12.867  66.611  1.00  0.00    -0.254 C  
BRANCH  14  15
HETATM   15  N   UNL     1     -10.406  11.645  67.028  1.00  0.00    -0.212 NA 
HETATM   16  C   UNL     1      -8.577   9.292  67.445  1.00  0.00    -0.122 C  
HETATM   17  C   UNL     1      -8.882   9.923  66.080  1.00  0.00    -0.163 C  
HETATM   18  C   UNL     1     -10.283  10.529  66.091  1.00  0.00    -0.236 C  
HETATM   19  C   UNL     1      -8.787  10.346  68.543  1.00  0.00    -0.142 C  
HETATM   20  C   UNL     1     -10.060  11.203  68.393  1.00  0.00    -0.184 C  
BRANCH  16  21
HETATM   21  C   UNL     1      -9.349   7.999  67.557  1.00  0.00    -0.147 A  
HETATM   22  N   UNL     1     -10.455   7.881  68.305  1.00  0.00    -0.192 NA 
HETATM   23  O   UNL     1     -11.073   6.712  67.881  1.00  0.00    -0.269 OA 
HETATM   24  C   UNL     1     -10.325   6.123  66.910  1.00  0.00    -0.248 A  
HETATM   25  C   UNL     1      -9.168   6.859  66.721  1.00  0.00    -0.177 A  
HETATM   26  C   UNL     1      -8.231   6.425  65.765  1.00  0.00    -0.134 A  
HETATM   27  C   UNL     1      -8.523   5.272  65.025  1.00  0.00    -0.150 A  
HETATM   28  C   UNL     1      -9.721   4.589  65.225  1.00  0.00    -0.172 A  
HETATM   29  C   UNL     1     -10.658   4.988  66.178  1.00  0.00    -0.321 A  
HETATM   30  F   UNL     1      -9.984   3.516  64.466  1.00  0.00    -0.154 F  
ENDBRANCH  16  21
ENDBRANCH  14  15
ENDBRANCH  13  14
ENDBRANCH   3  13
TORSDOF 4
ENDMDL
MODEL       70
REMARK 921   NORMALIZED FREE ENERGY PREDICTED BY IDOCK:   -5.89 KCAL/MOL
REMARK 922        TOTAL FREE ENERGY PREDICTED BY IDOCK:   -8.01 KCAL/MOL
REMARK 923 INTER-LIGAND FREE ENERGY PREDICTED BY IDOCK:   -7.27 KCAL/MOL
REMARK 924 INTRA-LIGAND FREE ENERGY PREDICTED BY IDOCK:   -0.74 KCAL/MOL
REMARK 927      BINDING AFFINITY PREDICTED BY RF-SCORE:    0.00 PKD
ROOT
HETATM    1  C   UNL     1     -12.335   8.146  70.981  1.00  0.00    -0.152 C  
HETATM    2  C   UNL     1     -11.594   6.840  71.107  1.00  0.00    -0.329 C  
HETATM    3  C   UNL     1     -11.100   6.126  70.077  1.00  0.00    -0.462 C  
HETATM    4  C   UNL     1     -10.423   3.551  74.408  1.00  0.00    -0.258 C  
HETATM    5  C   UNL     1     -10.359   4.882  70.427  1.00  0.00    -0.178 C  
HETATM    6  N   UNL     1     -10.218   4.594  71.770  1.00  0.00    -0.191 N  
HETATM    7  O   UNL     1      -9.895   4.171  69.538  1.00  0.00    -0.206 OA 
HETATM    8  C   UNL     1     -10.728   5.016  74.169  1.00  0.00    -0.297 C  
HETATM    9  N   UNL     1     -11.480   6.459  72.417  1.00  0.00    -0.284 NA 
HETATM   10  C   UNL     1      -9.566   3.334  72.099  1.00  0.00    -0.139 C  
HETATM   11  C   UNL     1      -9.221   3.163  73.569  1.00  0.00    -0.096 C  
HETATM   12  C   UNL     1     -10.840   5.376  72.703  1.00  0.00    -0.256 C  
ENDROOT
BRANCH   3  13
HETATM   13  C   UNL     1     -11.127   6.443  68.601  1.00  0.00    -0.393 C  
BRANCH  13  14
HETATM   14  C   UNL     1     -10.004   7.406  68.123  1.00  0.00    -0.166 C  
BRANCH  14  15
HETATM   15  N   UNL     1     -10.430   8.452  67.177  1.00  0.00    -0.315 NA 
HETATM   16  C   UNL     1      -8.623  10.859  67.177  1.00  0.00    -0.130 C  
HETATM   17  C   UNL     1      -9.542  10.463  68.340  1.00  0.00    -0.153 C  
HETATM   18  C   UNL     1     -10.767   9.728  67.805  1.00  0.00    -0.272 C  
HETATM   19  C   UNL     1      -8.284   9.605  66.356  1.00  0.00    -0.119 C  
HETATM   20  C   UNL     1      -9.475   8.668  66.071  1.00  0.00    -0.208 C  
BRANCH  16  21
HETATM   21  C   UNL     1      -9.249  12.025  66.450  1.00  0.00    -0.216 A  
HETATM   22  N   UNL     1      -9.893  11.887  65.283  1.00  0.00    -0.245 NA 
HETATM   23  O   UNL     1     -10.626  13.055  65.117  1.00  0.00    -0.294 OA 
HETATM   24  C   UNL     1     -10.395  13.894  66.162  1.00  0.00    -0.301 A  
HETATM   25  C   UNL     1      -9.456  13.322  67.003  1.00  0.00    -0.243 A  
HETATM   26  C   UNL     1      -9.052  14.025  68.153  1.00  0.00    -0.192 A  
HETATM   27  C   UNL     1      -9.637  15.271  68.410  1.00  0.00    -0.206 A  
HETATM   28  C   UNL     1     -10.608  15.786  67.552  1.00  0.00    -0.309 A  
HETATM   29  C   UNL     1     -11.014  15.118  66.397  1.00  0.00    -0.329 A  
HETATM   30  F   UNL     1     -11.177  16.961  67.856  1.00  0.00    -0.330 F  
ENDBRANCH  16  21
ENDBRANCH  14  15
ENDBRANCH  13  14
ENDBRANCH   3  13
TORSDOF 4
ENDMDL
MODEL       71
REMARK 921   NORMALIZED FREE ENERGY PREDICTED BY IDOCK:   -5.87 KCAL/MOL
REMARK 922        TOTAL FREE ENERGY PREDICTED BY IDOCK:   -7.97 KCAL/MOL
REMARK 923 INTER-LIGAND FREE ENERGY PREDICTED BY IDOCK:   -7.77 KCAL/MOL
REMARK 924 INTRA-LIGAND FREE ENERGY PREDICTED BY IDOCK:   -0.21 KCAL/MOL
REMARK 927      BINDING AFFINITY PREDICTED BY RF-SCORE:    0.00 PKD
ROOT
HETATM    1  C   UNL     1     -11.257   7.396  70.366  1.00  0.00    -0.284 C  
HETATM    2  C   UNL     1     -10.632   6.524  69.308  1.00  0.00    -0.247 C  
HETATM    3  C   UNL     1     -10.386   6.900  68.038  1.00  0.00    -0.230 C  
HETATM    4  C   UNL     1      -9.237   1.980  68.604  1.00  0.00    -0.223 C  
HETATM    5  C   UNL     1      -9.716   5.895  67.166  1.00  0.00    -0.132 C  
HETATM    6  N   UNL     1      -9.381   4.687  67.745  1.00  0.00    -0.133 N  
HETATM    7  O   UNL     1      -9.477   6.162  65.990  1.00  0.00    -0.121 OA 
HETATM    8  C   UNL     1      -9.440   3.071  69.637  1.00  0.00    -0.177 C  
HETATM    9  N   UNL     1     -10.336   5.281  69.802  1.00  0.00    -0.293 NA 
HETATM   10  C   UNL     1      -8.804   3.681  66.864  1.00  0.00    -0.130 C  
HETATM   11  C   UNL     1      -8.235   2.466  67.575  1.00  0.00    -0.077 C  
HETATM   12  C   UNL     1      -9.761   4.420  69.031  1.00  0.00    -0.153 C  
ENDROOT
BRANCH   3  13
HETATM   13  C   UNL     1     -10.630   8.236  67.379  1.00  0.00    -0.324 C  
BRANCH  13  14
HETATM   14  C   UNL     1      -9.479   9.266  67.552  1.00  0.00    -0.132 C  
BRANCH  14  15
HETATM   15  N   UNL     1      -9.708  10.302  68.575  1.00  0.00    -0.156 NA 
HETATM   16  C   UNL     1     -11.351  12.616  67.574  1.00  0.00    -0.361 C  
HETATM   17  C   UNL     1      -9.921  12.302  67.114  1.00  0.00    -0.213 C  
HETATM   18  C   UNL     1      -9.155  11.612  68.238  1.00  0.00    -0.187 C  
HETATM   19  C   UNL     1     -12.013  11.321  68.070  1.00  0.00    -0.132 C  
HETATM   20  C   UNL     1     -11.125  10.435  68.968  1.00  0.00    -0.248 C  
BRANCH  16  21
HETATM   21  C   UNL     1     -11.300  13.787  68.525  1.00  0.00    -0.285 A  
HETATM   22  N   UNL     1     -10.870  15.001  68.155  1.00  0.00    -0.255 NA 
HETATM   23  O   UNL     1     -11.305  15.873  69.144  1.00  0.00    -0.317 OA 
HETATM   24  C   UNL     1     -11.962  15.179  70.111  1.00  0.00    -0.334 A  
HETATM   25  C   UNL     1     -11.916  13.829  69.810  1.00  0.00    -0.406 A  
HETATM   26  C   UNL     1     -12.527  12.913  70.687  1.00  0.00    -0.333 A  
HETATM   27  C   UNL     1     -13.177  13.412  71.822  1.00  0.00    -0.495 A  
HETATM   28  C   UNL     1     -13.229  14.785  72.060  1.00  0.00    -0.351 A  
HETATM   29  C   UNL     1     -12.619  15.712  71.216  1.00  0.00    -0.523 A  
HETATM   30  F   UNL     1     -13.900  15.226  73.133  1.00  0.00    -0.517 F  
ENDBRANCH  16  21
ENDBRANCH  14  15
ENDBRANCH  13  14
ENDBRANCH   3  13
TORSDOF 4
ENDMDL
MODEL       72
REMARK 921   NORMALIZED FREE ENERGY PREDICTED BY IDOCK:   -5.82 KCAL/MOL
REMARK 922        TOTAL FREE ENERGY PREDICTED BY IDOCK:   -7.92 KCAL/MOL
REMARK 923 INTER-LIGAND FREE ENERGY PREDICTED BY IDOCK:   -7.93 KCAL/MOL
REMARK 924 INTRA-LIGAND FREE ENERGY PREDICTED BY IDOCK:    0.01 KCAL/MOL
REMARK 927      BINDING AFFINITY PREDICTED BY RF-SCORE:    0.00 PKD
ROOT
HETATM    1  C   UNL     1     -13.280   9.386  71.344  1.00  0.00    -0.415 C  
HETATM    2  C   UNL     1     -12.807  10.763  70.957  1.00  0.00    -0.385 C  
HETATM    3  C   UNL     1     -12.034  11.048  69.890  1.00  0.00    -0.427 C  
HETATM    4  C   UNL     1     -12.786  15.272  72.617  1.00  0.00    -0.482 C  
HETATM    5  C   UNL     1     -11.719  12.486  69.663  1.00  0.00    -0.302 C  
HETATM    6  N   UNL     1     -12.273  13.395  70.543  1.00  0.00    -0.365 N  
HETATM    7  O   UNL     1     -11.005  12.818  68.720  1.00  0.00    -0.240 OA 
HETATM    8  C   UNL     1     -13.531  13.953  72.617  1.00  0.00    -0.652 C  
HETATM    9  N   UNL     1     -13.266  11.709  71.834  1.00  0.00    -0.454 NA 
HETATM   10  C   UNL     1     -11.891  14.789  70.364  1.00  0.00    -0.295 C  
HETATM   11  C   UNL     1     -12.694  15.778  71.190  1.00  0.00    -0.488 C  
HETATM   12  C   UNL     1     -12.980  12.950  71.626  1.00  0.00    -0.313 C  
ENDROOT
BRANCH   3  13
HETATM   13  C   UNL     1     -11.491  10.115  68.836  1.00  0.00    -0.125 C  
BRANCH  13  14
HETATM   14  C   UNL     1     -10.320   9.209  69.310  1.00  0.00    -0.216 C  
BRANCH  14  15
HETATM   15  N   UNL     1     -10.720   7.924  69.909  1.00  0.00    -0.247 NA 
HETATM   16  C   UNL     1      -8.684   5.743  69.511  1.00  0.00    -0.111 C  
HETATM   17  C   UNL     1      -9.530   6.357  68.388  1.00  0.00    -0.119 C  
HETATM   18  C   UNL     1     -10.867   6.832  68.948  1.00  0.00    -0.243 C  
HETATM   19  C   UNL     1      -8.549   6.764  70.652  1.00  0.00    -0.142 C  
HETATM   20  C   UNL     1      -9.851   7.502  71.026  1.00  0.00    -0.179 C  
BRANCH  16  21
HETATM   21  C   UNL     1      -9.249   4.385  69.848  1.00  0.00    -0.133 A  
HETATM   22  N   UNL     1      -9.079   3.315  69.060  1.00  0.00    -0.131 NA 
HETATM   23  O   UNL     1      -9.398   2.214  69.843  1.00  0.00    -0.116 OA 
HETATM   24  C   UNL     1      -9.785   2.628  71.080  1.00  0.00    -0.087 A  
HETATM   25  C   UNL     1      -9.791   4.011  71.113  1.00  0.00    -0.236 A  
HETATM   26  C   UNL     1     -10.173   4.664  72.300  1.00  0.00    -0.256 A  
HETATM   27  C   UNL     1     -10.514   3.880  73.409  1.00  0.00    -0.254 A  
HETATM   28  C   UNL     1     -10.455   2.489  73.336  1.00  0.00    -0.140 A  
HETATM   29  C   UNL     1     -10.095   1.817  72.168  1.00  0.00    -0.227 A  
HETATM   30  F   UNL     1     -10.744   1.774  74.432  1.00  0.00    -0.151 F  
ENDBRANCH  16  21
ENDBRANCH  14  15
ENDBRANCH  13  14
ENDBRANCH   3  13
TORSDOF 4
ENDMDL
MODEL       73
REMARK 921   NORMALIZED FREE ENERGY PREDICTED BY IDOCK:   -5.80 KCAL/MOL
REMARK 922        TOTAL FREE ENERGY PREDICTED BY IDOCK:   -7.90 KCAL/MOL
REMARK 923 INTER-LIGAND FREE ENERGY PREDICTED BY IDOCK:   -7.64 KCAL/MOL
REMARK 924 INTRA-LIGAND FREE ENERGY PREDICTED BY IDOCK:   -0.26 KCAL/MOL
REMARK 927      BINDING AFFINITY PREDICTED BY RF-SCORE:    0.00 PKD
ROOT
HETATM    1  C   UNL     1     -10.528  19.522  65.908  1.00  0.00    -0.585 C  
HETATM    2  C   UNL     1      -9.379  18.902  66.659  1.00  0.00    -0.330 C  
HETATM    3  C   UNL     1      -9.070  17.590  66.661  1.00  0.00    -0.287 C  
HETATM    4  C   UNL     1      -6.005  20.061  69.878  1.00  0.00    -0.367 C  
HETATM    5  C   UNL     1      -7.861  17.194  67.436  1.00  0.00    -0.172 C  
HETATM    6  N   UNL     1      -7.153  18.207  68.052  1.00  0.00    -0.217 N  
HETATM    7  O   UNL     1      -7.529  16.012  67.498  1.00  0.00    -0.134 OA 
HETATM    8  C   UNL     1      -6.877  20.579  68.752  1.00  0.00    -0.091 C  
HETATM    9  N   UNL     1      -8.672  19.848  67.352  1.00  0.00    -0.325 NA 
HETATM   10  C   UNL     1      -6.022  17.801  68.877  1.00  0.00    -0.197 C  
HETATM   11  C   UNL     1      -5.134  18.942  69.341  1.00  0.00    -0.187 C  
HETATM   12  C   UNL     1      -7.631  19.488  68.023  1.00  0.00    -0.296 C  
ENDROOT
BRANCH   3  13
HETATM   13  C   UNL     1      -9.739  16.456  65.924  1.00  0.00    -0.327 C  
BRANCH  13  14
HETATM   14  C   UNL     1     -10.693  15.589  66.792  1.00  0.00    -0.305 C  
BRANCH  14  15
HETATM   15  N   UNL     1     -10.861  14.195  66.346  1.00  0.00    -0.301 NA 
HETATM   16  C   UNL     1     -10.570  12.192  68.573  1.00  0.00    -0.252 C  
HETATM   17  C   UNL     1      -9.421  13.039  68.010  1.00  0.00    -0.217 C  
HETATM   18  C   UNL     1      -9.681  13.355  66.541  1.00  0.00    -0.282 C  
HETATM   19  C   UNL     1     -11.898  12.921  68.323  1.00  0.00    -0.372 C  
HETATM   20  C   UNL     1     -12.053  13.536  66.917  1.00  0.00    -0.368 C  
BRANCH  16  21
HETATM   21  C   UNL     1     -10.430  10.785  68.042  1.00  0.00    -0.194 A  
HETATM   22  N   UNL     1      -9.817  10.507  66.884  1.00  0.00    -0.186 NA 
HETATM   23  O   UNL     1      -9.561   9.143  66.910  1.00  0.00    -0.155 OA 
HETATM   24  C   UNL     1     -10.047   8.608  68.062  1.00  0.00    -0.196 A  
HETATM   25  C   UNL     1     -10.689   9.597  68.786  1.00  0.00    -0.234 A  
HETATM   26  C   UNL     1     -11.284   9.266  70.018  1.00  0.00    -0.190 A  
HETATM   27  C   UNL     1     -11.181   7.944  70.470  1.00  0.00    -0.259 A  
HETATM   28  C   UNL     1     -10.489   6.993  69.722  1.00  0.00    -0.219 A  
HETATM   29  C   UNL     1      -9.905   7.291  68.492  1.00  0.00    -0.159 A  
HETATM   30  F   UNL     1     -10.374   5.750  70.211  1.00  0.00    -0.237 F  
ENDBRANCH  16  21
ENDBRANCH  14  15
ENDBRANCH  13  14
ENDBRANCH   3  13
TORSDOF 4
ENDMDL
MODEL       74
REMARK 921   NORMALIZED FREE ENERGY PREDICTED BY IDOCK:   -5.80 KCAL/MOL
REMARK 922        TOTAL FREE ENERGY PREDICTED BY IDOCK:   -7.90 KCAL/MOL
REMARK 923 INTER-LIGAND FREE ENERGY PREDICTED BY IDOCK:   -7.40 KCAL/MOL
REMARK 924 INTRA-LIGAND FREE ENERGY PREDICTED BY IDOCK:   -0.49 KCAL/MOL
REMARK 927      BINDING AFFINITY PREDICTED BY RF-SCORE:    0.00 PKD
ROOT
HETATM    1  C   UNL     1     -10.362  15.404  65.627  1.00  0.00    -0.395 C  
HETATM    2  C   UNL     1     -10.966  14.730  66.832  1.00  0.00    -0.328 C  
HETATM    3  C   UNL     1     -11.353  13.440  66.888  1.00  0.00    -0.351 C  
HETATM    4  C   UNL     1     -12.598  15.775  71.229  1.00  0.00    -0.504 C  
HETATM    5  C   UNL     1     -11.884  12.962  68.195  1.00  0.00    -0.336 C  
HETATM    6  N   UNL     1     -11.901  13.871  69.234  1.00  0.00    -0.326 N  
HETATM    7  O   UNL     1     -12.273  11.803  68.314  1.00  0.00    -0.486 OA 
HETATM    8  C   UNL     1     -11.623  16.173  70.140  1.00  0.00    -0.254 C  
HETATM    9  N   UNL     1     -11.076  15.600  67.884  1.00  0.00    -0.322 NA 
HETATM   10  C   UNL     1     -12.500  13.420  70.483  1.00  0.00    -0.279 C  
HETATM   11  C   UNL     1     -12.290  14.355  71.662  1.00  0.00    -0.415 C  
HETATM   12  C   UNL     1     -11.544  15.172  69.007  1.00  0.00    -0.330 C  
ENDROOT
BRANCH   3  13
HETATM   13  C   UNL     1     -11.260  12.374  65.824  1.00  0.00    -0.370 C  
BRANCH  13  14
HETATM   14  C   UNL     1      -9.856  11.722  65.678  1.00  0.00    -0.237 C  
BRANCH  14  15
HETATM   15  N   UNL     1      -9.833  10.251  65.748  1.00  0.00    -0.240 NA 
HETATM   16  C   UNL     1      -8.336   9.200  68.138  1.00  0.00    -0.120 C  
HETATM   17  C   UNL     1      -7.682   9.916  66.950  1.00  0.00    -0.098 C  
HETATM   18  C   UNL     1      -8.494   9.666  65.683  1.00  0.00    -0.132 C  
HETATM   19  C   UNL     1      -9.802   9.645  68.246  1.00  0.00    -0.169 C  
HETATM   20  C   UNL     1     -10.568   9.708  66.909  1.00  0.00    -0.171 C  
BRANCH  16  21
HETATM   21  C   UNL     1      -8.060   7.721  68.016  1.00  0.00    -0.123 A  
HETATM   22  N   UNL     1      -6.891   7.238  67.572  1.00  0.00    -0.071 NA 
HETATM   23  O   UNL     1      -6.872   5.899  67.940  1.00  0.00    -0.056 OA 
HETATM   24  C   UNL     1      -8.033   5.580  68.571  1.00  0.00    -0.088 A  
HETATM   25  C   UNL     1      -8.866   6.685  68.572  1.00  0.00    -0.122 A  
HETATM   26  C   UNL     1     -10.138   6.581  69.166  1.00  0.00    -0.190 A  
HETATM   27  C   UNL     1     -10.499   5.361  69.752  1.00  0.00    -0.378 A  
HETATM   28  C   UNL     1      -9.608   4.289  69.759  1.00  0.00    -0.209 A  
HETATM   29  C   UNL     1      -8.349   4.361  69.163  1.00  0.00    -0.087 A  
HETATM   30  F   UNL     1      -9.973   3.154  70.370  1.00  0.00    -0.215 F  
ENDBRANCH  16  21
ENDBRANCH  14  15
ENDBRANCH  13  14
ENDBRANCH   3  13
TORSDOF 4
ENDMDL
MODEL       75
REMARK 921   NORMALIZED FREE ENERGY PREDICTED BY IDOCK:   -5.79 KCAL/MOL
REMARK 922        TOTAL FREE ENERGY PREDICTED BY IDOCK:   -7.88 KCAL/MOL
REMARK 923 INTER-LIGAND FREE ENERGY PREDICTED BY IDOCK:   -7.59 KCAL/MOL
REMARK 924 INTRA-LIGAND FREE ENERGY PREDICTED BY IDOCK:   -0.29 KCAL/MOL
REMARK 927      BINDING AFFINITY PREDICTED BY RF-SCORE:    0.00 PKD
ROOT
HETATM    1  C   UNL     1      -9.699  15.156  67.903  1.00  0.00    -0.208 C  
HETATM    2  C   UNL     1     -10.672  14.623  68.922  1.00  0.00    -0.248 C  
HETATM    3  C   UNL     1     -11.301  13.433  68.848  1.00  0.00    -0.331 C  
HETATM    4  C   UNL     1     -13.008  16.004  72.887  1.00  0.00    -0.555 C  
HETATM    5  C   UNL     1     -12.190  13.079  69.989  1.00  0.00    -0.236 C  
HETATM    6  N   UNL     1     -12.263  13.984  71.030  1.00  0.00    -0.350 N  
HETATM    7  O   UNL     1     -12.809  12.018  69.981  1.00  0.00     0.191 OA 
HETATM    8  C   UNL     1     -11.758  16.196  72.052  1.00  0.00    -0.574 C  
HETATM    9  N   UNL     1     -10.844  15.507  69.953  1.00  0.00    -0.278 NA 
HETATM   10  C   UNL     1     -13.198  13.668  72.100  1.00  0.00    -0.449 C  
HETATM   11  C   UNL     1     -13.080  14.556  73.328  1.00  0.00    -0.440 C  
HETATM   12  C   UNL     1     -11.622  15.188  70.931  1.00  0.00    -0.338 C  
ENDROOT
BRANCH   3  13
HETATM   13  C   UNL     1     -11.179  12.359  67.794  1.00  0.00    -0.327 C  
BRANCH  13  14
HETATM   14  C   UNL     1     -10.171  11.225  68.134  1.00  0.00    -0.180 C  
BRANCH  14  15
HETATM   15  N   UNL     1     -10.774   9.967  68.607  1.00  0.00    -0.223 NA 
HETATM   16  C   UNL     1      -8.762   8.042  69.750  1.00  0.00    -0.136 C  
HETATM   17  C   UNL     1      -8.855   8.422  68.266  1.00  0.00    -0.139 C  
HETATM   18  C   UNL     1     -10.297   8.773  67.910  1.00  0.00    -0.224 C  
HETATM   19  C   UNL     1      -9.349   9.182  70.597  1.00  0.00    -0.312 C  
HETATM   20  C   UNL     1     -10.669   9.778  70.068  1.00  0.00    -0.283 C  
BRANCH  16  21
HETATM   21  C   UNL     1      -9.349   6.663  69.927  1.00  0.00    -0.153 A  
HETATM   22  N   UNL     1      -9.184   5.685  69.026  1.00  0.00    -0.121 NA 
HETATM   23  O   UNL     1      -9.527   4.509  69.679  1.00  0.00    -0.138 OA 
HETATM   24  C   UNL     1      -9.923   4.788  70.949  1.00  0.00    -0.213 A  
HETATM   25  C   UNL     1      -9.911   6.159  71.137  1.00  0.00    -0.210 A  
HETATM   26  C   UNL     1     -10.299   6.680  72.385  1.00  0.00    -0.217 A  
HETATM   27  C   UNL     1     -10.663   5.783  73.396  1.00  0.00    -0.303 A  
HETATM   28  C   UNL     1     -10.621   4.408  73.169  1.00  0.00    -0.200 A  
HETATM   29  C   UNL     1     -10.256   3.866  71.937  1.00  0.00    -0.143 A  
HETATM   30  F   UNL     1     -10.934   3.580  74.176  1.00  0.00    -0.252 F  
ENDBRANCH  16  21
ENDBRANCH  14  15
ENDBRANCH  13  14
ENDBRANCH   3  13
TORSDOF 4
ENDMDL
MODEL       76
REMARK 921   NORMALIZED FREE ENERGY PREDICTED BY IDOCK:   -5.76 KCAL/MOL
REMARK 922        TOTAL FREE ENERGY PREDICTED BY IDOCK:   -7.85 KCAL/MOL
REMARK 923 INTER-LIGAND FREE ENERGY PREDICTED BY IDOCK:   -7.26 KCAL/MOL
REMARK 924 INTRA-LIGAND FREE ENERGY PREDICTED BY IDOCK:   -0.59 KCAL/MOL
REMARK 927      BINDING AFFINITY PREDICTED BY RF-SCORE:    0.00 PKD
ROOT
HETATM    1  C   UNL     1      -7.998  11.742  68.281  1.00  0.00    -0.147 C  
HETATM    2  C   UNL     1      -8.752  11.591  66.985  1.00  0.00    -0.169 C  
HETATM    3  C   UNL     1      -8.552  10.613  66.080  1.00  0.00    -0.163 C  
HETATM    4  C   UNL     1     -11.960  13.926  64.275  1.00  0.00    -0.477 C  
HETATM    5  C   UNL     1      -9.441  10.623  64.885  1.00  0.00    -0.243 C  
HETATM    6  N   UNL     1     -10.405  11.610  64.830  1.00  0.00    -0.267 N  
HETATM    7  O   UNL     1      -9.305   9.772  64.009  1.00  0.00    -0.264 OA 
HETATM    8  C   UNL     1     -11.463  13.693  65.688  1.00  0.00    -0.320 C  
HETATM    9  N   UNL     1      -9.682  12.585  66.835  1.00  0.00    -0.226 NA 
HETATM   10  C   UNL     1     -11.213  11.663  63.619  1.00  0.00    -0.411 C  
HETATM   11  C   UNL     1     -12.407  12.600  63.693  1.00  0.00    -0.584 C  
HETATM   12  C   UNL     1     -10.440  12.583  65.791  1.00  0.00    -0.271 C  
ENDROOT
BRANCH   3  13
HETATM   13  C   UNL     1      -7.592   9.450  66.135  1.00  0.00    -0.096 C  
BRANCH  13  14
HETATM   14  C   UNL     1      -8.235   8.096  66.549  1.00  0.00    -0.107 C  
BRANCH  14  15
HETATM   15  N   UNL     1      -8.331   7.860  68.000  1.00  0.00    -0.123 NA 
HETATM   16  C   UNL     1     -10.584   6.013  68.756  1.00  0.00    -0.345 C  
HETATM   17  C   UNL     1     -10.772   7.431  68.200  1.00  0.00    -0.169 C  
HETATM   18  C   UNL     1      -9.588   8.305  68.600  1.00  0.00    -0.149 C  
HETATM   19  C   UNL     1      -9.227   5.467  68.288  1.00  0.00    -0.118 C  
HETATM   20  C   UNL     1      -8.052   6.462  68.386  1.00  0.00    -0.113 C  
BRANCH  16  21
HETATM   21  C   UNL     1     -10.854   6.042  70.241  1.00  0.00    -0.329 A  
HETATM   22  N   UNL     1     -11.833   6.778  70.783  1.00  0.00    -0.380 NA 
HETATM   23  O   UNL     1     -12.012   6.281  72.067  1.00  0.00    -0.330 OA 
HETATM   24  C   UNL     1     -11.124   5.277  72.298  1.00  0.00    -0.153 A  
HETATM   25  C   UNL     1     -10.301   5.138  71.194  1.00  0.00    -0.276 A  
HETATM   26  C   UNL     1      -9.290   4.158  71.215  1.00  0.00    -0.218 A  
HETATM   27  C   UNL     1      -9.175   3.348  72.351  1.00  0.00    -0.149 A  
HETATM   28  C   UNL     1     -10.054   3.501  73.422  1.00  0.00    -0.132 A  
HETATM   29  C   UNL     1     -11.053   4.474  73.433  1.00  0.00    -0.408 A  
HETATM   30  F   UNL     1      -9.940   2.676  74.471  1.00  0.00    -0.121 F  
ENDBRANCH  16  21
ENDBRANCH  14  15
ENDBRANCH  13  14
ENDBRANCH   3  13
TORSDOF 4
ENDMDL
MODEL       77
REMARK 921   NORMALIZED FREE ENERGY PREDICTED BY IDOCK:   -5.75 KCAL/MOL
REMARK 922        TOTAL FREE ENERGY PREDICTED BY IDOCK:   -7.84 KCAL/MOL
REMARK 923 INTER-LIGAND FREE ENERGY PREDICTED BY IDOCK:   -7.06 KCAL/MOL
REMARK 924 INTRA-LIGAND FREE ENERGY PREDICTED BY IDOCK:   -0.77 KCAL/MOL
REMARK 927      BINDING AFFINITY PREDICTED BY RF-SCORE:    0.00 PKD
ROOT
HETATM    1  C   UNL     1      -9.154   7.813  73.835  1.00  0.00    -0.298 C  
HETATM    2  C   UNL     1      -9.504   6.898  72.690  1.00  0.00    -0.142 C  
HETATM    3  C   UNL     1     -10.551   7.061  71.858  1.00  0.00    -0.239 C  
HETATM    4  C   UNL     1      -8.199   2.683  70.788  1.00  0.00    -0.069 C  
HETATM    5  C   UNL     1     -10.689   6.063  70.761  1.00  0.00    -0.276 C  
HETATM    6  N   UNL     1      -9.718   5.085  70.678  1.00  0.00    -0.183 N  
HETATM    7  O   UNL     1     -11.630   6.139  69.974  1.00  0.00    -0.392 OA 
HETATM    8  C   UNL     1      -7.728   3.889  71.574  1.00  0.00    -0.061 C  
HETATM    9  N   UNL     1      -8.615   5.861  72.595  1.00  0.00    -0.120 NA 
HETATM   10  C   UNL     1      -9.907   4.066  69.655  1.00  0.00    -0.089 C  
HETATM   11  C   UNL     1      -8.713   3.152  69.441  1.00  0.00    -0.130 C  
HETATM   12  C   UNL     1      -8.752   5.001  71.643  1.00  0.00    -0.132 C  
ENDROOT
BRANCH   3  13
HETATM   13  C   UNL     1     -11.579   8.166  71.831  1.00  0.00    -0.361 C  
BRANCH  13  14
HETATM   14  C   UNL     1     -11.096   9.488  71.171  1.00  0.00    -0.379 C  
BRANCH  14  15
HETATM   15  N   UNL     1     -11.124   9.504  69.698  1.00  0.00    -0.211 NA 
HETATM   16  C   UNL     1      -9.651  11.844  68.509  1.00  0.00    -0.160 C  
HETATM   17  C   UNL     1     -10.962  11.953  69.297  1.00  0.00    -0.208 C  
HETATM   18  C   UNL     1     -11.780  10.677  69.122  1.00  0.00    -0.253 C  
HETATM   19  C   UNL     1      -8.910  10.570  68.943  1.00  0.00    -0.166 C  
HETATM   20  C   UNL     1      -9.794   9.314  69.084  1.00  0.00    -0.167 C  
BRANCH  16  21
HETATM   21  C   UNL     1      -9.960  12.009  67.040  1.00  0.00    -0.204 A  
HETATM   22  N   UNL     1     -10.153  10.967  66.221  1.00  0.00    -0.226 NA 
HETATM   23  O   UNL     1     -10.761  11.486  65.086  1.00  0.00    -0.287 OA 
HETATM   24  C   UNL     1     -10.901  12.833  65.217  1.00  0.00    -0.291 A  
HETATM   25  C   UNL     1     -10.329  13.234  66.411  1.00  0.00    -0.286 A  
HETATM   26  C   UNL     1     -10.347  14.599  66.753  1.00  0.00    -0.268 A  
HETATM   27  C   UNL     1     -10.965  15.495  65.872  1.00  0.00    -0.264 A  
HETATM   28  C   UNL     1     -11.562  15.036  64.699  1.00  0.00    -0.386 A  
HETATM   29  C   UNL     1     -11.544  13.691  64.330  1.00  0.00    -0.413 A  
HETATM   30  F   UNL     1     -12.183  15.919  63.905  1.00  0.00    -0.402 F  
ENDBRANCH  16  21
ENDBRANCH  14  15
ENDBRANCH  13  14
ENDBRANCH   3  13
TORSDOF 4
ENDMDL
MODEL       78
REMARK 921   NORMALIZED FREE ENERGY PREDICTED BY IDOCK:   -5.75 KCAL/MOL
REMARK 922        TOTAL FREE ENERGY PREDICTED BY IDOCK:   -7.83 KCAL/MOL
REMARK 923 INTER-LIGAND FREE ENERGY PREDICTED BY IDOCK:   -7.42 KCAL/MOL
REMARK 924 INTRA-LIGAND FREE ENERGY PREDICTED BY IDOCK:   -0.41 KCAL/MOL
REMARK 927      BINDING AFFINITY PREDICTED BY RF-SCORE:    0.00 PKD
ROOT
HETATM    1  C   UNL     1      -9.536  16.165  68.038  1.00  0.00    -0.220 C  
HETATM    2  C   UNL     1     -10.520  15.359  68.847  1.00  0.00    -0.238 C  
HETATM    3  C   UNL     1     -11.050  14.178  68.473  1.00  0.00    -0.276 C  
HETATM    4  C   UNL     1     -13.167  15.680  72.844  1.00  0.00    -0.630 C  
HETATM    5  C   UNL     1     -11.970  13.526  69.445  1.00  0.00    -0.330 C  
HETATM    6  N   UNL     1     -12.169  14.171  70.650  1.00  0.00    -0.339 N  
HETATM    7  O   UNL     1     -12.505  12.456  69.164  1.00  0.00     0.064 OA 
HETATM    8  C   UNL     1     -11.891  16.130  72.160  1.00  0.00    -0.626 C  
HETATM    9  N   UNL     1     -10.815  15.982  70.031  1.00  0.00    -0.335 NA 
HETATM   10  C   UNL     1     -13.134  13.569  71.559  1.00  0.00    -0.344 C  
HETATM   11  C   UNL     1     -13.151  14.168  72.955  1.00  0.00    -0.544 C  
HETATM   12  C   UNL     1     -11.618  15.405  70.860  1.00  0.00    -0.358 C  
ENDROOT
BRANCH   3  13
HETATM   13  C   UNL     1     -10.790  13.374  67.222  1.00  0.00    -0.278 C  
BRANCH  13  14
HETATM   14  C   UNL     1      -9.795  12.193  67.405  1.00  0.00    -0.189 C  
BRANCH  14  15
HETATM   15  N   UNL     1     -10.415  10.881  67.662  1.00  0.00    -0.197 NA 
HETATM   16  C   UNL     1      -8.499   8.582  67.347  1.00  0.00    -0.127 C  
HETATM   17  C   UNL     1      -9.009   9.452  66.191  1.00  0.00    -0.197 C  
HETATM   18  C   UNL     1     -10.405   9.976  66.514  1.00  0.00    -0.198 C  
HETATM   19  C   UNL     1      -8.569   9.390  68.652  1.00  0.00    -0.123 C  
HETATM   20  C   UNL     1      -9.868  10.198  68.851  1.00  0.00    -0.189 C  
BRANCH  16  21
HETATM   21  C   UNL     1      -9.221   7.257  67.303  1.00  0.00    -0.131 A  
HETATM   22  N   UNL     1     -10.270   6.979  68.090  1.00  0.00    -0.173 NA 
HETATM   23  O   UNL     1     -10.878   5.865  67.528  1.00  0.00    -0.276 OA 
HETATM   24  C   UNL     1     -10.179   5.464  66.432  1.00  0.00    -0.226 A  
HETATM   25  C   UNL     1      -9.061   6.267  66.290  1.00  0.00    -0.166 A  
HETATM   26  C   UNL     1      -8.178   6.025  65.221  1.00  0.00    -0.138 A  
HETATM   27  C   UNL     1      -8.483   4.988  64.330  1.00  0.00    -0.142 A  
HETATM   28  C   UNL     1      -9.643   4.233  64.494  1.00  0.00    -0.146 A  
HETATM   29  C   UNL     1     -10.526   4.442  65.553  1.00  0.00    -0.228 A  
HETATM   30  F   UNL     1      -9.922   3.280  63.594  1.00  0.00    -0.120 F  
ENDBRANCH  16  21
ENDBRANCH  14  15
ENDBRANCH  13  14
ENDBRANCH   3  13
TORSDOF 4
ENDMDL
MODEL       79
REMARK 921   NORMALIZED FREE ENERGY PREDICTED BY IDOCK:   -5.75 KCAL/MOL
REMARK 922        TOTAL FREE ENERGY PREDICTED BY IDOCK:   -7.83 KCAL/MOL
REMARK 923 INTER-LIGAND FREE ENERGY PREDICTED BY IDOCK:   -7.74 KCAL/MOL
REMARK 924 INTRA-LIGAND FREE ENERGY PREDICTED BY IDOCK:   -0.09 KCAL/MOL
REMARK 927      BINDING AFFINITY PREDICTED BY RF-SCORE:    0.00 PKD
ROOT
HETATM    1  C   UNL     1     -11.008  15.396  64.833  1.00  0.00    -0.453 C  
HETATM    2  C   UNL     1     -10.226  16.223  65.821  1.00  0.00    -0.367 C  
HETATM    3  C   UNL     1      -9.429  15.728  66.789  1.00  0.00    -0.259 C  
HETATM    4  C   UNL     1      -9.692  20.786  67.225  1.00  0.00    -0.487 C  
HETATM    5  C   UNL     1      -8.709  16.725  67.629  1.00  0.00    -0.204 C  
HETATM    6  N   UNL     1      -8.897  18.058  67.320  1.00  0.00    -0.244 N  
HETATM    7  O   UNL     1      -7.979  16.347  68.543  1.00  0.00    -0.182 OA 
HETATM    8  C   UNL     1     -10.038  19.878  66.063  1.00  0.00    -0.589 C  
HETATM    9  N   UNL     1     -10.424  17.562  65.612  1.00  0.00    -0.607 NA 
HETATM   10  C   UNL     1      -8.256  19.026  68.199  1.00  0.00    -0.314 C  
HETATM   11  C   UNL     1      -8.289  20.459  67.697  1.00  0.00    -0.286 C  
HETATM   12  C   UNL     1      -9.797  18.412  66.353  1.00  0.00    -0.360 C  
ENDROOT
BRANCH   3  13
HETATM   13  C   UNL     1      -9.100  14.290  67.105  1.00  0.00    -0.237 C  
BRANCH  13  14
HETATM   14  C   UNL     1     -10.336  13.363  67.279  1.00  0.00    -0.244 C  
BRANCH  14  15
HETATM   15  N   UNL     1     -10.358  12.171  66.414  1.00  0.00    -0.215 NA 
HETATM   16  C   UNL     1      -8.816   9.850  67.551  1.00  0.00    -0.131 C  
HETATM   17  C   UNL     1      -8.180  11.150  67.042  1.00  0.00    -0.146 C  
HETATM   18  C   UNL     1      -9.042  11.751  65.936  1.00  0.00    -0.124 C  
HETATM   19  C   UNL     1     -10.263  10.136  67.981  1.00  0.00    -0.205 C  
HETATM   20  C   UNL     1     -11.070  11.024  67.013  1.00  0.00    -0.244 C  
BRANCH  16  21
HETATM   21  C   UNL     1      -8.591   8.772  66.519  1.00  0.00    -0.118 A  
HETATM   22  N   UNL     1      -7.539   8.773  65.690  1.00  0.00    -0.085 NA 
HETATM   23  O   UNL     1      -7.469   7.489  65.167  1.00  0.00    -0.076 OA 
HETATM   24  C   UNL     1      -8.491   6.737  65.659  1.00  0.00    -0.138 A  
HETATM   25  C   UNL     1      -9.290   7.530  66.462  1.00  0.00    -0.231 A  
HETATM   26  C   UNL     1     -10.423   6.961  67.073  1.00  0.00    -0.374 A  
HETATM   27  C   UNL     1     -10.682   5.602  66.855  1.00  0.00    -0.350 A  
HETATM   28  C   UNL     1      -9.823   4.836  66.068  1.00  0.00    -0.216 A  
HETATM   29  C   UNL     1      -8.704   5.379  65.439  1.00  0.00    -0.154 A  
HETATM   30  F   UNL     1     -10.080   3.529  65.921  1.00  0.00    -0.101 F  
ENDBRANCH  16  21
ENDBRANCH  14  15
ENDBRANCH  13  14
ENDBRANCH   3  13
TORSDOF 4
ENDMDL
MODEL       80
REMARK 921   NORMALIZED FREE ENERGY PREDICTED BY IDOCK:   -5.73 KCAL/MOL
REMARK 922        TOTAL FREE ENERGY PREDICTED BY IDOCK:   -7.81 KCAL/MOL
REMARK 923 INTER-LIGAND FREE ENERGY PREDICTED BY IDOCK:   -7.36 KCAL/MOL
REMARK 924 INTRA-LIGAND FREE ENERGY PREDICTED BY IDOCK:   -0.45 KCAL/MOL
REMARK 927      BINDING AFFINITY PREDICTED BY RF-SCORE:    0.00 PKD
ROOT
HETATM    1  C   UNL     1      -8.818   4.044  67.732  1.00  0.00    -0.134 C  
HETATM    2  C   UNL     1      -9.542   4.650  68.906  1.00  0.00    -0.164 C  
HETATM    3  C   UNL     1     -10.405   5.683  68.838  1.00  0.00    -0.295 C  
HETATM    4  C   UNL     1      -9.675   4.402  73.703  1.00  0.00    -0.149 C  
HETATM    5  C   UNL     1     -11.048   6.097  70.116  1.00  0.00    -0.378 C  
HETATM    6  N   UNL     1     -10.727   5.368  71.244  1.00  0.00    -0.216 N  
HETATM    7  O   UNL     1     -11.832   7.044  70.133  1.00  0.00    -0.241 OA 
HETATM    8  C   UNL     1      -9.388   3.635  72.428  1.00  0.00    -0.170 C  
HETATM    9  N   UNL     1      -9.213   4.014  70.073  1.00  0.00    -0.127 NA 
HETATM   10  C   UNL     1     -11.294   5.832  72.502  1.00  0.00    -0.307 C  
HETATM   11  C   UNL     1     -11.114   4.878  73.670  1.00  0.00    -0.370 C  
HETATM   12  C   UNL     1      -9.775   4.388  71.173  1.00  0.00    -0.186 C  
ENDROOT
BRANCH   3  13
HETATM   13  C   UNL     1     -10.876   6.448  67.625  1.00  0.00    -0.425 C  
BRANCH  13  14
HETATM   14  C   UNL     1      -9.949   7.619  67.194  1.00  0.00    -0.229 C  
BRANCH  14  15
HETATM   15  N   UNL     1     -10.640   8.833  66.728  1.00  0.00    -0.217 NA 
HETATM   16  C   UNL     1      -9.160  11.369  67.387  1.00  0.00    -0.160 C  
HETATM   17  C   UNL     1      -9.831  10.461  68.425  1.00  0.00    -0.173 C  
HETATM   18  C   UNL     1     -11.028   9.752  67.797  1.00  0.00    -0.180 C  
HETATM   19  C   UNL     1      -8.805  10.535  66.146  1.00  0.00    -0.172 C  
HETATM   20  C   UNL     1      -9.903   9.561  65.676  1.00  0.00    -0.272 C  
BRANCH  16  21
HETATM   21  C   UNL     1     -10.028  12.588  67.187  1.00  0.00    -0.216 A  
HETATM   22  N   UNL     1     -11.222  12.534  66.583  1.00  0.00    -0.290 NA 
HETATM   23  O   UNL     1     -11.863  13.723  66.906  1.00  0.00    -0.366 OA 
HETATM   24  C   UNL     1     -11.043  14.492  67.671  1.00  0.00    -0.304 A  
HETATM   25  C   UNL     1      -9.824  13.853  67.812  1.00  0.00    -0.237 A  
HETATM   26  C   UNL     1      -8.809  14.477  68.561  1.00  0.00    -0.182 A  
HETATM   27  C   UNL     1      -9.086  15.715  69.153  1.00  0.00    -0.256 A  
HETATM   28  C   UNL     1     -10.344  16.299  69.014  1.00  0.00    -0.264 A  
HETATM   29  C   UNL     1     -11.361  15.711  68.264  1.00  0.00    -0.357 A  
HETATM   30  F   UNL     1     -10.584  17.463  69.633  1.00  0.00    -0.319 F  
ENDBRANCH  16  21
ENDBRANCH  14  15
ENDBRANCH  13  14
ENDBRANCH   3  13
TORSDOF 4
ENDMDL
MODEL       81
REMARK 921   NORMALIZED FREE ENERGY PREDICTED BY IDOCK:   -5.72 KCAL/MOL
REMARK 922        TOTAL FREE ENERGY PREDICTED BY IDOCK:   -7.79 KCAL/MOL
REMARK 923 INTER-LIGAND FREE ENERGY PREDICTED BY IDOCK:   -7.30 KCAL/MOL
REMARK 924 INTRA-LIGAND FREE ENERGY PREDICTED BY IDOCK:   -0.49 KCAL/MOL
REMARK 927      BINDING AFFINITY PREDICTED BY RF-SCORE:    0.00 PKD
ROOT
HETATM    1  C   UNL     1      -8.144  14.505  68.570  1.00  0.00    -0.148 C  
HETATM    2  C   UNL     1      -8.660  15.693  67.800  1.00  0.00    -0.162 C  
HETATM    3  C   UNL     1      -9.511  15.633  66.757  1.00  0.00    -0.261 C  
HETATM    4  C   UNL     1      -8.008  20.440  67.443  1.00  0.00    -0.361 C  
HETATM    5  C   UNL     1      -9.931  16.933  66.166  1.00  0.00    -0.315 C  
HETATM    6  N   UNL     1      -9.438  18.079  66.759  1.00  0.00    -0.283 N  
HETATM    7  O   UNL     1     -10.692  16.955  65.201  1.00  0.00    -0.663 OA 
HETATM    8  C   UNL     1      -7.942  19.245  68.371  1.00  0.00    -0.376 C  
HETATM    9  N   UNL     1      -8.151  16.864  68.296  1.00  0.00    -0.208 NA 
HETATM   10  C   UNL     1      -9.786  19.342  66.123  1.00  0.00    -0.390 C  
HETATM   11  C   UNL     1      -9.427  20.579  66.929  1.00  0.00    -0.475 C  
HETATM   12  C   UNL     1      -8.521  17.982  67.769  1.00  0.00    -0.247 C  
ENDROOT
BRANCH   3  13
HETATM   13  C   UNL     1     -10.166  14.423  66.135  1.00  0.00    -0.317 C  
BRANCH  13  14
HETATM   14  C   UNL     1     -11.396  13.878  66.915  1.00  0.00    -0.328 C  
BRANCH  14  15
HETATM   15  N   UNL     1     -11.636  12.430  66.781  1.00  0.00    -0.390 NA 
HETATM   16  C   UNL     1      -9.475  10.748  68.028  1.00  0.00    -0.166 C  
HETATM   17  C   UNL     1      -9.289  11.609  66.772  1.00  0.00    -0.193 C  
HETATM   18  C   UNL     1     -10.612  11.719  66.019  1.00  0.00    -0.260 C  
HETATM   19  C   UNL     1     -10.620  11.331  68.870  1.00  0.00    -0.239 C  
HETATM   20  C   UNL     1     -11.870  11.753  68.072  1.00  0.00    -0.234 C  
BRANCH  16  21
HETATM   21  C   UNL     1      -9.581   9.303  67.605  1.00  0.00    -0.142 A  
HETATM   22  N   UNL     1     -10.755   8.667  67.492  1.00  0.00    -0.211 NA 
HETATM   23  O   UNL     1     -10.494   7.522  66.751  1.00  0.00    -0.305 OA 
HETATM   24  C   UNL     1      -9.168   7.461  66.453  1.00  0.00    -0.159 A  
HETATM   25  C   UNL     1      -8.521   8.530  67.046  1.00  0.00    -0.114 A  
HETATM   26  C   UNL     1      -7.130   8.664  66.880  1.00  0.00    -0.075 A  
HETATM   27  C   UNL     1      -6.460   7.714  66.098  1.00  0.00    -0.046 A  
HETATM   28  C   UNL     1      -7.164   6.677  65.489  1.00  0.00    -0.070 A  
HETATM   29  C   UNL     1      -8.539   6.513  65.651  1.00  0.00    -0.132 A  
HETATM   30  F   UNL     1      -6.494   5.815  64.712  1.00  0.00    -0.036 F  
ENDBRANCH  16  21
ENDBRANCH  14  15
ENDBRANCH  13  14
ENDBRANCH   3  13
TORSDOF 4
ENDMDL
MODEL       82
REMARK 921   NORMALIZED FREE ENERGY PREDICTED BY IDOCK:   -5.71 KCAL/MOL
REMARK 922        TOTAL FREE ENERGY PREDICTED BY IDOCK:   -7.78 KCAL/MOL
REMARK 923 INTER-LIGAND FREE ENERGY PREDICTED BY IDOCK:   -7.10 KCAL/MOL
REMARK 924 INTRA-LIGAND FREE ENERGY PREDICTED BY IDOCK:   -0.67 KCAL/MOL
REMARK 927      BINDING AFFINITY PREDICTED BY RF-SCORE:    0.00 PKD
ROOT
HETATM    1  C   UNL     1     -12.002  15.605  70.123  1.00  0.00    -0.387 C  
HETATM    2  C   UNL     1     -10.782  15.089  69.406  1.00  0.00    -0.261 C  
HETATM    3  C   UNL     1     -10.687  13.890  68.797  1.00  0.00    -0.278 C  
HETATM    4  C   UNL     1      -6.179  16.233  68.637  1.00  0.00    -0.122 C  
HETATM    5  C   UNL     1      -9.402  13.596  68.106  1.00  0.00    -0.212 C  
HETATM    6  N   UNL     1      -8.440  14.587  68.124  1.00  0.00    -0.149 N  
HETATM    7  O   UNL     1      -9.238  12.515  67.544  1.00  0.00    -0.176 OA 
HETATM    8  C   UNL     1      -7.566  16.781  68.908  1.00  0.00    -0.239 C  
HETATM    9  N   UNL     1      -9.760  16.000  69.447  1.00  0.00    -0.256 NA 
HETATM   10  C   UNL     1      -7.157  14.258  67.518  1.00  0.00    -0.167 C  
HETATM   11  C   UNL     1      -6.215  15.437  67.347  1.00  0.00    -0.035 C  
HETATM   12  C   UNL     1      -8.651  15.728  68.848  1.00  0.00    -0.220 C  
ENDROOT
BRANCH   3  13
HETATM   13  C   UNL     1     -11.736  12.815  68.651  1.00  0.00    -0.360 C  
BRANCH  13  14
HETATM   14  C   UNL     1     -11.945  11.934  69.915  1.00  0.00    -0.325 C  
BRANCH  14  15
HETATM   15  N   UNL     1     -12.039  10.485  69.666  1.00  0.00    -0.219 NA 
HETATM   16  C   UNL     1     -10.128   8.866  71.335  1.00  0.00    -0.379 C  
HETATM   17  C   UNL     1      -9.707   9.809  70.201  1.00  0.00    -0.299 C  
HETATM   18  C   UNL     1     -10.811   9.882  69.150  1.00  0.00    -0.221 C  
HETATM   19  C   UNL     1     -11.483   9.329  71.893  1.00  0.00    -0.382 C  
HETATM   20  C   UNL     1     -12.529   9.720  70.830  1.00  0.00    -0.277 C  
BRANCH  16  21
HETATM   21  C   UNL     1     -10.023   7.444  70.839  1.00  0.00    -0.184 A  
HETATM   22  N   UNL     1      -9.314   7.109  69.753  1.00  0.00    -0.147 NA 
HETATM   23  O   UNL     1      -9.146   5.732  69.823  1.00  0.00    -0.133 OA 
HETATM   24  C   UNL     1      -9.776   5.248  70.927  1.00  0.00    -0.184 A  
HETATM   25  C   UNL     1     -10.426   6.288  71.569  1.00  0.00    -0.266 A  
HETATM   26  C   UNL     1     -11.160   6.015  72.739  1.00  0.00    -0.305 A  
HETATM   27  C   UNL     1     -11.183   4.699  73.216  1.00  0.00    -0.411 A  
HETATM   28  C   UNL     1     -10.479   3.694  72.554  1.00  0.00    -0.079 A  
HETATM   29  C   UNL     1      -9.758   3.934  71.385  1.00  0.00    -0.246 A  
HETATM   30  F   UNL     1     -10.489   2.457  73.068  1.00  0.00    -0.183 F  
ENDBRANCH  16  21
ENDBRANCH  14  15
ENDBRANCH  13  14
ENDBRANCH   3  13
TORSDOF 4
ENDMDL
MODEL       83
REMARK 921   NORMALIZED FREE ENERGY PREDICTED BY IDOCK:   -5.70 KCAL/MOL
REMARK 922        TOTAL FREE ENERGY PREDICTED BY IDOCK:   -7.77 KCAL/MOL
REMARK 923 INTER-LIGAND FREE ENERGY PREDICTED BY IDOCK:   -7.54 KCAL/MOL
REMARK 924 INTRA-LIGAND FREE ENERGY PREDICTED BY IDOCK:   -0.23 KCAL/MOL
REMARK 927      BINDING AFFINITY PREDICTED BY RF-SCORE:    0.00 PKD
ROOT
HETATM    1  C   UNL     1     -12.307  13.777  66.659  1.00  0.00    -0.403 C  
HETATM    2  C   UNL     1     -11.209  12.807  66.306  1.00  0.00    -0.300 C  
HETATM    3  C   UNL     1     -10.339  12.266  67.181  1.00  0.00    -0.234 C  
HETATM    4  C   UNL     1      -9.109  10.833  62.461  1.00  0.00    -0.344 C  
HETATM    5  C   UNL     1      -9.359  11.291  66.627  1.00  0.00    -0.180 C  
HETATM    6  N   UNL     1      -9.453  11.007  65.279  1.00  0.00    -0.215 N  
HETATM    7  O   UNL     1      -8.523  10.772  67.363  1.00  0.00    -0.119 OA 
HETATM    8  C   UNL     1     -10.397  11.413  63.012  1.00  0.00    -0.275 C  
HETATM    9  N   UNL     1     -11.202  12.534  64.964  1.00  0.00    -0.297 NA 
HETATM   10  C   UNL     1      -8.439  10.117  64.730  1.00  0.00    -0.174 C  
HETATM   11  C   UNL     1      -8.709   9.644  63.312  1.00  0.00    -0.239 C  
HETATM   12  C   UNL     1     -10.343  11.691  64.498  1.00  0.00    -0.300 C  
ENDROOT
BRANCH   3  13
HETATM   13  C   UNL     1     -10.256  12.455  68.676  1.00  0.00    -0.169 C  
BRANCH  13  14
HETATM   14  C   UNL     1     -11.544  12.063  69.453  1.00  0.00    -0.330 C  
BRANCH  14  15
HETATM   15  N   UNL     1     -11.916  10.639  69.382  1.00  0.00    -0.263 NA 
HETATM   16  C   UNL     1     -11.287   9.120  71.902  1.00  0.00    -0.416 C  
HETATM   17  C   UNL     1     -10.232   9.681  70.941  1.00  0.00    -0.303 C  
HETATM   18  C   UNL     1     -10.790   9.716  69.521  1.00  0.00    -0.231 C  
HETATM   19  C   UNL     1     -12.578   9.941  71.765  1.00  0.00    -0.506 C  
HETATM   20  C   UNL     1     -12.996  10.267  70.317  1.00  0.00    -0.001 C  
BRANCH  16  21
HETATM   21  C   UNL     1     -11.380   7.628  71.691  1.00  0.00    -0.251 A  
HETATM   22  N   UNL     1     -11.802   7.085  70.541  1.00  0.00    -0.316 NA 
HETATM   23  O   UNL     1     -11.410   5.754  70.585  1.00  0.00    -0.222 OA 
HETATM   24  C   UNL     1     -10.787   5.499  71.767  1.00  0.00    -0.211 A  
HETATM   25  C   UNL     1     -10.814   6.640  72.549  1.00  0.00    -0.270 A  
HETATM   26  C   UNL     1     -10.232   6.603  73.830  1.00  0.00    -0.379 A  
HETATM   27  C   UNL     1      -9.628   5.412  74.251  1.00  0.00    -0.155 A  
HETATM   28  C   UNL     1      -9.593   4.301  73.410  1.00  0.00    -0.120 A  
HETATM   29  C   UNL     1     -10.176   4.306  72.143  1.00  0.00    -0.234 A  
HETATM   30  F   UNL     1      -8.966   3.195  73.832  1.00  0.00    -0.078 F  
ENDBRANCH  16  21
ENDBRANCH  14  15
ENDBRANCH  13  14
ENDBRANCH   3  13
TORSDOF 4
ENDMDL
MODEL       84
REMARK 921   NORMALIZED FREE ENERGY PREDICTED BY IDOCK:   -5.69 KCAL/MOL
REMARK 922        TOTAL FREE ENERGY PREDICTED BY IDOCK:   -7.76 KCAL/MOL
REMARK 923 INTER-LIGAND FREE ENERGY PREDICTED BY IDOCK:   -7.32 KCAL/MOL
REMARK 924 INTRA-LIGAND FREE ENERGY PREDICTED BY IDOCK:   -0.45 KCAL/MOL
REMARK 927      BINDING AFFINITY PREDICTED BY RF-SCORE:    0.00 PKD
ROOT
HETATM    1  C   UNL     1      -9.897  15.424  67.638  1.00  0.00    -0.220 C  
HETATM    2  C   UNL     1     -10.697  14.548  68.566  1.00  0.00    -0.250 C  
HETATM    3  C   UNL     1     -10.580  13.209  68.663  1.00  0.00    -0.259 C  
HETATM    4  C   UNL     1     -14.395  14.799  71.623  1.00  0.00    -0.645 C  
HETATM    5  C   UNL     1     -11.437  12.540  69.681  1.00  0.00    -0.185 C  
HETATM    6  N   UNL     1     -12.245  13.353  70.452  1.00  0.00    -0.356 N  
HETATM    7  O   UNL     1     -11.397  11.319  69.813  1.00  0.00    -0.269 OA 
HETATM    8  C   UNL     1     -13.246  15.565  71.000  1.00  0.00    -0.539 C  
HETATM    9  N   UNL     1     -11.573  15.289  69.314  1.00  0.00    -0.311 NA 
HETATM   10  C   UNL     1     -13.140  12.683  71.385  1.00  0.00    -0.216 C  
HETATM   11  C   UNL     1     -13.835  13.606  72.372  1.00  0.00    -0.691 C  
HETATM   12  C   UNL     1     -12.312  14.693  70.188  1.00  0.00    -0.336 C  
ENDROOT
BRANCH   3  13
HETATM   13  C   UNL     1      -9.643  12.282  67.929  1.00  0.00    -0.203 C  
BRANCH  13  14
HETATM   14  C   UNL     1     -10.030  12.004  66.449  1.00  0.00    -0.219 C  
BRANCH  14  15
HETATM   15  N   UNL     1     -10.395  10.610  66.143  1.00  0.00    -0.244 NA 
HETATM   16  C   UNL     1      -8.025   8.760  66.029  1.00  0.00    -0.107 C  
HETATM   17  C   UNL     1      -8.314   9.865  65.005  1.00  0.00    -0.151 C  
HETATM   18  C   UNL     1      -9.818  10.095  64.902  1.00  0.00    -0.319 C  
HETATM   19  C   UNL     1      -8.687   9.129  67.365  1.00  0.00    -0.118 C  
HETATM   20  C   UNL     1     -10.124   9.676  67.254  1.00  0.00    -0.211 C  
BRANCH  16  21
HETATM   21  C   UNL     1      -8.385   7.430  65.412  1.00  0.00    -0.117 A  
HETATM   22  N   UNL     1      -8.031   7.093  64.164  1.00  0.00    -0.117 NA 
HETATM   23  O   UNL     1      -8.200   5.717  64.083  1.00  0.00    -0.131 OA 
HETATM   24  C   UNL     1      -8.681   5.244  65.263  1.00  0.00    -0.151 A  
HETATM   25  C   UNL     1      -8.899   6.306  66.123  1.00  0.00    -0.160 A  
HETATM   26  C   UNL     1      -9.410   6.051  67.408  1.00  0.00    -0.111 A  
HETATM   27  C   UNL     1      -9.659   4.722  67.772  1.00  0.00    -0.194 A  
HETATM   28  C   UNL     1      -9.385   3.683  66.884  1.00  0.00    -0.194 A  
HETATM   29  C   UNL     1      -8.894   3.910  65.599  1.00  0.00    -0.124 A  
HETATM   30  F   UNL     1      -9.594   2.421  67.286  1.00  0.00    -0.172 F  
ENDBRANCH  16  21
ENDBRANCH  14  15
ENDBRANCH  13  14
ENDBRANCH   3  13
TORSDOF 4
ENDMDL
MODEL       85
REMARK 921   NORMALIZED FREE ENERGY PREDICTED BY IDOCK:   -5.68 KCAL/MOL
REMARK 922        TOTAL FREE ENERGY PREDICTED BY IDOCK:   -7.75 KCAL/MOL
REMARK 923 INTER-LIGAND FREE ENERGY PREDICTED BY IDOCK:   -7.08 KCAL/MOL
REMARK 924 INTRA-LIGAND FREE ENERGY PREDICTED BY IDOCK:   -0.67 KCAL/MOL
REMARK 927      BINDING AFFINITY PREDICTED BY RF-SCORE:    0.00 PKD
ROOT
HETATM    1  C   UNL     1      -7.419   6.597  67.568  1.00  0.00    -0.097 C  
HETATM    2  C   UNL     1      -8.177   6.859  68.844  1.00  0.00    -0.121 C  
HETATM    3  C   UNL     1      -8.364   8.071  69.401  1.00  0.00    -0.131 C  
HETATM    4  C   UNL     1     -10.276   4.486  72.457  1.00  0.00    -0.246 C  
HETATM    5  C   UNL     1      -9.186   8.112  70.642  1.00  0.00    -0.154 C  
HETATM    6  N   UNL     1      -9.707   6.913  71.088  1.00  0.00    -0.173 N  
HETATM    7  O   UNL     1      -9.382   9.181  71.216  1.00  0.00    -0.254 OA 
HETATM    8  C   UNL     1      -9.901   4.434  70.990  1.00  0.00    -0.260 C  
HETATM    9  N   UNL     1      -8.665   5.696  69.378  1.00  0.00    -0.108 NA 
HETATM   10  C   UNL     1     -10.439   6.951  72.347  1.00  0.00    -0.208 C  
HETATM   11  C   UNL     1     -11.191   5.674  72.682  1.00  0.00    -0.350 C  
HETATM   12  C   UNL     1      -9.371   5.748  70.457  1.00  0.00    -0.162 C  
ENDROOT
BRANCH   3  13
HETATM   13  C   UNL     1      -7.913   9.424  68.906  1.00  0.00    -0.087 C  
BRANCH  13  14
HETATM   14  C   UNL     1      -8.959  10.181  68.040  1.00  0.00    -0.125 C  
BRANCH  14  15
HETATM   15  N   UNL     1      -9.604  11.332  68.694  1.00  0.00    -0.200 NA 
HETATM   16  C   UNL     1     -10.958  13.194  66.756  1.00  0.00    -0.298 C  
HETATM   17  C   UNL     1      -9.439  13.008  66.865  1.00  0.00    -0.242 C  
HETATM   18  C   UNL     1      -9.064  12.631  68.295  1.00  0.00    -0.181 C  
HETATM   19  C   UNL     1     -11.656  11.923  67.263  1.00  0.00    -0.364 C  
HETATM   20  C   UNL     1     -11.075  11.333  68.564  1.00  0.00    -0.235 C  
BRANCH  16  21
HETATM   21  C   UNL     1     -11.327  14.505  67.407  1.00  0.00    -0.356 A  
HETATM   22  N   UNL     1     -11.893  14.575  68.620  1.00  0.00    -0.327 NA 
HETATM   23  O   UNL     1     -11.745  15.893  69.030  1.00  0.00    -0.385 OA 
HETATM   24  C   UNL     1     -11.123  16.609  68.055  1.00  0.00    -0.255 A  
HETATM   25  C   UNL     1     -10.908  15.792  66.959  1.00  0.00    -0.273 A  
HETATM   26  C   UNL     1     -10.283  16.329  65.818  1.00  0.00    -0.390 A  
HETATM   27  C   UNL     1      -9.884  17.671  65.850  1.00  0.00    -0.090 A  
HETATM   28  C   UNL     1     -10.088  18.442  66.993  1.00  0.00    -0.364 A  
HETATM   29  C   UNL     1     -10.719  17.939  68.130  1.00  0.00    -0.287 A  
HETATM   30  F   UNL     1      -9.651  19.709  67.000  1.00  0.00    -0.356 F  
ENDBRANCH  16  21
ENDBRANCH  14  15
ENDBRANCH  13  14
ENDBRANCH   3  13
TORSDOF 4
ENDMDL
MODEL       86
REMARK 921   NORMALIZED FREE ENERGY PREDICTED BY IDOCK:   -5.65 KCAL/MOL
REMARK 922        TOTAL FREE ENERGY PREDICTED BY IDOCK:   -7.70 KCAL/MOL
REMARK 923 INTER-LIGAND FREE ENERGY PREDICTED BY IDOCK:   -8.61 KCAL/MOL
REMARK 924 INTRA-LIGAND FREE ENERGY PREDICTED BY IDOCK:    0.91 KCAL/MOL
REMARK 927      BINDING AFFINITY PREDICTED BY RF-SCORE:    0.00 PKD
ROOT
HETATM    1  C   UNL     1     -11.028  17.106  65.183  1.00  0.00     0.044 C  
HETATM    2  C   UNL     1     -10.494  15.705  65.333  1.00  0.00    -0.411 C  
HETATM    3  C   UNL     1      -9.528  15.329  66.194  1.00  0.00    -0.361 C  
HETATM    4  C   UNL     1     -10.823  11.378  63.269  1.00  0.00    -0.292 C  
HETATM    5  C   UNL     1      -9.182  13.881  66.213  1.00  0.00    -0.088 C  
HETATM    6  N   UNL     1      -9.902  13.054  65.375  1.00  0.00    -0.173 N  
HETATM    7  O   UNL     1      -8.297  13.469  66.960  1.00  0.00    -0.171 OA 
HETATM    8  C   UNL     1     -11.547  12.681  63.545  1.00  0.00    -0.584 C  
HETATM    9  N   UNL     1     -11.122  14.841  64.475  1.00  0.00    -0.299 NA 
HETATM   10  C   UNL     1      -9.499  11.654  65.339  1.00  0.00    -0.171 C  
HETATM   11  C   UNL     1     -10.455  10.738  64.593  1.00  0.00    -0.346 C  
HETATM   12  C   UNL     1     -10.806  13.591  64.500  1.00  0.00    -0.410 C  
ENDROOT
BRANCH   3  13
HETATM   13  C   UNL     1      -8.783  16.164  67.208  1.00  0.00    -0.202 C  
BRANCH  13  14
HETATM   14  C   UNL     1      -9.538  16.386  68.548  1.00  0.00    -0.229 C  
BRANCH  14  15
HETATM   15  N   UNL     1      -9.895  15.160  69.282  1.00  0.00    -0.231 NA 
HETATM   16  C   UNL     1     -12.745  15.142  70.249  1.00  0.00    -0.340 C  
HETATM   17  C   UNL     1     -11.648  16.065  70.796  1.00  0.00    -0.431 C  
HETATM   18  C   UNL     1     -10.288  15.385  70.672  1.00  0.00     0.105 C  
HETATM   19  C   UNL     1     -12.386  14.733  68.813  1.00  0.00    -0.019 C  
HETATM   20  C   UNL     1     -10.911  14.339  68.594  1.00  0.00    -0.253 C  
BRANCH  16  21
HETATM   21  C   UNL     1     -12.985  14.040  71.253  1.00  0.00    -0.347 A  
HETATM   22  N   UNL     1     -13.786  14.193  72.316  1.00  0.00    -0.501 NA 
HETATM   23  O   UNL     1     -14.049  12.910  72.779  1.00  0.00    -0.483 OA 
HETATM   24  C   UNL     1     -13.383  12.003  72.015  1.00  0.00    -0.341 A  
HETATM   25  C   UNL     1     -12.619  12.674  71.077  1.00  0.00    -0.354 A  
HETATM   26  C   UNL     1     -11.831  11.929  70.179  1.00  0.00    -0.390 A  
HETATM   27  C   UNL     1     -11.871  10.532  70.262  1.00  0.00    -0.418 A  
HETATM   28  C   UNL     1     -12.688   9.903  71.200  1.00  0.00    -0.366 A  
HETATM   29  C   UNL     1     -13.466  10.617  72.111  1.00  0.00    -0.237 A  
HETATM   30  F   UNL     1     -12.734   8.563  71.217  1.00  0.00    -0.309 F  
ENDBRANCH  16  21
ENDBRANCH  14  15
ENDBRANCH  13  14
ENDBRANCH   3  13
TORSDOF 4
ENDMDL
MODEL       87
REMARK 921   NORMALIZED FREE ENERGY PREDICTED BY IDOCK:   -5.59 KCAL/MOL
REMARK 922        TOTAL FREE ENERGY PREDICTED BY IDOCK:   -7.64 KCAL/MOL
REMARK 923 INTER-LIGAND FREE ENERGY PREDICTED BY IDOCK:   -8.45 KCAL/MOL
REMARK 924 INTRA-LIGAND FREE ENERGY PREDICTED BY IDOCK:    0.81 KCAL/MOL
REMARK 927      BINDING AFFINITY PREDICTED BY RF-SCORE:    0.00 PKD
ROOT
HETATM    1  C   UNL     1     -12.495  14.676  72.462  1.00  0.00    -0.379 C  
HETATM    2  C   UNL     1     -12.251  14.168  71.064  1.00  0.00    -0.358 C  
HETATM    3  C   UNL     1     -12.399  12.890  70.665  1.00  0.00    -0.385 C  
HETATM    4  C   UNL     1     -10.529  15.656  66.832  1.00  0.00    -0.307 C  
HETATM    5  C   UNL     1     -12.151  12.611  69.224  1.00  0.00    -0.166 C  
HETATM    6  N   UNL     1     -11.826  13.688  68.424  1.00  0.00    -0.358 N  
HETATM    7  O   UNL     1     -12.249  11.464  68.793  1.00  0.00    -0.502 OA 
HETATM    8  C   UNL     1     -11.226  16.083  68.108  1.00  0.00    -0.325 C  
HETATM    9  N   UNL     1     -11.856  15.181  70.231  1.00  0.00    -0.287 NA 
HETATM   10  C   UNL     1     -11.503  13.393  67.035  1.00  0.00    -0.337 C  
HETATM   11  C   UNL     1     -11.383  14.614  66.138  1.00  0.00    -0.350 C  
HETATM   12  C   UNL     1     -11.640  14.922  68.986  1.00  0.00    -0.305 C  
ENDROOT
BRANCH   3  13
HETATM   13  C   UNL     1     -12.854  11.693  71.464  1.00  0.00    -0.469 C  
BRANCH  13  14
HETATM   14  C   UNL     1     -12.424  10.318  70.879  1.00  0.00    -0.370 C  
BRANCH  14  15
HETATM   15  N   UNL     1     -11.645   9.461  71.790  1.00  0.00    -0.389 NA 
HETATM   16  C   UNL     1     -11.453   6.606  70.858  1.00  0.00    -0.401 C  
HETATM   17  C   UNL     1     -12.742   7.272  71.354  1.00  0.00    -0.427 C  
HETATM   18  C   UNL     1     -12.406   8.357  72.373  1.00  0.00    -0.351 C  
HETATM   19  C   UNL     1     -10.505   7.688  70.319  1.00  0.00    -0.224 C  
HETATM   20  C   UNL     1     -10.393   8.954  71.192  1.00  0.00    -0.268 C  
BRANCH  16  21
HETATM   21  C   UNL     1     -10.934   5.698  71.947  1.00  0.00    -0.235 A  
HETATM   22  N   UNL     1     -11.658   5.380  73.028  1.00  0.00    -0.267 NA 
HETATM   23  O   UNL     1     -11.029   4.277  73.592  1.00  0.00    -0.244 OA 
HETATM   24  C   UNL     1      -9.922   3.961  72.868  1.00  0.00    -0.146 A  
HETATM   25  C   UNL     1      -9.764   4.888  71.853  1.00  0.00    -0.218 A  
HETATM   26  C   UNL     1      -8.668   4.764  70.979  1.00  0.00    -0.138 A  
HETATM   27  C   UNL     1      -7.791   3.688  71.163  1.00  0.00    -0.059 A  
HETATM   28  C   UNL     1      -8.016   2.758  72.177  1.00  0.00    -0.054 A  
HETATM   29  C   UNL     1      -9.085   2.867  73.066  1.00  0.00    -0.104 A  
HETATM   30  F   UNL     1      -7.180   1.717  72.292  1.00  0.00    -0.027 F  
ENDBRANCH  16  21
ENDBRANCH  14  15
ENDBRANCH  13  14
ENDBRANCH   3  13
TORSDOF 4
ENDMDL
MODEL       88
REMARK 921   NORMALIZED FREE ENERGY PREDICTED BY IDOCK:   -5.58 KCAL/MOL
REMARK 922        TOTAL FREE ENERGY PREDICTED BY IDOCK:   -7.62 KCAL/MOL
REMARK 923 INTER-LIGAND FREE ENERGY PREDICTED BY IDOCK:   -7.59 KCAL/MOL
REMARK 924 INTRA-LIGAND FREE ENERGY PREDICTED BY IDOCK:   -0.02 KCAL/MOL
REMARK 927      BINDING AFFINITY PREDICTED BY RF-SCORE:    0.00 PKD
ROOT
HETATM    1  C   UNL     1     -12.419   8.031  71.480  1.00  0.00    -0.334 C  
HETATM    2  C   UNL     1     -11.599   6.778  71.313  1.00  0.00    -0.320 C  
HETATM    3  C   UNL     1     -10.885   6.458  70.216  1.00  0.00    -0.350 C  
HETATM    4  C   UNL     1     -10.699   2.617  73.540  1.00  0.00    -0.277 C  
HETATM    5  C   UNL     1     -10.106   5.190  70.277  1.00  0.00    -0.268 C  
HETATM    6  N   UNL     1     -10.161   4.478  71.459  1.00  0.00    -0.188 N  
HETATM    7  O   UNL     1      -9.446   4.826  69.306  1.00  0.00    -0.126 OA 
HETATM    8  C   UNL     1     -11.087   4.069  73.732  1.00  0.00    -0.296 C  
HETATM    9  N   UNL     1     -11.666   5.989  72.430  1.00  0.00    -0.305 NA 
HETATM   10  C   UNL     1      -9.465   3.198  71.479  1.00  0.00    -0.145 C  
HETATM   11  C   UNL     1      -9.349   2.561  72.853  1.00  0.00    -0.126 C  
HETATM   12  C   UNL     1     -10.990   4.890  72.465  1.00  0.00    -0.137 C  
ENDROOT
BRANCH   3  13
HETATM   13  C   UNL     1     -10.700   7.245  68.941  1.00  0.00    -0.173 C  
BRANCH  13  14
HETATM   14  C   UNL     1      -9.506   8.240  68.958  1.00  0.00    -0.155 C  
BRANCH  14  15
HETATM   15  N   UNL     1      -9.825   9.600  69.426  1.00  0.00    -0.182 NA 
HETATM   16  C   UNL     1     -10.244  11.559  67.180  1.00  0.00    -0.233 C  
HETATM   17  C   UNL     1      -8.894  10.927  67.540  1.00  0.00    -0.133 C  
HETATM   18  C   UNL     1      -8.849  10.616  69.033  1.00  0.00    -0.148 C  
HETATM   19  C   UNL     1     -11.374  10.631  67.652  1.00  0.00    -0.284 C  
HETATM   20  C   UNL     1     -11.188  10.040  69.064  1.00  0.00    -0.133 C  
BRANCH  16  21
HETATM   21  C   UNL     1     -10.253  12.984  67.678  1.00  0.00    -0.216 A  
HETATM   22  N   UNL     1      -9.716  13.996  66.983  1.00  0.00    -0.248 NA 
HETATM   23  O   UNL     1     -10.226  15.156  67.551  1.00  0.00    -0.236 OA 
HETATM   24  C   UNL     1     -11.037  14.837  68.596  1.00  0.00    -0.262 A  
HETATM   25  C   UNL     1     -11.024  13.466  68.776  1.00  0.00    -0.290 A  
HETATM   26  C   UNL     1     -11.789  12.907  69.818  1.00  0.00    -0.380 A  
HETATM   27  C   UNL     1     -12.550  13.768  70.617  1.00  0.00    -0.386 A  
HETATM   28  C   UNL     1     -12.560  15.140  70.370  1.00  0.00    -0.359 A  
HETATM   29  C   UNL     1     -11.799  15.720  69.355  1.00  0.00    -0.361 A  
HETATM   30  F   UNL     1     -13.337  15.925  71.128  1.00  0.00    -0.543 F  
ENDBRANCH  16  21
ENDBRANCH  14  15
ENDBRANCH  13  14
ENDBRANCH   3  13
TORSDOF 4
ENDMDL
MODEL       89
REMARK 921   NORMALIZED FREE ENERGY PREDICTED BY IDOCK:   -5.57 KCAL/MOL
REMARK 922        TOTAL FREE ENERGY PREDICTED BY IDOCK:   -7.61 KCAL/MOL
REMARK 923 INTER-LIGAND FREE ENERGY PREDICTED BY IDOCK:   -7.16 KCAL/MOL
REMARK 924 INTRA-LIGAND FREE ENERGY PREDICTED BY IDOCK:   -0.45 KCAL/MOL
REMARK 927      BINDING AFFINITY PREDICTED BY RF-SCORE:    0.00 PKD
ROOT
HETATM    1  C   UNL     1      -9.094   3.904  67.919  1.00  0.00    -0.187 C  
HETATM    2  C   UNL     1      -9.641   4.317  69.261  1.00  0.00    -0.190 C  
HETATM    3  C   UNL     1     -10.264   5.483  69.520  1.00  0.00    -0.331 C  
HETATM    4  C   UNL     1      -9.699   2.865  73.841  1.00  0.00    -0.131 C  
HETATM    5  C   UNL     1     -10.770   5.672  70.908  1.00  0.00    -0.243 C  
HETATM    6  N   UNL     1     -10.584   4.626  71.790  1.00  0.00    -0.077 N  
HETATM    7  O   UNL     1     -11.333   6.718  71.222  1.00  0.00    -0.262 OA 
HETATM    8  C   UNL     1      -9.616   2.414  72.397  1.00  0.00    -0.173 C  
HETATM    9  N   UNL     1      -9.425   3.347  70.204  1.00  0.00    -0.178 NA 
HETATM   10  C   UNL     1     -11.006   4.852  73.166  1.00  0.00    -0.306 C  
HETATM   11  C   UNL     1     -11.004   3.611  74.043  1.00  0.00    -0.223 C  
HETATM   12  C   UNL     1      -9.865   3.528  71.403  1.00  0.00    -0.144 C  
ENDROOT
BRANCH   3  13
HETATM   13  C   UNL     1     -10.593   6.615  68.576  1.00  0.00    -0.276 C  
BRANCH  13  14
HETATM   14  C   UNL     1      -9.549   7.767  68.556  1.00  0.00    -0.149 C  
BRANCH  14  15
HETATM   15  N   UNL     1     -10.113   9.127  68.501  1.00  0.00    -0.185 NA 
HETATM   16  C   UNL     1      -8.821  10.865  66.410  1.00  0.00    -0.178 C  
HETATM   17  C   UNL     1      -8.124  10.379  67.688  1.00  0.00    -0.107 C  
HETATM   18  C   UNL     1      -9.152  10.189  68.799  1.00  0.00    -0.153 C  
HETATM   19  C   UNL     1      -9.947   9.883  66.050  1.00  0.00    -0.338 C  
HETATM   20  C   UNL     1     -10.817   9.420  67.236  1.00  0.00    -0.094 C  
BRANCH  16  21
HETATM   21  C   UNL     1      -9.189  12.318  66.589  1.00  0.00    -0.208 A  
HETATM   22  N   UNL     1      -8.420  13.179  67.269  1.00  0.00    -0.197 NA 
HETATM   23  O   UNL     1      -8.867  14.445  66.915  1.00  0.00    -0.228 OA 
HETATM   24  C   UNL     1      -9.915  14.337  66.054  1.00  0.00    -0.319 A  
HETATM   25  C   UNL     1     -10.219  12.999  65.876  1.00  0.00    -0.298 A  
HETATM   26  C   UNL     1     -11.285  12.647  65.028  1.00  0.00    -0.331 A  
HETATM   27  C   UNL     1     -11.984  13.674  64.380  1.00  0.00    -0.476 A  
HETATM   28  C   UNL     1     -11.613  15.005  64.562  1.00  0.00    -0.343 A  
HETATM   29  C   UNL     1     -10.571  15.381  65.409  1.00  0.00    -0.430 A  
HETATM   30  F   UNL     1     -12.278  15.955  63.889  1.00  0.00    -0.402 F  
ENDBRANCH  16  21
ENDBRANCH  14  15
ENDBRANCH  13  14
ENDBRANCH   3  13
TORSDOF 4
ENDMDL
MODEL       90
REMARK 921   NORMALIZED FREE ENERGY PREDICTED BY IDOCK:   -5.57 KCAL/MOL
REMARK 922        TOTAL FREE ENERGY PREDICTED BY IDOCK:   -7.61 KCAL/MOL
REMARK 923 INTER-LIGAND FREE ENERGY PREDICTED BY IDOCK:   -6.99 KCAL/MOL
REMARK 924 INTRA-LIGAND FREE ENERGY PREDICTED BY IDOCK:   -0.62 KCAL/MOL
REMARK 927      BINDING AFFINITY PREDICTED BY RF-SCORE:    0.00 PKD
ROOT
HETATM    1  C   UNL     1     -14.323   7.511  71.543  1.00  0.00    -0.603 C  
HETATM    2  C   UNL     1     -12.854   7.437  71.871  1.00  0.00    -0.272 C  
HETATM    3  C   UNL     1     -12.007   8.485  71.881  1.00  0.00    -0.409 C  
HETATM    4  C   UNL     1      -9.415   4.197  72.742  1.00  0.00    -0.161 C  
HETATM    5  C   UNL     1     -10.601   8.198  72.280  1.00  0.00    -0.309 C  
HETATM    6  N   UNL     1     -10.304   6.896  72.634  1.00  0.00    -0.194 N  
HETATM    7  O   UNL     1      -9.768   9.101  72.294  1.00  0.00    -0.186 OA 
HETATM    8  C   UNL     1     -10.899   4.488  72.838  1.00  0.00    -0.276 C  
HETATM    9  N   UNL     1     -12.477   6.154  72.165  1.00  0.00    -0.145 NA 
HETATM   10  C   UNL     1      -8.909   6.609  72.941  1.00  0.00    -0.125 C  
HETATM   11  C   UNL     1      -8.663   5.238  73.548  1.00  0.00    -0.114 C  
HETATM   12  C   UNL     1     -11.254   5.921  72.504  1.00  0.00    -0.294 C  
ENDROOT
BRANCH   3  13
HETATM   13  C   UNL     1     -12.295   9.942  71.611  1.00  0.00    -0.496 C  
BRANCH  13  14
HETATM   14  C   UNL     1     -12.209  10.354  70.114  1.00  0.00    -0.229 C  
BRANCH  14  15
HETATM   15  N   UNL     1     -10.876  10.778  69.652  1.00  0.00    -0.250 NA 
HETATM   16  C   UNL     1     -10.627  10.850  66.653  1.00  0.00    -0.305 C  
HETATM   17  C   UNL     1     -10.774   9.567  67.482  1.00  0.00    -0.311 C  
HETATM   18  C   UNL     1     -10.165   9.771  68.866  1.00  0.00    -0.200 C  
HETATM   19  C   UNL     1     -11.241  12.023  67.433  1.00  0.00    -0.368 C  
HETATM   20  C   UNL     1     -10.887  12.068  68.933  1.00  0.00    -0.211 C  
BRANCH  16  21
HETATM   21  C   UNL     1      -9.188  10.974  66.217  1.00  0.00    -0.182 A  
HETATM   22  N   UNL     1      -8.220  11.411  67.034  1.00  0.00    -0.153 NA 
HETATM   23  O   UNL     1      -7.024  11.047  66.430  1.00  0.00    -0.134 OA 
HETATM   24  C   UNL     1      -7.277  10.426  65.248  1.00  0.00    -0.106 A  
HETATM   25  C   UNL     1      -8.642  10.427  65.019  1.00  0.00    -0.190 A  
HETATM   26  C   UNL     1      -9.137   9.842  63.838  1.00  0.00    -0.298 A  
HETATM   27  C   UNL     1      -8.223   9.263  62.950  1.00  0.00    -0.175 A  
HETATM   28  C   UNL     1      -6.860   9.252  63.246  1.00  0.00    -0.090 A  
HETATM   29  C   UNL     1      -6.342   9.839  64.400  1.00  0.00    -0.116 A  
HETATM   30  F   UNL     1      -6.022   8.648  62.393  1.00  0.00    -0.084 F  
ENDBRANCH  16  21
ENDBRANCH  14  15
ENDBRANCH  13  14
ENDBRANCH   3  13
TORSDOF 4
ENDMDL
MODEL       91
REMARK 921   NORMALIZED FREE ENERGY PREDICTED BY IDOCK:   -5.54 KCAL/MOL
REMARK 922        TOTAL FREE ENERGY PREDICTED BY IDOCK:   -7.58 KCAL/MOL
REMARK 923 INTER-LIGAND FREE ENERGY PREDICTED BY IDOCK:   -6.68 KCAL/MOL
REMARK 924 INTRA-LIGAND FREE ENERGY PREDICTED BY IDOCK:   -0.90 KCAL/MOL
REMARK 927      BINDING AFFINITY PREDICTED BY RF-SCORE:    0.00 PKD
ROOT
HETATM    1  C   UNL     1     -10.439   7.474  67.303  1.00  0.00    -0.391 C  
HETATM    2  C   UNL     1      -9.422   8.283  66.540  1.00  0.00    -0.220 C  
HETATM    3  C   UNL     1      -9.010   9.523  66.870  1.00  0.00    -0.148 C  
HETATM    4  C   UNL     1      -6.900   8.154  62.453  1.00  0.00    -0.087 C  
HETATM    5  C   UNL     1      -7.959  10.126  66.004  1.00  0.00    -0.124 C  
HETATM    6  N   UNL     1      -7.483   9.351  64.966  1.00  0.00    -0.103 N  
HETATM    7  O   UNL     1      -7.549  11.261  66.234  1.00  0.00    -0.125 OA 
HETATM    8  C   UNL     1      -7.560   7.318  63.531  1.00  0.00    -0.117 C  
HETATM    9  N   UNL     1      -8.957   7.594  65.451  1.00  0.00     0.069 NA 
HETATM   10  C   UNL     1      -6.518   9.980  64.074  1.00  0.00    -0.132 C  
HETATM   11  C   UNL     1      -5.845   9.032  63.096  1.00  0.00    -0.088 C  
HETATM   12  C   UNL     1      -8.051   8.134  64.708  1.00  0.00    -0.152 C  
ENDROOT
BRANCH   3  13
HETATM   13  C   UNL     1      -9.413  10.375  68.049  1.00  0.00    -0.152 C  
BRANCH  13  14
HETATM   14  C   UNL     1     -10.705  11.212  67.835  1.00  0.00    -0.216 C  
BRANCH  14  15
HETATM   15  N   UNL     1     -10.742  12.507  68.536  1.00  0.00    -0.234 NA 
HETATM   16  C   UNL     1     -10.894  14.863  66.670  1.00  0.00    -0.319 C  
HETATM   17  C   UNL     1      -9.670  13.950  66.818  1.00  0.00    -0.282 C  
HETATM   18  C   UNL     1      -9.613  13.386  68.234  1.00  0.00    -0.220 C  
HETATM   19  C   UNL     1     -12.153  14.082  67.076  1.00  0.00    -0.455 C  
HETATM   20  C   UNL     1     -12.014  13.235  68.357  1.00  0.00    -0.301 C  
BRANCH  16  21
HETATM   21  C   UNL     1     -10.612  16.161  67.387  1.00  0.00    -0.311 A  
HETATM   22  N   UNL     1     -11.268  16.532  68.495  1.00  0.00    -0.345 NA 
HETATM   23  O   UNL     1     -10.512  17.552  69.058  1.00  0.00    -0.350 OA 
HETATM   24  C   UNL     1      -9.430  17.806  68.274  1.00  0.00    -0.290 A  
HETATM   25  C   UNL     1      -9.488  17.005  67.147  1.00  0.00    -0.245 A  
HETATM   26  C   UNL     1      -8.469  17.108  66.182  1.00  0.00    -0.238 A  
HETATM   27  C   UNL     1      -7.423  18.009  66.416  1.00  0.00    -0.297 A  
HETATM   28  C   UNL     1      -7.390  18.767  67.586  1.00  0.00    -0.224 A  
HETATM   29  C   UNL     1      -8.395  18.695  68.550  1.00  0.00    -0.369 A  
HETATM   30  F   UNL     1      -6.348  19.584  67.794  1.00  0.00    -0.213 F  
ENDBRANCH  16  21
ENDBRANCH  14  15
ENDBRANCH  13  14
ENDBRANCH   3  13
TORSDOF 4
ENDMDL
MODEL       92
REMARK 921   NORMALIZED FREE ENERGY PREDICTED BY IDOCK:   -5.53 KCAL/MOL
REMARK 922        TOTAL FREE ENERGY PREDICTED BY IDOCK:   -7.56 KCAL/MOL
REMARK 923 INTER-LIGAND FREE ENERGY PREDICTED BY IDOCK:   -6.97 KCAL/MOL
REMARK 924 INTRA-LIGAND FREE ENERGY PREDICTED BY IDOCK:   -0.59 KCAL/MOL
REMARK 927      BINDING AFFINITY PREDICTED BY RF-SCORE:    0.00 PKD
ROOT
HETATM    1  C   UNL     1     -12.153  13.267  67.378  1.00  0.00    -0.327 C  
HETATM    2  C   UNL     1     -11.113  12.354  66.781  1.00  0.00    -0.285 C  
HETATM    3  C   UNL     1     -10.224  11.624  67.483  1.00  0.00    -0.216 C  
HETATM    4  C   UNL     1      -9.279  11.124  62.513  1.00  0.00    -0.317 C  
HETATM    5  C   UNL     1      -9.312  10.750  66.695  1.00  0.00    -0.166 C  
HETATM    6  N   UNL     1      -9.481  10.743  65.324  1.00  0.00    -0.204 N  
HETATM    7  O   UNL     1      -8.464  10.070  67.268  1.00  0.00    -0.121 OA 
HETATM    8  C   UNL     1     -10.515  11.620  63.237  1.00  0.00    -0.438 C  
HETATM    9  N   UNL     1     -11.181  12.354  65.413  1.00  0.00    -0.307 NA 
HETATM   10  C   UNL     1      -8.531   9.950  64.556  1.00  0.00    -0.175 C  
HETATM   11  C   UNL     1      -8.887   9.777  63.090  1.00  0.00    -0.257 C  
HETATM   12  C   UNL     1     -10.380  11.595  64.744  1.00  0.00    -0.282 C  
ENDROOT
BRANCH   3  13
HETATM   13  C   UNL     1     -10.063  11.508  68.980  1.00  0.00    -0.075 C  
BRANCH  13  14
HETATM   14  C   UNL     1     -10.986  10.454  69.653  1.00  0.00    -0.277 C  
BRANCH  14  15
HETATM   15  N   UNL     1     -10.299   9.465  70.502  1.00  0.00    -0.259 NA 
HETATM   16  C   UNL     1     -11.693   6.799  70.583  1.00  0.00    -0.440 C  
HETATM   17  C   UNL     1     -12.245   8.086  71.207  1.00  0.00    -0.308 C  
HETATM   18  C   UNL     1     -11.093   8.990  71.635  1.00  0.00    -0.363 C  
HETATM   19  C   UNL     1     -10.738   7.167  69.437  1.00  0.00    -0.246 C  
HETATM   20  C   UNL     1      -9.759   8.317  69.745  1.00  0.00    -0.180 C  
BRANCH  16  21
HETATM   21  C   UNL     1     -11.156   5.923  71.689  1.00  0.00    -0.258 A  
HETATM   22  N   UNL     1     -11.771   5.795  72.873  1.00  0.00    -0.168 NA 
HETATM   23  O   UNL     1     -11.217   4.669  73.466  1.00  0.00    -0.317 OA 
HETATM   24  C   UNL     1     -10.258   4.148  72.654  1.00  0.00    -0.169 A  
HETATM   25  C   UNL     1     -10.117   4.958  71.542  1.00  0.00    -0.266 A  
HETATM   26  C   UNL     1      -9.164   4.616  70.564  1.00  0.00    -0.193 A  
HETATM   27  C   UNL     1      -8.410   3.451  70.751  1.00  0.00    -0.090 A  
HETATM   28  C   UNL     1      -8.618   2.647  71.871  1.00  0.00    -0.072 A  
HETATM   29  C   UNL     1      -9.543   2.972  72.862  1.00  0.00    -0.155 A  
HETATM   30  F   UNL     1      -7.908   1.516  71.991  1.00  0.00    -0.038 F  
ENDBRANCH  16  21
ENDBRANCH  14  15
ENDBRANCH  13  14
ENDBRANCH   3  13
TORSDOF 4
ENDMDL
MODEL       93
REMARK 921   NORMALIZED FREE ENERGY PREDICTED BY IDOCK:   -5.52 KCAL/MOL
REMARK 922        TOTAL FREE ENERGY PREDICTED BY IDOCK:   -7.55 KCAL/MOL
REMARK 923 INTER-LIGAND FREE ENERGY PREDICTED BY IDOCK:   -6.79 KCAL/MOL
REMARK 924 INTRA-LIGAND FREE ENERGY PREDICTED BY IDOCK:   -0.76 KCAL/MOL
REMARK 927      BINDING AFFINITY PREDICTED BY RF-SCORE:    0.00 PKD
ROOT
HETATM    1  C   UNL     1     -11.849   8.926  71.817  1.00  0.00    -0.429 C  
HETATM    2  C   UNL     1     -10.903   7.757  71.726  1.00  0.00    -0.236 C  
HETATM    3  C   UNL     1      -9.725   7.761  71.071  1.00  0.00    -0.174 C  
HETATM    4  C   UNL     1     -10.658   3.093  72.855  1.00  0.00    -0.210 C  
HETATM    5  C   UNL     1      -8.919   6.511  71.146  1.00  0.00    -0.145 C  
HETATM    6  N   UNL     1      -9.435   5.478  71.903  1.00  0.00    -0.148 N  
HETATM    7  O   UNL     1      -7.843   6.436  70.558  1.00  0.00    -0.102 OA 
HETATM    8  C   UNL     1     -11.262   4.431  73.231  1.00  0.00    -0.364 C  
HETATM    9  N   UNL     1     -11.390   6.670  72.402  1.00  0.00    -0.267 NA 
HETATM   10  C   UNL     1      -8.682   4.231  71.901  1.00  0.00    -0.111 C  
HETATM   11  C   UNL     1      -9.148   3.206  72.921  1.00  0.00    -0.109 C  
HETATM   12  C   UNL     1     -10.683   5.593  72.452  1.00  0.00    -0.237 C  
ENDROOT
BRANCH   3  13
HETATM   13  C   UNL     1      -9.060   8.889  70.320  1.00  0.00    -0.201 C  
BRANCH  13  14
HETATM   14  C   UNL     1      -9.513   9.040  68.841  1.00  0.00    -0.151 C  
BRANCH  14  15
HETATM   15  N   UNL     1     -10.451  10.145  68.578  1.00  0.00    -0.185 NA 
HETATM   16  C   UNL     1      -9.331  12.239  66.728  1.00  0.00    -0.218 C  
HETATM   17  C   UNL     1      -8.832  11.986  68.157  1.00  0.00    -0.182 C  
HETATM   18  C   UNL     1      -9.975  11.456  69.018  1.00  0.00    -0.067 C  
HETATM   19  C   UNL     1      -9.969  10.952  66.185  1.00  0.00    -0.282 C  
HETATM   20  C   UNL     1     -10.897  10.214  67.172  1.00  0.00    -0.189 C  
BRANCH  16  21
HETATM   21  C   UNL     1     -10.173  13.492  66.731  1.00  0.00    -0.264 A  
HETATM   22  N   UNL     1     -11.502  13.470  66.564  1.00  0.00    -0.326 NA 
HETATM   23  O   UNL     1     -11.956  14.713  66.985  1.00  0.00    -0.382 OA 
HETATM   24  C   UNL     1     -10.900  15.480  67.370  1.00  0.00    -0.312 A  
HETATM   25  C   UNL     1      -9.727  14.780  67.149  1.00  0.00    -0.234 A  
HETATM   26  C   UNL     1      -8.499  15.389  67.466  1.00  0.00    -0.188 A  
HETATM   27  C   UNL     1      -8.518  16.677  68.015  1.00  0.00    -0.192 A  
HETATM   28  C   UNL     1      -9.729  17.325  68.255  1.00  0.00    -0.294 A  
HETATM   29  C   UNL     1     -10.959  16.750  67.935  1.00  0.00    -0.260 A  
HETATM   30  F   UNL     1      -9.708  18.538  68.824  1.00  0.00    -0.331 F  
ENDBRANCH  16  21
ENDBRANCH  14  15
ENDBRANCH  13  14
ENDBRANCH   3  13
TORSDOF 4
ENDMDL
MODEL       94
REMARK 921   NORMALIZED FREE ENERGY PREDICTED BY IDOCK:   -5.51 KCAL/MOL
REMARK 922        TOTAL FREE ENERGY PREDICTED BY IDOCK:   -7.54 KCAL/MOL
REMARK 923 INTER-LIGAND FREE ENERGY PREDICTED BY IDOCK:   -6.85 KCAL/MOL
REMARK 924 INTRA-LIGAND FREE ENERGY PREDICTED BY IDOCK:   -0.69 KCAL/MOL
REMARK 927      BINDING AFFINITY PREDICTED BY RF-SCORE:    0.00 PKD
ROOT
HETATM    1  C   UNL     1     -13.263   9.736  71.039  1.00  0.00    -0.341 C  
HETATM    2  C   UNL     1     -12.695  11.118  70.846  1.00  0.00    -0.344 C  
HETATM    3  C   UNL     1     -11.887  11.492  69.834  1.00  0.00    -0.430 C  
HETATM    4  C   UNL     1     -12.407  15.350  73.103  1.00  0.00    -0.562 C  
HETATM    5  C   UNL     1     -11.475  12.922  69.807  1.00  0.00    -0.132 C  
HETATM    6  N   UNL     1     -11.983  13.739  70.798  1.00  0.00    -0.292 N  
HETATM    7  O   UNL     1     -10.724  13.330  68.924  1.00  0.00    -0.242 OA 
HETATM    8  C   UNL     1     -13.237  14.096  72.918  1.00  0.00    -0.553 C  
HETATM    9  N   UNL     1     -13.106  11.965  71.840  1.00  0.00    -0.437 NA 
HETATM   10  C   UNL     1     -11.508  15.116  70.813  1.00  0.00    -0.309 C  
HETATM   11  C   UNL     1     -12.259  16.036  71.760  1.00  0.00    -0.535 C  
HETATM   12  C   UNL     1     -12.735  13.201  71.805  1.00  0.00    -0.168 C  
ENDROOT
BRANCH   3  13
HETATM   13  C   UNL     1     -11.388  10.675  68.667  1.00  0.00    -0.345 C  
BRANCH  13  14
HETATM   14  C   UNL     1     -10.151   9.785  68.977  1.00  0.00    -0.187 C  
BRANCH  14  15
HETATM   15  N   UNL     1     -10.426   8.343  69.100  1.00  0.00    -0.220 NA 
HETATM   16  C   UNL     1      -7.980   6.631  68.720  1.00  0.00    -0.118 C  
HETATM   17  C   UNL     1      -8.653   7.444  67.606  1.00  0.00    -0.119 C  
HETATM   18  C   UNL     1     -10.147   7.573  67.889  1.00  0.00    -0.182 C  
HETATM   19  C   UNL     1      -8.300   7.280  70.076  1.00  0.00    -0.137 C  
HETATM   20  C   UNL     1      -9.767   7.717  70.263  1.00  0.00    -0.179 C  
BRANCH  16  21
HETATM   21  C   UNL     1      -8.341   5.177  68.536  1.00  0.00    -0.089 A  
HETATM   22  N   UNL     1      -9.294   4.572  69.258  1.00  0.00    -0.134 NA 
HETATM   23  O   UNL     1      -9.592   3.398  68.580  1.00  0.00    -0.164 OA 
HETATM   24  C   UNL     1      -8.801   3.290  67.479  1.00  0.00    -0.133 A  
HETATM   25  C   UNL     1      -7.922   4.358  67.447  1.00  0.00    -0.100 A  
HETATM   26  C   UNL     1      -6.993   4.447  66.394  1.00  0.00    -0.062 A  
HETATM   27  C   UNL     1      -7.013   3.455  65.406  1.00  0.00    -0.057 A  
HETATM   28  C   UNL     1      -7.945   2.419  65.463  1.00  0.00    -0.079 A  
HETATM   29  C   UNL     1      -8.865   2.300  66.504  1.00  0.00    -0.133 A  
HETATM   30  F   UNL     1      -7.962   1.515  64.474  1.00  0.00    -0.061 F  
ENDBRANCH  16  21
ENDBRANCH  14  15
ENDBRANCH  13  14
ENDBRANCH   3  13
TORSDOF 4
ENDMDL
MODEL       95
REMARK 921   NORMALIZED FREE ENERGY PREDICTED BY IDOCK:   -5.51 KCAL/MOL
REMARK 922        TOTAL FREE ENERGY PREDICTED BY IDOCK:   -7.54 KCAL/MOL
REMARK 923 INTER-LIGAND FREE ENERGY PREDICTED BY IDOCK:   -6.96 KCAL/MOL
REMARK 924 INTRA-LIGAND FREE ENERGY PREDICTED BY IDOCK:   -0.57 KCAL/MOL
REMARK 927      BINDING AFFINITY PREDICTED BY RF-SCORE:    0.00 PKD
ROOT
HETATM    1  C   UNL     1     -12.306  14.821  70.335  1.00  0.00    -0.402 C  
HETATM    2  C   UNL     1     -11.556  15.379  69.153  1.00  0.00    -0.339 C  
HETATM    3  C   UNL     1     -11.417  14.765  67.961  1.00  0.00    -0.351 C  
HETATM    4  C   UNL     1      -8.703  19.064  67.983  1.00  0.00    -0.341 C  
HETATM    5  C   UNL     1     -10.674  15.515  66.911  1.00  0.00    -0.317 C  
HETATM    6  N   UNL     1     -10.225  16.778  67.243  1.00  0.00    -0.286 N  
HETATM    7  O   UNL     1     -10.493  15.010  65.805  1.00  0.00    -0.297 OA 
HETATM    8  C   UNL     1      -9.828  18.603  68.888  1.00  0.00    -0.394 C  
HETATM    9  N   UNL     1     -11.023  16.607  69.440  1.00  0.00    -0.282 NA 
HETATM   10  C   UNL     1      -9.427  17.469  66.239  1.00  0.00    -0.219 C  
HETATM   11  C   UNL     1      -9.154  18.932  66.542  1.00  0.00    -0.333 C  
HETATM   12  C   UNL     1     -10.377  17.241  68.520  1.00  0.00    -0.371 C  
ENDROOT
BRANCH   3  13
HETATM   13  C   UNL     1     -11.975  13.439  67.506  1.00  0.00    -0.381 C  
BRANCH  13  14
HETATM   14  C   UNL     1     -11.522  12.217  68.355  1.00  0.00    -0.307 C  
BRANCH  14  15
HETATM   15  N   UNL     1     -10.129  11.785  68.145  1.00  0.00    -0.186 NA 
HETATM   16  C   UNL     1      -9.894   9.350  66.392  1.00  0.00    -0.337 C  
HETATM   17  C   UNL     1     -10.488   9.347  67.807  1.00  0.00    -0.310 C  
HETATM   18  C   UNL     1      -9.835  10.443  68.644  1.00  0.00    -0.177 C  
HETATM   19  C   UNL     1     -10.036  10.756  65.791  1.00  0.00    -0.320 C  
HETATM   20  C   UNL     1      -9.679  11.915  66.744  1.00  0.00    -0.204 C  
BRANCH  16  21
HETATM   21  C   UNL     1      -8.509   8.751  66.454  1.00  0.00    -0.121 A  
HETATM   22  N   UNL     1      -7.399   9.500  66.488  1.00  0.00    -0.089 NA 
HETATM   23  O   UNL     1      -6.383   8.650  66.906  1.00  0.00    -0.058 OA 
HETATM   24  C   UNL     1      -6.881   7.397  67.090  1.00  0.00    -0.074 A  
HETATM   25  C   UNL     1      -8.218   7.384  66.734  1.00  0.00    -0.121 A  
HETATM   26  C   UNL     1      -8.938   6.179  66.833  1.00  0.00    -0.118 A  
HETATM   27  C   UNL     1      -8.272   5.044  67.310  1.00  0.00    -0.107 A  
HETATM   28  C   UNL     1      -6.933   5.119  67.694  1.00  0.00    -0.065 A  
HETATM   29  C   UNL     1      -6.193   6.296  67.590  1.00  0.00    -0.025 A  
HETATM   30  F   UNL     1      -6.344   4.022  68.188  1.00  0.00    -0.032 F  
ENDBRANCH  16  21
ENDBRANCH  14  15
ENDBRANCH  13  14
ENDBRANCH   3  13
TORSDOF 4
ENDMDL
MODEL       96
REMARK 921   NORMALIZED FREE ENERGY PREDICTED BY IDOCK:   -5.50 KCAL/MOL
REMARK 922        TOTAL FREE ENERGY PREDICTED BY IDOCK:   -7.52 KCAL/MOL
REMARK 923 INTER-LIGAND FREE ENERGY PREDICTED BY IDOCK:   -7.68 KCAL/MOL
REMARK 924 INTRA-LIGAND FREE ENERGY PREDICTED BY IDOCK:    0.15 KCAL/MOL
REMARK 927      BINDING AFFINITY PREDICTED BY RF-SCORE:    0.00 PKD
ROOT
HETATM    1  C   UNL     1     -10.885  15.289  70.032  1.00  0.00    -0.303 C  
HETATM    2  C   UNL     1     -10.416  16.082  68.840  1.00  0.00    -0.245 C  
HETATM    3  C   UNL     1     -10.715  15.803  67.556  1.00  0.00    -0.317 C  
HETATM    4  C   UNL     1      -7.454  19.699  67.732  1.00  0.00    -0.313 C  
HETATM    5  C   UNL     1     -10.185  16.745  66.531  1.00  0.00    -0.316 C  
HETATM    6  N   UNL     1      -9.466  17.831  66.991  1.00  0.00    -0.263 N  
HETATM    7  O   UNL     1     -10.402  16.543  65.338  1.00  0.00    -0.558 OA 
HETATM    8  C   UNL     1      -8.341  19.106  68.808  1.00  0.00    -0.377 C  
HETATM    9  N   UNL     1      -9.636  17.140  69.224  1.00  0.00    -0.092 NA 
HETATM   10  C   UNL     1      -8.881  18.699  65.978  1.00  0.00     0.025 C  
HETATM   11  C   UNL     1      -8.305  19.999  66.513  1.00  0.00    -0.353 C  
HETATM   12  C   UNL     1      -9.179  17.943  68.323  1.00  0.00    -0.282 C  
ENDROOT
BRANCH   3  13
HETATM   13  C   UNL     1     -11.581  14.698  67.001  1.00  0.00    -0.385 C  
BRANCH  13  14
HETATM   14  C   UNL     1     -11.785  13.490  67.957  1.00  0.00    -0.359 C  
BRANCH  14  15
HETATM   15  N   UNL     1     -11.868  12.173  67.301  1.00  0.00    -0.579 NA 
HETATM   16  C   UNL     1      -9.330  10.571  67.528  1.00  0.00    -0.162 C  
HETATM   17  C   UNL     1      -9.479  11.850  66.693  1.00  0.00    -0.217 C  
HETATM   18  C   UNL     1     -10.918  11.986  66.206  1.00  0.00    -0.299 C  
HETATM   19  C   UNL     1     -10.368  10.590  68.661  1.00  0.00    -0.201 C  
HETATM   20  C   UNL     1     -11.783  11.041  68.245  1.00  0.00    -0.229 C  
BRANCH  16  21
HETATM   21  C   UNL     1      -9.334   9.386  66.593  1.00  0.00    -0.163 A  
HETATM   22  N   UNL     1      -8.683   9.388  65.422  1.00  0.00    -0.154 NA 
HETATM   23  O   UNL     1      -8.604   8.058  65.032  1.00  0.00    -0.119 OA 
HETATM   24  C   UNL     1      -9.229   7.273  65.950  1.00  0.00     0.047 A  
HETATM   25  C   UNL     1      -9.789   8.078  66.927  1.00  0.00    -0.318 A  
HETATM   26  C   UNL     1     -10.502   7.476  67.981  1.00  0.00    -0.253 A  
HETATM   27  C   UNL     1     -10.596   6.079  68.006  1.00  0.00    -0.330 A  
HETATM   28  C   UNL     1      -9.981   5.311  67.019  1.00  0.00    -0.189 A  
HETATM   29  C   UNL     1      -9.283   5.883  65.955  1.00  0.00    -0.143 A  
HETATM   30  F   UNL     1     -10.056   3.975  67.103  1.00  0.00    -0.230 F  
ENDBRANCH  16  21
ENDBRANCH  14  15
ENDBRANCH  13  14
ENDBRANCH   3  13
TORSDOF 4
ENDMDL
MODEL       97
REMARK 921   NORMALIZED FREE ENERGY PREDICTED BY IDOCK:   -5.49 KCAL/MOL
REMARK 922        TOTAL FREE ENERGY PREDICTED BY IDOCK:   -7.51 KCAL/MOL
REMARK 923 INTER-LIGAND FREE ENERGY PREDICTED BY IDOCK:   -7.07 KCAL/MOL
REMARK 924 INTRA-LIGAND FREE ENERGY PREDICTED BY IDOCK:   -0.44 KCAL/MOL
REMARK 927      BINDING AFFINITY PREDICTED BY RF-SCORE:    0.00 PKD
ROOT
HETATM    1  C   UNL     1     -12.010   6.946  71.748  1.00  0.00    -0.372 C  
HETATM    2  C   UNL     1     -11.131   5.750  71.489  1.00  0.00    -0.214 C  
HETATM    3  C   UNL     1     -10.510   5.480  70.324  1.00  0.00    -0.365 C  
HETATM    4  C   UNL     1      -9.745   1.652  73.580  1.00  0.00    -0.102 C  
HETATM    5  C   UNL     1      -9.648   4.266  70.296  1.00  0.00    -0.199 C  
HETATM    6  N   UNL     1      -9.538   3.549  71.471  1.00  0.00    -0.152 N  
HETATM    7  O   UNL     1      -9.065   3.948  69.262  1.00  0.00    -0.105 OA 
HETATM    8  C   UNL     1     -10.206   3.075  73.822  1.00  0.00    -0.201 C  
HETATM    9  N   UNL     1     -11.036   4.955  72.600  1.00  0.00    -0.211 NA 
HETATM   10  C   UNL     1      -8.762   2.318  71.412  1.00  0.00    -0.065 C  
HETATM   11  C   UNL     1      -8.469   1.687  72.762  1.00  0.00    -0.057 C  
HETATM   12  C   UNL     1     -10.289   3.904  72.558  1.00  0.00    -0.138 C  
ENDROOT
BRANCH   3  13
HETATM   13  C   UNL     1     -10.504   6.280  69.044  1.00  0.00    -0.287 C  
BRANCH  13  14
HETATM   14  C   UNL     1      -9.538   7.499  69.043  1.00  0.00    -0.153 C  
BRANCH  14  15
HETATM   15  N   UNL     1     -10.175   8.809  68.825  1.00  0.00    -0.203 NA 
HETATM   16  C   UNL     1      -8.645  10.573  66.927  1.00  0.00    -0.125 C  
HETATM   17  C   UNL     1      -8.163  10.184  68.331  1.00  0.00    -0.112 C  
HETATM   18  C   UNL     1      -9.362   9.950  69.244  1.00  0.00    -0.206 C  
HETATM   19  C   UNL     1      -9.613   9.497  66.413  1.00  0.00    -0.273 C  
HETATM   20  C   UNL     1     -10.652   9.007  67.442  1.00  0.00    -0.239 C  
BRANCH  16  21
HETATM   21  C   UNL     1      -9.139  11.999  66.970  1.00  0.00    -0.191 A  
HETATM   22  N   UNL     1      -8.429  12.994  67.518  1.00  0.00    -0.178 NA 
HETATM   23  O   UNL     1      -9.006  14.169  67.055  1.00  0.00    -0.220 OA 
HETATM   24  C   UNL     1     -10.071  13.874  66.261  1.00  0.00    -0.300 A  
HETATM   25  C   UNL     1     -10.255  12.503  66.240  1.00  0.00    -0.265 A  
HETATM   26  C   UNL     1     -11.316  11.968  65.486  1.00  0.00    -0.381 A  
HETATM   27  C   UNL     1     -12.132  12.852  64.768  1.00  0.00    -0.474 A  
HETATM   28  C   UNL     1     -11.881  14.223  64.791  1.00  0.00    -0.429 A  
HETATM   29  C   UNL     1     -10.847  14.780  65.543  1.00  0.00    -0.359 A  
HETATM   30  F   UNL     1     -12.656  15.031  64.055  1.00  0.00    -0.495 F  
ENDBRANCH  16  21
ENDBRANCH  14  15
ENDBRANCH  13  14
ENDBRANCH   3  13
TORSDOF 4
ENDMDL
MODEL       98
REMARK 921   NORMALIZED FREE ENERGY PREDICTED BY IDOCK:   -5.48 KCAL/MOL
REMARK 922        TOTAL FREE ENERGY PREDICTED BY IDOCK:   -7.49 KCAL/MOL
REMARK 923 INTER-LIGAND FREE ENERGY PREDICTED BY IDOCK:   -6.78 KCAL/MOL
REMARK 924 INTRA-LIGAND FREE ENERGY PREDICTED BY IDOCK:   -0.71 KCAL/MOL
REMARK 927      BINDING AFFINITY PREDICTED BY RF-SCORE:    0.00 PKD
ROOT
HETATM    1  C   UNL     1     -12.385  13.944  71.145  1.00  0.00    -0.440 C  
HETATM    2  C   UNL     1     -11.966  13.520  69.761  1.00  0.00    -0.340 C  
HETATM    3  C   UNL     1     -12.056  12.268  69.272  1.00  0.00    -0.219 C  
HETATM    4  C   UNL     1      -9.733  15.253  65.876  1.00  0.00    -0.390 C  
HETATM    5  C   UNL     1     -11.628  12.074  67.859  1.00  0.00    -0.337 C  
HETATM    6  N   UNL     1     -11.210  13.197  67.172  1.00  0.00    -0.283 N  
HETATM    7  O   UNL     1     -11.665  10.955  67.351  1.00  0.00    -0.510 OA 
HETATM    8  C   UNL     1     -10.587  15.605  67.077  1.00  0.00    -0.311 C  
HETATM    9  N   UNL     1     -11.474  14.579  69.046  1.00  0.00    -0.273 NA 
HETATM   10  C   UNL     1     -10.714  12.984  65.819  1.00  0.00    -0.274 C  
HETATM   11  C   UNL     1     -10.488  14.256  65.019  1.00  0.00    -0.458 C  
HETATM   12  C   UNL     1     -11.102  14.394  67.825  1.00  0.00    -0.287 C  
ENDROOT
BRANCH   3  13
HETATM   13  C   UNL     1     -12.602  11.026  69.935  1.00  0.00    -0.202 C  
BRANCH  13  14
HETATM   14  C   UNL     1     -11.682  10.415  71.028  1.00  0.00    -0.337 C  
BRANCH  14  15
HETATM   15  N   UNL     1     -11.341   8.994  70.843  1.00  0.00    -0.279 NA 
HETATM   16  C   UNL     1      -8.377   8.498  70.671  1.00  0.00    -0.141 C  
HETATM   17  C   UNL     1      -9.199   9.230  69.602  1.00  0.00    -0.182 C  
HETATM   18  C   UNL     1     -10.631   8.703  69.598  1.00  0.00    -0.218 C  
HETATM   19  C   UNL     1      -9.088   8.629  72.026  1.00  0.00    -0.311 C  
HETATM   20  C   UNL     1     -10.614   8.411  71.989  1.00  0.00    -0.317 C  
BRANCH  16  21
HETATM   21  C   UNL     1      -8.074   7.106  70.170  1.00  0.00    -0.130 A  
HETATM   22  N   UNL     1      -7.985   6.810  68.867  1.00  0.00    -0.114 NA 
HETATM   23  O   UNL     1      -7.349   5.578  68.802  1.00  0.00    -0.072 OA 
HETATM   24  C   UNL     1      -7.088   5.130  70.059  1.00  0.00    -0.058 A  
HETATM   25  C   UNL     1      -7.607   6.027  70.976  1.00  0.00    -0.097 A  
HETATM   26  C   UNL     1      -7.464   5.758  72.350  1.00  0.00    -0.096 A  
HETATM   27  C   UNL     1      -6.781   4.597  72.732  1.00  0.00    -0.060 A  
HETATM   28  C   UNL     1      -6.242   3.745  71.769  1.00  0.00    -0.014 A  
HETATM   29  C   UNL     1      -6.384   3.979  70.402  1.00  0.00    -0.027 A  
HETATM   30  F   UNL     1      -5.556   2.668  72.176  1.00  0.00    -0.006 F  
ENDBRANCH  16  21
ENDBRANCH  14  15
ENDBRANCH  13  14
ENDBRANCH   3  13
TORSDOF 4
ENDMDL
MODEL       99
REMARK 921   NORMALIZED FREE ENERGY PREDICTED BY IDOCK:   -5.40 KCAL/MOL
REMARK 922        TOTAL FREE ENERGY PREDICTED BY IDOCK:   -7.40 KCAL/MOL
REMARK 923 INTER-LIGAND FREE ENERGY PREDICTED BY IDOCK:   -8.07 KCAL/MOL
REMARK 924 INTRA-LIGAND FREE ENERGY PREDICTED BY IDOCK:    0.66 KCAL/MOL
REMARK 927      BINDING AFFINITY PREDICTED BY RF-SCORE:    0.00 PKD
ROOT
HETATM    1  C   UNL     1      -8.907   6.150  65.333  1.00  0.00    -0.016 C  
HETATM    2  C   UNL     1      -9.379   6.494  66.722  1.00  0.00    -0.156 C  
HETATM    3  C   UNL     1      -9.926   7.669  67.088  1.00  0.00    -0.297 C  
HETATM    4  C   UNL     1      -9.345   4.721  71.188  1.00  0.00    -0.206 C  
HETATM    5  C   UNL     1     -10.368   7.784  68.505  1.00  0.00    -0.197 C  
HETATM    6  N   UNL     1     -10.207   6.669  69.304  1.00  0.00    -0.175 N  
HETATM    7  O   UNL     1     -10.860   8.833  68.914  1.00  0.00    -0.143 OA 
HETATM    8  C   UNL     1      -9.341   4.371  69.714  1.00  0.00    -0.224 C  
HETATM    9  N   UNL     1      -9.182   5.448  67.585  1.00  0.00    -0.111 NA 
HETATM   10  C   UNL     1     -10.563   6.818  70.708  1.00  0.00    -0.222 C  
HETATM   11  C   UNL     1     -10.597   5.519  71.495  1.00  0.00    -0.302 C  
HETATM   12  C   UNL     1      -9.565   5.566  68.812  1.00  0.00    -0.135 C  
ENDROOT
BRANCH   3  13
HETATM   13  C   UNL     1     -10.227   8.881  66.240  1.00  0.00    -0.203 C  
BRANCH  13  14
HETATM   14  C   UNL     1      -9.009   9.443  65.453  1.00  0.00    -0.206 C  
BRANCH  14  15
HETATM   15  N   UNL     1      -8.962  10.909  65.325  1.00  0.00    -0.196 NA 
HETATM   16  C   UNL     1     -11.684  12.162  65.040  1.00  0.00    -0.371 C  
HETATM   17  C   UNL     1     -11.017  11.282  63.975  1.00  0.00    -0.377 C  
HETATM   18  C   UNL     1      -9.500  11.419  64.064  1.00  0.00    -0.141 C  
HETATM   19  C   UNL     1     -11.111  11.801  66.419  1.00  0.00    -0.360 C  
HETATM   20  C   UNL     1      -9.580  11.618  66.464  1.00  0.00    -0.209 C  
BRANCH  16  21
HETATM   21  C   UNL     1     -11.590  13.603  64.597  1.00  0.00    -0.371 A  
HETATM   22  N   UNL     1     -12.474  14.159  63.758  1.00  0.00    -0.806 NA 
HETATM   23  O   UNL     1     -12.293  15.531  63.875  1.00  0.00    -0.653 OA 
HETATM   24  C   UNL     1     -11.287  15.787  64.754  1.00  0.00    -0.314 A  
HETATM   25  C   UNL     1     -10.744  14.589  65.183  1.00  0.00    -0.422 A  
HETATM   26  C   UNL     1      -9.673  14.613  66.095  1.00  0.00    -0.344 A  
HETATM   27  C   UNL     1      -9.214  15.856  66.549  1.00  0.00    -0.310 A  
HETATM   28  C   UNL     1      -9.821  17.034  66.116  1.00  0.00    -0.278 A  
HETATM   29  C   UNL     1     -10.873  17.039  65.201  1.00  0.00    -0.059 A  
HETATM   30  F   UNL     1      -9.383  18.201  66.608  1.00  0.00    -0.263 F  
ENDBRANCH  16  21
ENDBRANCH  14  15
ENDBRANCH  13  14
ENDBRANCH   3  13
TORSDOF 4
ENDMDL
MODEL      100
REMARK 921   NORMALIZED FREE ENERGY PREDICTED BY IDOCK:   -5.35 KCAL/MOL
REMARK 922        TOTAL FREE ENERGY PREDICTED BY IDOCK:   -7.34 KCAL/MOL
REMARK 923 INTER-LIGAND FREE ENERGY PREDICTED BY IDOCK:   -7.56 KCAL/MOL
REMARK 924 INTRA-LIGAND FREE ENERGY PREDICTED BY IDOCK:    0.22 KCAL/MOL
REMARK 927      BINDING AFFINITY PREDICTED BY RF-SCORE:    0.00 PKD
ROOT
HETATM    1  C   UNL     1     -11.835  13.122  69.966  1.00  0.00    -0.360 C  
HETATM    2  C   UNL     1     -11.396  12.668  68.598  1.00  0.00    -0.291 C  
HETATM    3  C   UNL     1     -10.453  11.738  68.354  1.00  0.00    -0.231 C  
HETATM    4  C   UNL     1     -12.022  13.753  63.959  1.00  0.00    -0.451 C  
HETATM    5  C   UNL     1     -10.204  11.403  66.925  1.00  0.00    -0.219 C  
HETATM    6  N   UNL     1     -10.982  12.050  65.985  1.00  0.00    -0.293 N  
HETATM    7  O   UNL     1      -9.344  10.576  66.626  1.00  0.00    -0.158 OA 
HETATM    8  C   UNL     1     -12.657  13.773  65.335  1.00  0.00    -0.534 C  
HETATM    9  N   UNL     1     -12.084  13.326  67.613  1.00  0.00    -0.305 NA 
HETATM   10  C   UNL     1     -10.673  11.780  64.588  1.00  0.00    -0.310 C  
HETATM   11  C   UNL     1     -11.691  12.319  63.597  1.00  0.00    -0.591 C  
HETATM   12  C   UNL     1     -11.852  13.029  66.379  1.00  0.00    -0.405 C  
ENDROOT
BRANCH   3  13
HETATM   13  C   UNL     1      -9.649  10.921  69.337  1.00  0.00     0.009 C  
BRANCH  13  14
HETATM   14  C   UNL     1     -10.461   9.836  70.099  1.00  0.00    -0.286 C  
BRANCH  14  15
HETATM   15  N   UNL     1      -9.957   8.459  69.962  1.00  0.00    -0.186 NA 
HETATM   16  C   UNL     1     -11.302   6.512  71.822  1.00  0.00    -0.325 C  
HETATM   17  C   UNL     1     -10.353   7.630  72.273  1.00  0.00    -0.277 C  
HETATM   18  C   UNL     1      -9.337   7.923  71.173  1.00  0.00    -0.151 C  
HETATM   19  C   UNL     1     -11.939   6.907  70.481  1.00  0.00    -0.358 C  
HETATM   20  C   UNL     1     -10.967   7.512  69.448  1.00  0.00    -0.083 C  
BRANCH  16  21
HETATM   21  C   UNL     1     -10.560   5.200  71.887  1.00  0.00    -0.188 A  
HETATM   22  N   UNL     1     -10.583   4.409  72.968  1.00  0.00    -0.185 NA 
HETATM   23  O   UNL     1     -10.119   3.172  72.541  1.00  0.00    -0.149 OA 
HETATM   24  C   UNL     1      -9.793   3.235  71.222  1.00  0.00    -0.099 A  
HETATM   25  C   UNL     1      -9.974   4.531  70.772  1.00  0.00    -0.269 A  
HETATM   26  C   UNL     1      -9.685   4.834  69.429  1.00  0.00    -0.266 A  
HETATM   27  C   UNL     1      -9.243   3.799  68.595  1.00  0.00    -0.216 A  
HETATM   28  C   UNL     1      -9.114   2.501  69.087  1.00  0.00    -0.126 A  
HETATM   29  C   UNL     1      -9.379   2.178  70.418  1.00  0.00    -0.187 A  
HETATM   30  F   UNL     1      -8.733   1.530  68.246  1.00  0.00    -0.072 F  
ENDBRANCH  16  21
ENDBRANCH  14  15
ENDBRANCH  13  14
ENDBRANCH   3  13
TORSDOF 4
ENDMDL
MODEL      101
REMARK 921   NORMALIZED FREE ENERGY PREDICTED BY IDOCK:   -5.33 KCAL/MOL
REMARK 922        TOTAL FREE ENERGY PREDICTED BY IDOCK:   -7.31 KCAL/MOL
REMARK 923 INTER-LIGAND FREE ENERGY PREDICTED BY IDOCK:   -6.77 KCAL/MOL
REMARK 924 INTRA-LIGAND FREE ENERGY PREDICTED BY IDOCK:   -0.54 KCAL/MOL
REMARK 927      BINDING AFFINITY PREDICTED BY RF-SCORE:    0.00 PKD
ROOT
HETATM    1  C   UNL     1     -10.503   9.521  70.731  1.00  0.00    -0.384 C  
HETATM    2  C   UNL     1      -9.987   8.995  69.416  1.00  0.00    -0.191 C  
HETATM    3  C   UNL     1      -9.177   9.667  68.575  1.00  0.00    -0.137 C  
HETATM    4  C   UNL     1     -10.531   5.248  66.458  1.00  0.00    -0.354 C  
HETATM    5  C   UNL     1      -8.746   8.942  67.347  1.00  0.00    -0.125 C  
HETATM    6  N   UNL     1      -9.188   7.642  67.200  1.00  0.00    -0.128 N  
HETATM    7  O   UNL     1      -8.022   9.499  66.525  1.00  0.00    -0.110 OA 
HETATM    8  C   UNL     1     -10.592   5.710  67.900  1.00  0.00    -0.266 C  
HETATM    9  N   UNL     1     -10.447   7.727  69.175  1.00  0.00    -0.219 NA 
HETATM   10  C   UNL     1      -8.832   6.971  65.957  1.00  0.00    -0.135 C  
HETATM   11  C   UNL     1      -9.129   5.482  65.932  1.00  0.00    -0.163 C  
HETATM   12  C   UNL     1     -10.069   7.116  68.104  1.00  0.00    -0.169 C  
ENDROOT
BRANCH   3  13
HETATM   13  C   UNL     1      -8.576  11.043  68.732  1.00  0.00    -0.144 C  
BRANCH  13  14
HETATM   14  C   UNL     1      -9.514  12.212  68.322  1.00  0.00    -0.204 C  
BRANCH  14  15
HETATM   15  N   UNL     1      -8.873  13.299  67.562  1.00  0.00    -0.194 NA 
HETATM   16  C   UNL     1      -7.963  15.585  69.296  1.00  0.00    -0.238 C  
HETATM   17  C   UNL     1      -9.432  15.230  69.026  1.00  0.00    -0.232 C  
HETATM   18  C   UNL     1      -9.565  14.584  67.650  1.00  0.00    -0.214 C  
HETATM   19  C   UNL     1      -7.102  14.325  69.117  1.00  0.00    -0.117 C  
HETATM   20  C   UNL     1      -7.441  13.471  67.879  1.00  0.00    -0.153 C  
BRANCH  16  21
HETATM   21  C   UNL     1      -7.607  16.800  68.474  1.00  0.00    -0.217 A  
HETATM   22  N   UNL     1      -6.537  16.840  67.669  1.00  0.00    -0.135 NA 
HETATM   23  O   UNL     1      -6.737  17.927  66.828  1.00  0.00    -0.164 OA 
HETATM   24  C   UNL     1      -7.903  18.547  67.151  1.00  0.00    -0.230 A  
HETATM   25  C   UNL     1      -8.460  17.920  68.252  1.00  0.00    -0.280 A  
HETATM   26  C   UNL     1      -9.675  18.406  68.772  1.00  0.00    -0.369 A  
HETATM   27  C   UNL     1     -10.281  19.496  68.136  1.00  0.00    -0.556 A  
HETATM   28  C   UNL     1      -9.698  20.068  67.005  1.00  0.00    -0.421 A  
HETATM   29  C   UNL     1      -8.488  19.617  66.480  1.00  0.00    -0.374 A  
HETATM   30  F   UNL     1     -10.332  21.081  66.399  1.00  0.00    -0.150 F  
ENDBRANCH  16  21
ENDBRANCH  14  15
ENDBRANCH  13  14
ENDBRANCH   3  13
TORSDOF 4
ENDMDL
MODEL      102
REMARK 921   NORMALIZED FREE ENERGY PREDICTED BY IDOCK:   -5.32 KCAL/MOL
REMARK 922        TOTAL FREE ENERGY PREDICTED BY IDOCK:   -7.30 KCAL/MOL
REMARK 923 INTER-LIGAND FREE ENERGY PREDICTED BY IDOCK:   -6.70 KCAL/MOL
REMARK 924 INTRA-LIGAND FREE ENERGY PREDICTED BY IDOCK:   -0.60 KCAL/MOL
REMARK 927      BINDING AFFINITY PREDICTED BY RF-SCORE:    0.00 PKD
ROOT
HETATM    1  C   UNL     1     -10.283  12.240  65.355  1.00  0.00    -0.297 C  
HETATM    2  C   UNL     1     -10.538  13.286  66.410  1.00  0.00    -0.284 C  
HETATM    3  C   UNL     1     -11.099  13.054  67.613  1.00  0.00    -0.296 C  
HETATM    4  C   UNL     1     -10.335  18.046  67.029  1.00  0.00    -0.377 C  
HETATM    5  C   UNL     1     -11.218  14.225  68.526  1.00  0.00    -0.266 C  
HETATM    6  N   UNL     1     -10.715  15.428  68.071  1.00  0.00    -0.270 N  
HETATM    7  O   UNL     1     -11.736  14.092  69.633  1.00  0.00    -0.278 OA 
HETATM    8  C   UNL     1      -9.745  16.865  66.286  1.00  0.00    -0.301 C  
HETATM    9  N   UNL     1     -10.124  14.522  65.992  1.00  0.00    -0.303 NA 
HETATM   10  C   UNL     1     -10.911  16.583  68.936  1.00  0.00    -0.325 C  
HETATM   11  C   UNL     1     -10.146  17.827  68.517  1.00  0.00    -0.377 C  
HETATM   12  C   UNL     1     -10.239  15.527  66.793  1.00  0.00    -0.280 C  
ENDROOT
BRANCH   3  13
HETATM   13  C   UNL     1     -11.567  11.748  68.207  1.00  0.00    -0.373 C  
BRANCH  13  14
HETATM   14  C   UNL     1     -10.441  10.703  68.447  1.00  0.00    -0.188 C  
BRANCH  14  15
HETATM   15  N   UNL     1     -10.837   9.296  68.263  1.00  0.00    -0.137 NA 
HETATM   16  C   UNL     1      -8.504   7.461  67.768  1.00  0.00    -0.118 C  
HETATM   17  C   UNL     1      -8.996   8.527  66.780  1.00  0.00    -0.173 C  
HETATM   18  C   UNL     1     -10.496   8.742  66.954  1.00  0.00    -0.249 C  
HETATM   19  C   UNL     1      -8.909   7.873  69.191  1.00  0.00    -0.142 C  
HETATM   20  C   UNL     1     -10.349   8.404  69.334  1.00  0.00    -0.215 C  
BRANCH  16  21
HETATM   21  C   UNL     1      -8.954   6.108  67.274  1.00  0.00    -0.112 A  
HETATM   22  N   UNL     1      -9.794   5.328  67.968  1.00  0.00    -0.142 NA 
HETATM   23  O   UNL     1     -10.256   4.376  67.069  1.00  0.00    -0.158 OA 
HETATM   24  C   UNL     1      -9.671   4.569  65.856  1.00  0.00    -0.205 A  
HETATM   25  C   UNL     1      -8.765   5.611  65.951  1.00  0.00    -0.147 A  
HETATM   26  C   UNL     1      -8.028   5.981  64.811  1.00  0.00    -0.127 A  
HETATM   27  C   UNL     1      -8.262   5.289  63.616  1.00  0.00    -0.126 A  
HETATM   28  C   UNL     1      -9.214   4.272  63.562  1.00  0.00    -0.138 A  
HETATM   29  C   UNL     1      -9.945   3.875  64.682  1.00  0.00    -0.206 A  
HETATM   30  F   UNL     1      -9.441   3.664  62.390  1.00  0.00    -0.088 F  
ENDBRANCH  16  21
ENDBRANCH  14  15
ENDBRANCH  13  14
ENDBRANCH   3  13
TORSDOF 4
ENDMDL
MODEL      103
REMARK 921   NORMALIZED FREE ENERGY PREDICTED BY IDOCK:   -5.32 KCAL/MOL
REMARK 922        TOTAL FREE ENERGY PREDICTED BY IDOCK:   -7.30 KCAL/MOL
REMARK 923 INTER-LIGAND FREE ENERGY PREDICTED BY IDOCK:   -6.93 KCAL/MOL
REMARK 924 INTRA-LIGAND FREE ENERGY PREDICTED BY IDOCK:   -0.37 KCAL/MOL
REMARK 927      BINDING AFFINITY PREDICTED BY RF-SCORE:    0.00 PKD
ROOT
HETATM    1  C   UNL     1      -7.324   8.120  69.462  1.00  0.00    -0.081 C  
HETATM    2  C   UNL     1      -8.523   7.751  70.296  1.00  0.00    -0.133 C  
HETATM    3  C   UNL     1      -9.649   8.483  70.404  1.00  0.00    -0.189 C  
HETATM    4  C   UNL     1      -9.914   4.489  73.539  1.00  0.00    -0.179 C  
HETATM    5  C   UNL     1     -10.735   7.911  71.248  1.00  0.00    -0.228 C  
HETATM    6  N   UNL     1     -10.502   6.673  71.814  1.00  0.00    -0.208 N  
HETATM    7  O   UNL     1     -11.783   8.532  71.407  1.00  0.00    -0.273 OA 
HETATM    8  C   UNL     1      -9.014   4.751  72.349  1.00  0.00    -0.138 C  
HETATM    9  N   UNL     1      -8.329   6.559  70.943  1.00  0.00    -0.125 NA 
HETATM   10  C   UNL     1     -11.534   6.160  72.705  1.00  0.00    -0.237 C  
HETATM   11  C   UNL     1     -11.353   4.709  73.117  1.00  0.00    -0.355 C  
HETATM   12  C   UNL     1      -9.277   6.080  71.675  1.00  0.00    -0.145 C  
ENDROOT
BRANCH   3  13
HETATM   13  C   UNL     1     -10.004   9.785  69.728  1.00  0.00    -0.265 C  
BRANCH  13  14
HETATM   14  C   UNL     1     -10.594   9.634  68.298  1.00  0.00    -0.225 C  
BRANCH  14  15
HETATM   15  N   UNL     1     -11.155  10.865  67.714  1.00  0.00    -0.288 NA 
HETATM   16  C   UNL     1      -9.054  12.737  66.646  1.00  0.00    -0.188 C  
HETATM   17  C   UNL     1      -9.270  12.432  68.134  1.00  0.00    -0.205 C  
HETATM   18  C   UNL     1     -10.736  12.094  68.386  1.00  0.00    -0.228 C  
HETATM   19  C   UNL     1      -9.568  11.554  65.812  1.00  0.00    -0.259 C  
HETATM   20  C   UNL     1     -10.928  10.981  66.259  1.00  0.00    -0.117 C  
BRANCH  16  21
HETATM   21  C   UNL     1      -9.623  14.104  66.351  1.00  0.00    -0.293 A  
HETATM   22  N   UNL     1     -10.613  14.299  65.469  1.00  0.00    -0.321 NA 
HETATM   23  O   UNL     1     -11.107  15.570  65.732  1.00  0.00    -0.304 OA 
HETATM   24  C   UNL     1     -10.395  16.139  66.742  1.00  0.00    -0.291 A  
HETATM   25  C   UNL     1      -9.379  15.279  67.120  1.00  0.00    -0.227 A  
HETATM   26  C   UNL     1      -8.502  15.669  68.149  1.00  0.00    -0.147 A  
HETATM   27  C   UNL     1      -8.711  16.910  68.765  1.00  0.00    -0.248 A  
HETATM   28  C   UNL     1      -9.774  17.722  68.375  1.00  0.00    -0.333 A  
HETATM   29  C   UNL     1     -10.647  17.367  67.347  1.00  0.00    -0.308 A  
HETATM   30  F   UNL     1      -9.968  18.881  69.019  1.00  0.00    -0.398 F  
ENDBRANCH  16  21
ENDBRANCH  14  15
ENDBRANCH  13  14
ENDBRANCH   3  13
TORSDOF 4
ENDMDL
MODEL      104
REMARK 921   NORMALIZED FREE ENERGY PREDICTED BY IDOCK:   -5.31 KCAL/MOL
REMARK 922        TOTAL FREE ENERGY PREDICTED BY IDOCK:   -7.29 KCAL/MOL
REMARK 923 INTER-LIGAND FREE ENERGY PREDICTED BY IDOCK:   -6.82 KCAL/MOL
REMARK 924 INTRA-LIGAND FREE ENERGY PREDICTED BY IDOCK:   -0.48 KCAL/MOL
REMARK 927      BINDING AFFINITY PREDICTED BY RF-SCORE:    0.00 PKD
ROOT
HETATM    1  C   UNL     1      -7.473  12.689  68.359  1.00  0.00    -0.127 C  
HETATM    2  C   UNL     1      -8.861  12.710  67.772  1.00  0.00    -0.179 C  
HETATM    3  C   UNL     1      -9.868  11.891  68.133  1.00  0.00    -0.192 C  
HETATM    4  C   UNL     1     -11.352  14.790  64.230  1.00  0.00    -0.097 C  
HETATM    5  C   UNL     1     -11.177  12.112  67.458  1.00  0.00    -0.297 C  
HETATM    6  N   UNL     1     -11.247  13.151  66.551  1.00  0.00    -0.301 N  
HETATM    7  O   UNL     1     -12.136  11.391  67.723  1.00  0.00    -0.637 OA 
HETATM    8  C   UNL     1     -10.194  14.951  65.193  1.00  0.00    -0.409 C  
HETATM    9  N   UNL     1      -8.978  13.678  66.811  1.00  0.00    -0.218 NA 
HETATM   10  C   UNL     1     -12.506  13.305  65.835  1.00  0.00    -0.368 C  
HETATM   11  C   UNL     1     -12.624  14.588  65.029  1.00  0.00    -0.250 C  
HETATM   12  C   UNL     1     -10.118  13.853  66.231  1.00  0.00    -0.300 C  
ENDROOT
BRANCH   3  13
HETATM   13  C   UNL     1      -9.884  10.812  69.189  1.00  0.00    -0.194 C  
BRANCH  13  14
HETATM   14  C   UNL     1      -9.739   9.365  68.641  1.00  0.00    -0.152 C  
BRANCH  14  15
HETATM   15  N   UNL     1     -10.605   8.359  69.282  1.00  0.00    -0.212 NA 
HETATM   16  C   UNL     1     -10.049   8.013  72.219  1.00  0.00    -0.311 C  
HETATM   17  C   UNL     1      -9.091   7.590  71.098  1.00  0.00    -0.149 C  
HETATM   18  C   UNL     1      -9.885   7.220  69.849  1.00  0.00    -0.178 C  
HETATM   19  C   UNL     1     -10.955   9.142  71.705  1.00  0.00    -0.445 C  
HETATM   20  C   UNL     1     -11.524   8.930  70.287  1.00  0.00    -0.105 C  
BRANCH  16  21
HETATM   21  C   UNL     1     -10.715   6.775  72.770  1.00  0.00    -0.246 A  
HETATM   22  N   UNL     1     -12.008   6.494  72.556  1.00  0.00    -0.141 NA 
HETATM   23  O   UNL     1     -12.161   5.152  72.879  1.00  0.00    -0.169 OA 
HETATM   24  C   UNL     1     -10.974   4.647  73.312  1.00  0.00    -0.303 A  
HETATM   25  C   UNL     1     -10.034   5.662  73.344  1.00  0.00    -0.186 A  
HETATM   26  C   UNL     1      -8.727   5.369  73.776  1.00  0.00    -0.115 A  
HETATM   27  C   UNL     1      -8.428   4.049  74.136  1.00  0.00    -0.094 A  
HETATM   28  C   UNL     1      -9.400   3.054  74.049  1.00  0.00    -0.080 A  
HETATM   29  C   UNL     1     -10.706   3.321  73.641  1.00  0.00    -0.301 A  
HETATM   30  F   UNL     1      -9.061   1.795  74.360  1.00  0.00    -0.061 F  
ENDBRANCH  16  21
ENDBRANCH  14  15
ENDBRANCH  13  14
ENDBRANCH   3  13
TORSDOF 4
ENDMDL
MODEL      105
REMARK 921   NORMALIZED FREE ENERGY PREDICTED BY IDOCK:   -5.28 KCAL/MOL
REMARK 922        TOTAL FREE ENERGY PREDICTED BY IDOCK:   -7.26 KCAL/MOL
REMARK 923 INTER-LIGAND FREE ENERGY PREDICTED BY IDOCK:   -6.90 KCAL/MOL
REMARK 924 INTRA-LIGAND FREE ENERGY PREDICTED BY IDOCK:   -0.36 KCAL/MOL
REMARK 927      BINDING AFFINITY PREDICTED BY RF-SCORE:    0.00 PKD
ROOT
HETATM    1  C   UNL     1      -7.198   2.832  68.815  1.00  0.00    -0.048 C  
HETATM    2  C   UNL     1      -8.153   3.205  67.711  1.00  0.00    -0.079 C  
HETATM    3  C   UNL     1      -8.967   4.279  67.717  1.00  0.00    -0.137 C  
HETATM    4  C   UNL     1      -9.893   1.473  63.580  1.00  0.00    -0.128 C  
HETATM    5  C   UNL     1      -9.800   4.488  66.500  1.00  0.00    -0.227 C  
HETATM    6  N   UNL     1      -9.639   3.584  65.468  1.00  0.00    -0.156 N  
HETATM    7  O   UNL     1     -10.579   5.437  66.443  1.00  0.00    -0.280 OA 
HETATM    8  C   UNL     1      -8.704   1.482  64.519  1.00  0.00    -0.096 C  
HETATM    9  N   UNL     1      -8.094   2.305  66.680  1.00  0.00    -0.080 NA 
HETATM   10  C   UNL     1     -10.518   3.748  64.318  1.00  0.00    -0.241 C  
HETATM   11  C   UNL     1     -10.156   2.892  63.116  1.00  0.00    -0.127 C  
HETATM   12  C   UNL     1      -8.826   2.497  65.635  1.00  0.00    -0.127 C  
ENDROOT
BRANCH   3  13
HETATM   13  C   UNL     1      -9.107   5.357  68.764  1.00  0.00    -0.135 C  
BRANCH  13  14
HETATM   14  C   UNL     1     -10.444   5.322  69.558  1.00  0.00    -0.234 C  
BRANCH  14  15
HETATM   15  N   UNL     1     -11.304   6.507  69.398  1.00  0.00    -0.354 NA 
HETATM   16  C   UNL     1     -10.730   8.671  71.410  1.00  0.00    -0.338 C  
HETATM   17  C   UNL     1     -11.359   7.313  71.750  1.00  0.00    -0.285 C  
HETATM   18  C   UNL     1     -12.152   6.795  70.554  1.00  0.00    -0.274 C  
HETATM   19  C   UNL     1      -9.895   8.529  70.128  1.00  0.00    -0.184 C  
HETATM   20  C   UNL     1     -10.563   7.720  68.998  1.00  0.00    -0.166 C  
BRANCH  16  21
HETATM   21  C   UNL     1     -11.817   9.718  71.427  1.00  0.00    -0.408 A  
HETATM   22  N   UNL     1     -12.788   9.737  72.350  1.00  0.00    -0.276 NA 
HETATM   23  O   UNL     1     -13.356  11.002  72.274  1.00  0.00    -0.390 OA 
HETATM   24  C   UNL     1     -12.747  11.720  71.292  1.00  0.00    -0.316 A  
HETATM   25  C   UNL     1     -11.813  10.919  70.659  1.00  0.00    -0.453 A  
HETATM   26  C   UNL     1     -11.065  11.455  69.594  1.00  0.00    -0.241 A  
HETATM   27  C   UNL     1     -11.286  12.789  69.232  1.00  0.00    -0.307 A  
HETATM   28  C   UNL     1     -12.212  13.566  69.927  1.00  0.00    -0.292 A  
HETATM   29  C   UNL     1     -12.977  13.056  70.975  1.00  0.00    -0.196 A  
HETATM   30  F   UNL     1     -12.362  14.852  69.580  1.00  0.00    -0.323 F  
ENDBRANCH  16  21
ENDBRANCH  14  15
ENDBRANCH  13  14
ENDBRANCH   3  13
TORSDOF 4
ENDMDL
MODEL      106
REMARK 921   NORMALIZED FREE ENERGY PREDICTED BY IDOCK:   -5.26 KCAL/MOL
REMARK 922        TOTAL FREE ENERGY PREDICTED BY IDOCK:   -7.22 KCAL/MOL
REMARK 923 INTER-LIGAND FREE ENERGY PREDICTED BY IDOCK:   -7.79 KCAL/MOL
REMARK 924 INTRA-LIGAND FREE ENERGY PREDICTED BY IDOCK:    0.56 KCAL/MOL
REMARK 927      BINDING AFFINITY PREDICTED BY RF-SCORE:    0.00 PKD
ROOT
HETATM    1  C   UNL     1      -7.063   9.692  64.518  1.00  0.00    -0.121 C  
HETATM    2  C   UNL     1      -7.950   8.705  65.231  1.00  0.00    -0.114 C  
HETATM    3  C   UNL     1      -8.912   9.025  66.119  1.00  0.00    -0.216 C  
HETATM    4  C   UNL     1      -8.481   3.968  65.835  1.00  0.00    -0.109 C  
HETATM    5  C   UNL     1      -9.708   7.895  66.673  1.00  0.00    -0.235 C  
HETATM    6  N   UNL     1      -9.410   6.630  66.204  1.00  0.00    -0.109 N  
HETATM    7  O   UNL     1     -10.590   8.110  67.501  1.00  0.00    -0.253 OA 
HETATM    8  C   UNL     1      -7.999   5.053  64.893  1.00  0.00    -0.099 C  
HETATM    9  N   UNL     1      -7.658   7.419  64.861  1.00  0.00    -0.097 NA 
HETATM   10  C   UNL     1     -10.135   5.524  66.813  1.00  0.00    -0.207 C  
HETATM   11  C   UNL     1      -9.955   4.186  66.115  1.00  0.00    -0.188 C  
HETATM   12  C   UNL     1      -8.353   6.450  65.354  1.00  0.00    -0.141 C  
ENDROOT
BRANCH   3  13
HETATM   13  C   UNL     1      -9.355  10.390  66.587  1.00  0.00    -0.185 C  
BRANCH  13  14
HETATM   14  C   UNL     1     -10.625  10.941  65.879  1.00  0.00    -0.178 C  
BRANCH  14  15
HETATM   15  N   UNL     1     -11.720  11.350  66.775  1.00  0.00    -0.422 NA 
HETATM   16  C   UNL     1     -10.804  13.091  69.052  1.00  0.00    -0.197 C  
HETATM   17  C   UNL     1     -10.457  11.604  68.902  1.00  0.00    -0.201 C  
HETATM   18  C   UNL     1     -11.575  10.884  68.153  1.00  0.00    -0.241 C  
HETATM   19  C   UNL     1     -11.098  13.680  67.664  1.00  0.00    -0.293 C  
HETATM   20  C   UNL     1     -11.983  12.803  66.755  1.00  0.00    -0.319 C  
BRANCH  16  21
HETATM   21  C   UNL     1     -11.870  13.228  70.112  1.00  0.00    -0.263 A  
HETATM   22  N   UNL     1     -12.594  12.188  70.548  1.00  0.00    -0.164 NA 
HETATM   23  O   UNL     1     -13.180  12.607  71.735  1.00  0.00    -0.432 OA 
HETATM   24  C   UNL     1     -12.832  13.897  71.987  1.00  0.00    -0.301 A  
HETATM   25  C   UNL     1     -12.064  14.373  70.939  1.00  0.00    -0.414 A  
HETATM   26  C   UNL     1     -11.597  15.700  70.982  1.00  0.00    -0.434 A  
HETATM   27  C   UNL     1     -11.916  16.480  72.100  1.00  0.00    -0.322 A  
HETATM   28  C   UNL     1     -12.660  15.942  73.149  1.00  0.00    -0.513 A  
HETATM   29  C   UNL     1     -13.148  14.636  73.124  1.00  0.00    -0.580 A  
HETATM   30  F   UNL     1     -12.906  16.706  74.222  1.00  0.00    -0.438 F  
ENDBRANCH  16  21
ENDBRANCH  14  15
ENDBRANCH  13  14
ENDBRANCH   3  13
TORSDOF 4
ENDMDL
MODEL      107
REMARK 921   NORMALIZED FREE ENERGY PREDICTED BY IDOCK:   -5.24 KCAL/MOL
REMARK 922        TOTAL FREE ENERGY PREDICTED BY IDOCK:   -7.21 KCAL/MOL
REMARK 923 INTER-LIGAND FREE ENERGY PREDICTED BY IDOCK:   -7.55 KCAL/MOL
REMARK 924 INTRA-LIGAND FREE ENERGY PREDICTED BY IDOCK:    0.35 KCAL/MOL
REMARK 927      BINDING AFFINITY PREDICTED BY RF-SCORE:    0.00 PKD
ROOT
HETATM    1  C   UNL     1     -11.164  15.489  70.723  1.00  0.00    -0.384 C  
HETATM    2  C   UNL     1     -10.765  16.112  69.411  1.00  0.00    -0.307 C  
HETATM    3  C   UNL     1     -10.546  15.437  68.265  1.00  0.00    -0.253 C  
HETATM    4  C   UNL     1      -9.445  20.352  67.576  1.00  0.00    -0.532 C  
HETATM    5  C   UNL     1     -10.204  16.254  67.068  1.00  0.00    -0.280 C  
HETATM    6  N   UNL     1     -10.176  17.625  67.233  1.00  0.00    -0.331 N  
HETATM    7  O   UNL     1      -9.974  15.705  65.993  1.00  0.00    -0.284 OA 
HETATM    8  C   UNL     1     -10.255  19.666  68.656  1.00  0.00    -0.498 C  
HETATM    9  N   UNL     1     -10.650  17.473  69.523  1.00  0.00    -0.000 NA 
HETATM   10  C   UNL     1      -9.759  18.410  66.079  1.00  0.00    -0.101 C  
HETATM   11  C   UNL     1      -9.964  19.908  66.222  1.00  0.00    -0.596 C  
HETATM   12  C   UNL     1     -10.348  18.165  68.477  1.00  0.00    -0.336 C  
ENDROOT
BRANCH   3  13
HETATM   13  C   UNL     1     -10.667  13.957  67.998  1.00  0.00    -0.255 C  
BRANCH  13  14
HETATM   14  C   UNL     1     -12.010  13.522  67.347  1.00  0.00    -0.357 C  
BRANCH  14  15
HETATM   15  N   UNL     1     -11.965  12.257  66.592  1.00  0.00    -0.622 NA 
HETATM   16  C   UNL     1      -9.170  11.218  66.183  1.00  0.00    -0.222 C  
HETATM   17  C   UNL     1      -9.733  12.483  65.520  1.00  0.00    -0.133 C  
HETATM   18  C   UNL     1     -11.239  12.339  65.325  1.00  0.00    -0.328 C  
HETATM   19  C   UNL     1      -9.939  10.951  67.485  1.00  0.00    -0.201 C  
HETATM   20  C   UNL     1     -11.469  11.116  67.387  1.00  0.00    -0.180 C  
BRANCH  16  21
HETATM   21  C   UNL     1      -9.131  10.116  65.153  1.00  0.00    -0.201 A  
HETATM   22  N   UNL     1      -9.366  10.333  63.852  1.00  0.00    -0.271 NA 
HETATM   23  O   UNL     1      -8.891   9.209  63.189  1.00  0.00    -0.196 OA 
HETATM   24  C   UNL     1      -8.405   8.316  64.093  1.00  0.00    -0.043 A  
HETATM   25  C   UNL     1      -8.610   8.806  65.370  1.00  0.00    -0.203 A  
HETATM   26  C   UNL     1      -8.194   8.037  66.472  1.00  0.00    -0.115 A  
HETATM   27  C   UNL     1      -7.566   6.809  66.225  1.00  0.00    -0.086 A  
HETATM   28  C   UNL     1      -7.347   6.377  64.918  1.00  0.00    -0.079 A  
HETATM   29  C   UNL     1      -7.765   7.113  63.810  1.00  0.00    -0.119 A  
HETATM   30  F   UNL     1      -6.703   5.219  64.723  1.00  0.00    -0.042 F  
ENDBRANCH  16  21
ENDBRANCH  14  15
ENDBRANCH  13  14
ENDBRANCH   3  13
TORSDOF 4
ENDMDL
MODEL      108
REMARK 921   NORMALIZED FREE ENERGY PREDICTED BY IDOCK:   -5.23 KCAL/MOL
REMARK 922        TOTAL FREE ENERGY PREDICTED BY IDOCK:   -7.19 KCAL/MOL
REMARK 923 INTER-LIGAND FREE ENERGY PREDICTED BY IDOCK:   -6.61 KCAL/MOL
REMARK 924 INTRA-LIGAND FREE ENERGY PREDICTED BY IDOCK:   -0.58 KCAL/MOL
REMARK 927      BINDING AFFINITY PREDICTED BY RF-SCORE:    0.00 PKD
ROOT
HETATM    1  C   UNL     1     -12.477  13.504  70.992  1.00  0.00    -0.451 C  
HETATM    2  C   UNL     1     -11.954  13.744  69.600  1.00  0.00    -0.342 C  
HETATM    3  C   UNL     1     -11.807  12.798  68.651  1.00  0.00    -0.341 C  
HETATM    4  C   UNL     1      -9.963  17.215  66.940  1.00  0.00    -0.288 C  
HETATM    5  C   UNL     1     -11.315  13.259  67.324  1.00  0.00    -0.314 C  
HETATM    6  N   UNL     1     -11.085  14.613  67.177  1.00  0.00    -0.316 N  
HETATM    7  O   UNL     1     -11.140  12.449  66.416  1.00  0.00    -0.274 OA 
HETATM    8  C   UNL     1     -10.896  16.918  68.096  1.00  0.00    -0.351 C  
HETATM    9  N   UNL     1     -11.639  15.063  69.409  1.00  0.00    -0.296 NA 
HETATM   10  C   UNL     1     -10.524  15.042  65.903  1.00  0.00    -0.328 C  
HETATM   11  C   UNL     1     -10.506  16.547  65.692  1.00  0.00    -0.341 C  
HETATM   12  C   UNL     1     -11.208  15.445  68.254  1.00  0.00    -0.323 C  
ENDROOT
BRANCH   3  13
HETATM   13  C   UNL     1     -12.142  11.327  68.717  1.00  0.00    -0.258 C  
BRANCH  13  14
HETATM   14  C   UNL     1     -11.290  10.512  69.730  1.00  0.00    -0.300 C  
BRANCH  14  15
HETATM   15  N   UNL     1     -10.052   9.926  69.185  1.00  0.00    -0.188 NA 
HETATM   16  C   UNL     1     -10.290   6.985  68.593  1.00  0.00    -0.200 C  
HETATM   17  C   UNL     1     -10.291   7.590  70.002  1.00  0.00    -0.222 C  
HETATM   18  C   UNL     1      -9.468   8.875  70.015  1.00  0.00    -0.178 C  
HETATM   19  C   UNL     1     -10.780   8.044  67.593  1.00  0.00    -0.203 C  
HETATM   20  C   UNL     1     -10.190   9.455  67.792  1.00  0.00    -0.222 C  
BRANCH  16  21
HETATM   21  C   UNL     1      -8.941   6.356  68.343  1.00  0.00    -0.120 A  
HETATM   22  N   UNL     1      -8.224   5.774  69.314  1.00  0.00    -0.104 NA 
HETATM   23  O   UNL     1      -7.261   5.011  68.666  1.00  0.00    -0.060 OA 
HETATM   24  C   UNL     1      -7.385   5.163  67.320  1.00  0.00    -0.082 A  
HETATM   25  C   UNL     1      -8.389   6.079  67.058  1.00  0.00    -0.105 A  
HETATM   26  C   UNL     1      -8.686   6.403  65.721  1.00  0.00    -0.135 A  
HETATM   27  C   UNL     1      -7.962   5.764  64.707  1.00  0.00    -0.124 A  
HETATM   28  C   UNL     1      -6.986   4.819  65.022  1.00  0.00    -0.061 A  
HETATM   29  C   UNL     1      -6.662   4.492  66.338  1.00  0.00    -0.050 A  
HETATM   30  F   UNL     1      -6.347   4.196  64.022  1.00  0.00    -0.029 F  
ENDBRANCH  16  21
ENDBRANCH  14  15
ENDBRANCH  13  14
ENDBRANCH   3  13
TORSDOF 4
ENDMDL
MODEL      109
REMARK 921   NORMALIZED FREE ENERGY PREDICTED BY IDOCK:   -5.23 KCAL/MOL
REMARK 922        TOTAL FREE ENERGY PREDICTED BY IDOCK:   -7.18 KCAL/MOL
REMARK 923 INTER-LIGAND FREE ENERGY PREDICTED BY IDOCK:   -6.79 KCAL/MOL
REMARK 924 INTRA-LIGAND FREE ENERGY PREDICTED BY IDOCK:   -0.39 KCAL/MOL
REMARK 927      BINDING AFFINITY PREDICTED BY RF-SCORE:    0.00 PKD
ROOT
HETATM    1  C   UNL     1      -9.033   7.968  65.746  1.00  0.00    -0.148 C  
HETATM    2  C   UNL     1      -9.165   6.822  66.716  1.00  0.00    -0.150 C  
HETATM    3  C   UNL     1      -9.569   6.931  67.997  1.00  0.00    -0.125 C  
HETATM    4  C   UNL     1      -8.191   2.129  67.056  1.00  0.00    -0.080 C  
HETATM    5  C   UNL     1      -9.674   5.663  68.771  1.00  0.00    -0.137 C  
HETATM    6  N   UNL     1      -9.380   4.493  68.098  1.00  0.00    -0.133 N  
HETATM    7  O   UNL     1     -10.019   5.687  69.950  1.00  0.00    -0.174 OA 
HETATM    8  C   UNL     1      -8.535   3.260  66.108  1.00  0.00    -0.111 C  
HETATM    9  N   UNL     1      -8.820   5.634  66.129  1.00  0.00    -0.138 NA 
HETATM   10  C   UNL     1      -9.404   3.267  68.885  1.00  0.00    -0.164 C  
HETATM   11  C   UNL     1      -9.309   1.988  68.071  1.00  0.00    -0.236 C  
HETATM   12  C   UNL     1      -8.910   4.544  66.815  1.00  0.00    -0.112 C  
ENDROOT
BRANCH   3  13
HETATM   13  C   UNL     1     -10.006   8.162  68.753  1.00  0.00    -0.198 C  
BRANCH  13  14
HETATM   14  C   UNL     1      -8.939   9.290  68.830  1.00  0.00    -0.136 C  
BRANCH  14  15
HETATM   15  N   UNL     1      -9.428  10.588  69.327  1.00  0.00    -0.199 NA 
HETATM   16  C   UNL     1     -11.451  11.871  67.507  1.00  0.00    -0.396 C  
HETATM   17  C   UNL     1      -9.966  11.696  67.167  1.00  0.00    -0.219 C  
HETATM   18  C   UNL     1      -9.135  11.718  68.447  1.00  0.00    -0.176 C  
HETATM   19  C   UNL     1     -11.862  10.800  68.529  1.00  0.00    -0.168 C  
HETATM   20  C   UNL     1     -10.861  10.579  69.682  1.00  0.00    -0.274 C  
BRANCH  16  21
HETATM   21  C   UNL     1     -11.691  13.317  67.871  1.00  0.00    -0.357 A  
HETATM   22  N   UNL     1     -12.111  13.696  69.085  1.00  0.00    -0.343 NA 
HETATM   23  O   UNL     1     -11.864  15.060  69.160  1.00  0.00    -0.302 OA 
HETATM   24  C   UNL     1     -11.330  15.495  67.988  1.00  0.00    -0.330 A  
HETATM   25  C   UNL     1     -11.275  14.439  67.096  1.00  0.00    -0.337 A  
HETATM   26  C   UNL     1     -10.764  14.662  65.804  1.00  0.00    -0.321 A  
HETATM   27  C   UNL     1     -10.310  15.947  65.482  1.00  0.00    -0.425 A  
HETATM   28  C   UNL     1     -10.351  16.969  66.429  1.00  0.00    -0.303 A  
HETATM   29  C   UNL     1     -10.868  16.778  67.710  1.00  0.00    -0.285 A  
HETATM   30  F   UNL     1      -9.866  18.173  66.097  1.00  0.00    -0.312 F  
ENDBRANCH  16  21
ENDBRANCH  14  15
ENDBRANCH  13  14
ENDBRANCH   3  13
TORSDOF 4
ENDMDL
MODEL      110
REMARK 921   NORMALIZED FREE ENERGY PREDICTED BY IDOCK:   -5.22 KCAL/MOL
REMARK 922        TOTAL FREE ENERGY PREDICTED BY IDOCK:   -7.17 KCAL/MOL
REMARK 923 INTER-LIGAND FREE ENERGY PREDICTED BY IDOCK:   -7.49 KCAL/MOL
REMARK 924 INTRA-LIGAND FREE ENERGY PREDICTED BY IDOCK:    0.32 KCAL/MOL
REMARK 927      BINDING AFFINITY PREDICTED BY RF-SCORE:    0.00 PKD
ROOT
HETATM    1  C   UNL     1      -9.384   8.994  67.372  1.00  0.00    -0.167 C  
HETATM    2  C   UNL     1     -10.009   8.712  68.714  1.00  0.00    -0.183 C  
HETATM    3  C   UNL     1     -10.568   9.636  69.520  1.00  0.00    -0.247 C  
HETATM    4  C   UNL     1     -10.549   5.127  71.867  1.00  0.00    -0.256 C  
HETATM    5  C   UNL     1     -11.172   9.135  70.785  1.00  0.00    -0.277 C  
HETATM    6  N   UNL     1     -11.134   7.772  71.001  1.00  0.00    -0.253 N  
HETATM    7  O   UNL     1     -11.684   9.923  71.578  1.00  0.00    -0.380 OA 
HETATM    8  C   UNL     1     -10.379   5.477  70.403  1.00  0.00    -0.346 C  
HETATM    9  N   UNL     1      -9.942   7.379  69.022  1.00  0.00    -0.171 NA 
HETATM   10  C   UNL     1     -11.651   7.301  72.279  1.00  0.00    -0.277 C  
HETATM   11  C   UNL     1     -11.809   5.793  72.383  1.00  0.00    -0.227 C  
HETATM   12  C   UNL     1     -10.465   6.962  70.125  1.00  0.00    -0.209 C  
ENDROOT
BRANCH   3  13
HETATM   13  C   UNL     1     -10.736  11.118  69.290  1.00  0.00    -0.241 C  
BRANCH  13  14
HETATM   14  C   UNL     1     -11.149  11.510  67.844  1.00  0.00    -0.256 C  
BRANCH  14  15
HETATM   15  N   UNL     1     -10.288  12.511  67.191  1.00  0.00    -0.220 NA 
HETATM   16  C   UNL     1     -11.049  15.346  67.854  1.00  0.00    -0.323 C  
HETATM   17  C   UNL     1     -11.898  14.396  66.998  1.00  0.00    -0.437 C  
HETATM   18  C   UNL     1     -10.993  13.404  66.273  1.00  0.00    -0.288 C  
HETATM   19  C   UNL     1     -10.162  14.516  68.794  1.00  0.00    -0.244 C  
HETATM   20  C   UNL     1      -9.477  13.298  68.142  1.00  0.00    -0.222 C  
BRANCH  16  21
HETATM   21  C   UNL     1     -10.368  16.334  66.938  1.00  0.00    -0.299 A  
HETATM   22  N   UNL     1     -11.025  17.338  66.342  1.00  0.00     0.091 NA 
HETATM   23  O   UNL     1     -10.047  18.220  65.902  1.00  0.00    -0.542 OA 
HETATM   24  C   UNL     1      -8.816  17.730  66.207  1.00  0.00    -0.173 A  
HETATM   25  C   UNL     1      -8.958  16.485  66.795  1.00  0.00    -0.261 A  
HETATM   26  C   UNL     1      -7.805  15.779  67.186  1.00  0.00    -0.247 A  
HETATM   27  C   UNL     1      -6.557  16.381  66.981  1.00  0.00    -0.225 A  
HETATM   28  C   UNL     1      -6.470  17.654  66.420  1.00  0.00    -0.237 A  
HETATM   29  C   UNL     1      -7.595  18.367  66.009  1.00  0.00    -0.231 A  
HETATM   30  F   UNL     1      -5.260  18.214  66.282  1.00  0.00    -0.148 F  
ENDBRANCH  16  21
ENDBRANCH  14  15
ENDBRANCH  13  14
ENDBRANCH   3  13
TORSDOF 4
ENDMDL
MODEL      111
REMARK 921   NORMALIZED FREE ENERGY PREDICTED BY IDOCK:   -5.17 KCAL/MOL
REMARK 922        TOTAL FREE ENERGY PREDICTED BY IDOCK:   -7.11 KCAL/MOL
REMARK 923 INTER-LIGAND FREE ENERGY PREDICTED BY IDOCK:   -6.94 KCAL/MOL
REMARK 924 INTRA-LIGAND FREE ENERGY PREDICTED BY IDOCK:   -0.17 KCAL/MOL
REMARK 927      BINDING AFFINITY PREDICTED BY RF-SCORE:    0.00 PKD
ROOT
HETATM    1  C   UNL     1      -7.911   9.176  67.666  1.00  0.00    -0.096 C  
HETATM    2  C   UNL     1      -8.065   8.372  66.401  1.00  0.00    -0.104 C  
HETATM    3  C   UNL     1      -8.179   8.889  65.161  1.00  0.00    -0.143 C  
HETATM    4  C   UNL     1      -8.730   3.839  64.952  1.00  0.00    -0.115 C  
HETATM    5  C   UNL     1      -8.275   7.912  64.041  1.00  0.00    -0.022 C  
HETATM    6  N   UNL     1      -8.204   6.573  64.370  1.00  0.00    -0.065 N  
HETATM    7  O   UNL     1      -8.400   8.311  62.885  1.00  0.00    -0.165 OA 
HETATM    8  C   UNL     1      -8.144   4.723  66.034  1.00  0.00    -0.107 C  
HETATM    9  N   UNL     1      -8.072   7.028  66.665  1.00  0.00    -0.108 NA 
HETATM   10  C   UNL     1      -8.383   5.625  63.278  1.00  0.00    -0.056 C  
HETATM   11  C   UNL     1      -8.067   4.182  63.633  1.00  0.00    -0.091 C  
HETATM   12  C   UNL     1      -8.161   6.195  65.684  1.00  0.00    -0.141 C  
ENDROOT
BRANCH   3  13
HETATM   13  C   UNL     1      -8.154  10.335  64.730  1.00  0.00    -0.151 C  
BRANCH  13  14
HETATM   14  C   UNL     1      -9.462  11.123  65.022  1.00  0.00    -0.227 C  
BRANCH  14  15
HETATM   15  N   UNL     1      -9.565  11.692  66.377  1.00  0.00    -0.211 NA 
HETATM   16  C   UNL     1     -11.398  14.075  66.528  1.00  0.00    -0.343 C  
HETATM   17  C   UNL     1     -10.044  14.065  65.807  1.00  0.00    -0.345 C  
HETATM   18  C   UNL     1      -9.102  13.075  66.486  1.00  0.00    -0.127 C  
HETATM   19  C   UNL     1     -11.945  12.641  66.586  1.00  0.00    -0.382 C  
HETATM   20  C   UNL     1     -10.913  11.561  66.968  1.00  0.00    -0.294 C  
BRANCH  16  21
HETATM   21  C   UNL     1     -11.239  14.818  67.832  1.00  0.00    -0.306 A  
HETATM   22  N   UNL     1     -10.890  16.111  67.889  1.00  0.00    -0.330 NA 
HETATM   23  O   UNL     1     -11.200  16.528  69.177  1.00  0.00    -0.295 OA 
HETATM   24  C   UNL     1     -11.702  15.484  69.889  1.00  0.00    -0.352 A  
HETATM   25  C   UNL     1     -11.670  14.344  69.105  1.00  0.00    -0.354 A  
HETATM   26  C   UNL     1     -12.134  13.130  69.646  1.00  0.00    -0.317 A  
HETATM   27  C   UNL     1     -12.629  13.134  70.956  1.00  0.00    -0.397 A  
HETATM   28  C   UNL     1     -12.676  14.317  71.691  1.00  0.00    -0.352 A  
HETATM   29  C   UNL     1     -12.208  15.529  71.185  1.00  0.00    -0.451 A  
HETATM   30  F   UNL     1     -13.199  14.287  72.925  1.00  0.00    -0.491 F  
ENDBRANCH  16  21
ENDBRANCH  14  15
ENDBRANCH  13  14
ENDBRANCH   3  13
TORSDOF 4
ENDMDL
MODEL      112
REMARK 921   NORMALIZED FREE ENERGY PREDICTED BY IDOCK:   -5.14 KCAL/MOL
REMARK 922        TOTAL FREE ENERGY PREDICTED BY IDOCK:   -7.07 KCAL/MOL
REMARK 923 INTER-LIGAND FREE ENERGY PREDICTED BY IDOCK:   -6.96 KCAL/MOL
REMARK 924 INTRA-LIGAND FREE ENERGY PREDICTED BY IDOCK:   -0.11 KCAL/MOL
REMARK 927      BINDING AFFINITY PREDICTED BY RF-SCORE:    0.00 PKD
ROOT
HETATM    1  C   UNL     1      -8.428   5.330  67.686  1.00  0.00    -0.105 C  
HETATM    2  C   UNL     1      -8.822   6.306  68.764  1.00  0.00    -0.123 C  
HETATM    3  C   UNL     1      -8.479   7.608  68.795  1.00  0.00    -0.129 C  
HETATM    4  C   UNL     1     -10.975   6.409  73.058  1.00  0.00    -0.269 C  
HETATM    5  C   UNL     1      -9.015   8.409  69.931  1.00  0.00    -0.142 C  
HETATM    6  N   UNL     1      -9.837   7.754  70.826  1.00  0.00    -0.181 N  
HETATM    7  O   UNL     1      -8.728   9.600  70.034  1.00  0.00    -0.200 OA 
HETATM    8  C   UNL     1     -10.894   5.689  71.727  1.00  0.00    -0.301 C  
HETATM    9  N   UNL     1      -9.587   5.700  69.726  1.00  0.00    -0.153 NA 
HETATM   10  C   UNL     1     -10.287   8.523  71.978  1.00  0.00    -0.338 C  
HETATM   11  C   UNL     1     -11.369   7.851  72.807  1.00  0.00    -0.453 C  
HETATM   12  C   UNL     1     -10.038   6.407  70.706  1.00  0.00    -0.187 C  
ENDROOT
BRANCH   3  13
HETATM   13  C   UNL     1      -7.676   8.403  67.794  1.00  0.00    -0.103 C  
BRANCH  13  14
HETATM   14  C   UNL     1      -8.055   8.148  66.308  1.00  0.00    -0.107 C  
BRANCH  14  15
HETATM   15  N   UNL     1      -8.440   9.344  65.540  1.00  0.00    -0.136 NA 
HETATM   16  C   UNL     1     -10.171  11.249  67.100  1.00  0.00    -0.235 C  
HETATM   17  C   UNL     1     -10.618   9.861  66.623  1.00  0.00    -0.186 C  
HETATM   18  C   UNL     1      -9.881   9.492  65.339  1.00  0.00    -0.177 C  
HETATM   19  C   UNL     1      -8.641  11.262  67.240  1.00  0.00    -0.143 C  
HETATM   20  C   UNL     1      -7.872  10.596  66.081  1.00  0.00    -0.152 C  
BRANCH  16  21
HETATM   21  C   UNL     1     -10.803  12.288  66.205  1.00  0.00    -0.278 A  
HETATM   22  N   UNL     1     -12.016  12.130  65.659  1.00  0.00    -0.523 NA 
HETATM   23  O   UNL     1     -12.403  13.393  65.230  1.00  0.00    -0.415 OA 
HETATM   24  C   UNL     1     -11.414  14.289  65.491  1.00  0.00    -0.329 A  
HETATM   25  C   UNL     1     -10.331  13.623  66.037  1.00  0.00    -0.305 A  
HETATM   26  C   UNL     1      -9.179  14.356  66.378  1.00  0.00    -0.242 A  
HETATM   27  C   UNL     1      -9.187  15.740  66.166  1.00  0.00    -0.385 A  
HETATM   28  C   UNL     1     -10.318  16.370  65.649  1.00  0.00    -0.350 A  
HETATM   29  C   UNL     1     -11.466  15.665  65.289  1.00  0.00    -0.034 A  
HETATM   30  F   UNL     1     -10.302  17.703  65.504  1.00  0.00    -0.283 F  
ENDBRANCH  16  21
ENDBRANCH  14  15
ENDBRANCH  13  14
ENDBRANCH   3  13
TORSDOF 4
ENDMDL
MODEL      113
REMARK 921   NORMALIZED FREE ENERGY PREDICTED BY IDOCK:   -5.13 KCAL/MOL
REMARK 922        TOTAL FREE ENERGY PREDICTED BY IDOCK:   -7.07 KCAL/MOL
REMARK 923 INTER-LIGAND FREE ENERGY PREDICTED BY IDOCK:   -7.32 KCAL/MOL
REMARK 924 INTRA-LIGAND FREE ENERGY PREDICTED BY IDOCK:    0.25 KCAL/MOL
REMARK 927      BINDING AFFINITY PREDICTED BY RF-SCORE:    0.00 PKD
ROOT
HETATM    1  C   UNL     1      -9.597  16.569  68.136  1.00  0.00    -0.226 C  
HETATM    2  C   UNL     1     -10.519  15.681  68.931  1.00  0.00    -0.220 C  
HETATM    3  C   UNL     1     -10.888  14.433  68.580  1.00  0.00    -0.260 C  
HETATM    4  C   UNL     1     -13.385  15.823  72.785  1.00  0.00    -0.636 C  
HETATM    5  C   UNL     1     -11.774  13.710  69.534  1.00  0.00    -0.322 C  
HETATM    6  N   UNL     1     -12.107  14.368  70.701  1.00  0.00    -0.313 N  
HETATM    7  O   UNL     1     -12.165  12.575  69.272  1.00  0.00    -0.195 OA 
HETATM    8  C   UNL     1     -12.138  16.397  72.143  1.00  0.00    -0.415 C  
HETATM    9  N   UNL     1     -10.945  16.304  70.073  1.00  0.00    -0.361 NA 
HETATM   10  C   UNL     1     -13.041  13.687  71.588  1.00  0.00    -0.372 C  
HETATM   11  C   UNL     1     -13.199  14.328  72.956  1.00  0.00    -0.500 C  
HETATM   12  C   UNL     1     -11.716  15.666  70.887  1.00  0.00    -0.387 C  
ENDROOT
BRANCH   3  13
HETATM   13  C   UNL     1     -10.472  13.623  67.376  1.00  0.00    -0.251 C  
BRANCH  13  14
HETATM   14  C   UNL     1     -11.649  13.103  66.504  1.00  0.00    -0.356 C  
BRANCH  14  15
HETATM   15  N   UNL     1     -11.539  11.700  66.067  1.00  0.00    -0.355 NA 
HETATM   16  C   UNL     1      -8.823  11.007  64.973  1.00  0.00    -0.093 C  
HETATM   17  C   UNL     1      -9.823  11.943  64.284  1.00  0.00    -0.217 C  
HETATM   18  C   UNL     1     -11.248  11.535  64.644  1.00  0.00    -0.206 C  
HETATM   19  C   UNL     1      -9.102  11.000  66.484  1.00  0.00    -0.186 C  
HETATM   20  C   UNL     1     -10.591  10.907  66.874  1.00  0.00    -0.261 C  
BRANCH  16  21
HETATM   21  C   UNL     1      -8.835   9.680  64.252  1.00  0.00    -0.228 A  
HETATM   22  N   UNL     1      -8.883   9.585  62.916  1.00  0.00    -0.236 NA 
HETATM   23  O   UNL     1      -8.512   8.280  62.618  1.00  0.00    -0.163 OA 
HETATM   24  C   UNL     1      -8.276   7.596  63.770  1.00  0.00     0.042 A  
HETATM   25  C   UNL     1      -8.549   8.418  64.849  1.00  0.00    -0.108 A  
HETATM   26  C   UNL     1      -8.384   7.911  66.151  1.00  0.00    -0.127 A  
HETATM   27  C   UNL     1      -7.928   6.596  66.300  1.00  0.00    -0.108 A  
HETATM   28  C   UNL     1      -7.629   5.821  65.180  1.00  0.00    -0.086 A  
HETATM   29  C   UNL     1      -7.799   6.293  63.879  1.00  0.00    -0.112 A  
HETATM   30  F   UNL     1      -7.151   4.583  65.364  1.00  0.00    -0.060 F  
ENDBRANCH  16  21
ENDBRANCH  14  15
ENDBRANCH  13  14
ENDBRANCH   3  13
TORSDOF 4
ENDMDL
MODEL      114
REMARK 921   NORMALIZED FREE ENERGY PREDICTED BY IDOCK:   -5.13 KCAL/MOL
REMARK 922        TOTAL FREE ENERGY PREDICTED BY IDOCK:   -7.07 KCAL/MOL
REMARK 923 INTER-LIGAND FREE ENERGY PREDICTED BY IDOCK:   -6.53 KCAL/MOL
REMARK 924 INTRA-LIGAND FREE ENERGY PREDICTED BY IDOCK:   -0.54 KCAL/MOL
REMARK 927      BINDING AFFINITY PREDICTED BY RF-SCORE:    0.00 PKD
ROOT
HETATM    1  C   UNL     1     -11.908  10.862  69.063  1.00  0.00    -0.370 C  
HETATM    2  C   UNL     1     -10.965   9.719  69.341  1.00  0.00    -0.212 C  
HETATM    3  C   UNL     1      -9.752   9.559  68.777  1.00  0.00    -0.164 C  
HETATM    4  C   UNL     1     -10.818   5.528  71.684  1.00  0.00    -0.271 C  
HETATM    5  C   UNL     1      -8.960   8.381  69.228  1.00  0.00    -0.150 C  
HETATM    6  N   UNL     1      -9.526   7.582  70.203  1.00  0.00    -0.161 N  
HETATM    7  O   UNL     1      -7.853   8.161  68.744  1.00  0.00    -0.109 OA 
HETATM    8  C   UNL     1     -11.434   6.912  71.654  1.00  0.00    -0.312 C  
HETATM    9  N   UNL     1     -11.498   8.848  70.253  1.00  0.00    -0.171 NA 
HETATM   10  C   UNL     1      -8.783   6.387  70.576  1.00  0.00    -0.144 C  
HETATM   11  C   UNL     1      -9.314   5.667  71.804  1.00  0.00    -0.163 C  
HETATM   12  C   UNL     1     -10.802   7.829  70.629  1.00  0.00    -0.237 C  
ENDROOT
BRANCH   3  13
HETATM   13  C   UNL     1      -9.037  10.452  67.792  1.00  0.00    -0.134 C  
BRANCH  13  14
HETATM   14  C   UNL     1      -8.552  11.808  68.377  1.00  0.00    -0.156 C  
BRANCH  14  15
HETATM   15  N   UNL     1      -8.318  12.874  67.387  1.00  0.00    -0.181 NA 
HETATM   16  C   UNL     1      -7.246  15.409  68.604  1.00  0.00    -0.121 C  
HETATM   17  C   UNL     1      -8.666  14.873  68.825  1.00  0.00    -0.182 C  
HETATM   18  C   UNL     1      -9.117  14.080  67.602  1.00  0.00    -0.192 C  
HETATM   19  C   UNL     1      -6.317  14.238  68.250  1.00  0.00    -0.118 C  
HETATM   20  C   UNL     1      -6.893  13.230  67.234  1.00  0.00     0.051 C  
BRANCH  16  21
HETATM   21  C   UNL     1      -7.317  16.565  67.636  1.00  0.00    -0.138 A  
HETATM   22  N   UNL     1      -6.884  16.477  66.371  1.00  0.00    -0.156 NA 
HETATM   23  O   UNL     1      -7.434  17.565  65.707  1.00  0.00    -0.490 OA 
HETATM   24  C   UNL     1      -8.164  18.313  66.578  1.00  0.00    -0.268 A  
HETATM   25  C   UNL     1      -8.055  17.767  67.845  1.00  0.00    -0.235 A  
HETATM   26  C   UNL     1      -8.724  18.389  68.916  1.00  0.00    -0.164 A  
HETATM   27  C   UNL     1      -9.493  19.528  68.647  1.00  0.00    -0.462 A  
HETATM   28  C   UNL     1      -9.603  20.016  67.345  1.00  0.00    -0.394 A  
HETATM   29  C   UNL     1      -8.937  19.428  66.270  1.00  0.00    -0.374 A  
HETATM   30  F   UNL     1     -10.385  21.081  67.122  1.00  0.00    -0.349 F  
ENDBRANCH  16  21
ENDBRANCH  14  15
ENDBRANCH  13  14
ENDBRANCH   3  13
TORSDOF 4
ENDMDL
MODEL      115
REMARK 921   NORMALIZED FREE ENERGY PREDICTED BY IDOCK:   -5.11 KCAL/MOL
REMARK 922        TOTAL FREE ENERGY PREDICTED BY IDOCK:   -7.04 KCAL/MOL
REMARK 923 INTER-LIGAND FREE ENERGY PREDICTED BY IDOCK:   -6.65 KCAL/MOL
REMARK 924 INTRA-LIGAND FREE ENERGY PREDICTED BY IDOCK:   -0.39 KCAL/MOL
REMARK 927      BINDING AFFINITY PREDICTED BY RF-SCORE:    0.00 PKD
ROOT
HETATM    1  C   UNL     1      -9.690   5.303  68.103  1.00  0.00    -0.184 C  
HETATM    2  C   UNL     1      -9.254   5.198  66.664  1.00  0.00    -0.129 C  
HETATM    3  C   UNL     1      -8.680   6.188  65.952  1.00  0.00    -0.158 C  
HETATM    4  C   UNL     1      -9.502   2.184  62.930  1.00  0.00    -0.090 C  
HETATM    5  C   UNL     1      -8.283   5.858  64.556  1.00  0.00    -0.110 C  
HETATM    6  N   UNL     1      -8.510   4.564  64.129  1.00  0.00    -0.115 N  
HETATM    7  O   UNL     1      -7.770   6.717  63.842  1.00  0.00    -0.102 OA 
HETATM    8  C   UNL     1      -9.467   2.288  64.442  1.00  0.00    -0.133 C  
HETATM    9  N   UNL     1      -9.516   3.954  66.156  1.00  0.00    -0.176 NA 
HETATM   10  C   UNL     1      -8.197   4.274  62.737  1.00  0.00    -0.083 C  
HETATM   11  C   UNL     1      -8.235   2.800  62.371  1.00  0.00    -0.073 C  
HETATM   12  C   UNL     1      -9.172   3.685  64.942  1.00  0.00    -0.147 C  
ENDROOT
BRANCH   3  13
HETATM   13  C   UNL     1      -8.309   7.583  66.394  1.00  0.00    -0.126 C  
BRANCH  13  14
HETATM   14  C   UNL     1      -9.464   8.620  66.310  1.00  0.00    -0.241 C  
BRANCH  14  15
HETATM   15  N   UNL     1      -9.083  10.014  66.595  1.00  0.00    -0.146 NA 
HETATM   16  C   UNL     1     -11.246  11.997  65.928  1.00  0.00    -0.385 C  
HETATM   17  C   UNL     1     -10.459  11.189  64.889  1.00  0.00    -0.372 C  
HETATM   18  C   UNL     1      -9.062  10.884  65.420  1.00  0.00    -0.198 C  
HETATM   19  C   UNL     1     -11.244  11.236  67.263  1.00  0.00    -0.364 C  
HETATM   20  C   UNL     1      -9.884  10.634  67.670  1.00  0.00    -0.167 C  
BRANCH  16  21
HETATM   21  C   UNL     1     -10.723  13.413  65.928  1.00  0.00    -0.279 A  
HETATM   22  N   UNL     1     -10.540  14.116  64.802  1.00  0.00    -0.424 NA 
HETATM   23  O   UNL     1     -10.416  15.441  65.200  1.00  0.00    -0.392 OA 
HETATM   24  C   UNL     1     -10.494  15.521  66.556  1.00  0.00    -0.300 A  
HETATM   25  C   UNL     1     -10.605  14.246  67.080  1.00  0.00    -0.280 A  
HETATM   26  C   UNL     1     -10.689  14.086  68.476  1.00  0.00    -0.266 A  
HETATM   27  C   UNL     1     -10.677  15.234  69.277  1.00  0.00    -0.252 A  
HETATM   28  C   UNL     1     -10.602  16.500  68.698  1.00  0.00    -0.316 A  
HETATM   29  C   UNL     1     -10.502  16.685  67.319  1.00  0.00    -0.313 A  
HETATM   30  F   UNL     1     -10.639  17.575  69.497  1.00  0.00    -0.332 F  
ENDBRANCH  16  21
ENDBRANCH  14  15
ENDBRANCH  13  14
ENDBRANCH   3  13
TORSDOF 4
ENDMDL
MODEL      116
REMARK 921   NORMALIZED FREE ENERGY PREDICTED BY IDOCK:   -5.10 KCAL/MOL
REMARK 922        TOTAL FREE ENERGY PREDICTED BY IDOCK:   -7.03 KCAL/MOL
REMARK 923 INTER-LIGAND FREE ENERGY PREDICTED BY IDOCK:   -6.34 KCAL/MOL
REMARK 924 INTRA-LIGAND FREE ENERGY PREDICTED BY IDOCK:   -0.69 KCAL/MOL
REMARK 927      BINDING AFFINITY PREDICTED BY RF-SCORE:    0.00 PKD
ROOT
HETATM    1  C   UNL     1      -7.078   6.193  70.698  1.00  0.00    -0.068 C  
HETATM    2  C   UNL     1      -8.200   5.691  71.570  1.00  0.00    -0.119 C  
HETATM    3  C   UNL     1      -9.266   6.419  71.958  1.00  0.00    -0.148 C  
HETATM    4  C   UNL     1      -9.418   1.857  74.197  1.00  0.00    -0.090 C  
HETATM    5  C   UNL     1     -10.286   5.713  72.783  1.00  0.00    -0.193 C  
HETATM    6  N   UNL     1     -10.063   4.376  73.046  1.00  0.00    -0.148 N  
HETATM    7  O   UNL     1     -11.276   6.319  73.188  1.00  0.00    -0.211 OA 
HETATM    8  C   UNL     1      -8.635   2.338  72.992  1.00  0.00    -0.067 C  
HETATM    9  N   UNL     1      -8.004   4.384  71.926  1.00  0.00    -0.094 NA 
HETATM   10  C   UNL     1     -11.022   3.718  73.923  1.00  0.00    -0.195 C  
HETATM   11  C   UNL     1     -10.879   2.207  73.999  1.00  0.00    -0.250 C  
HETATM   12  C   UNL     1      -8.895   3.789  72.646  1.00  0.00    -0.094 C  
ENDROOT
BRANCH   3  13
HETATM   13  C   UNL     1      -9.618   7.846  71.615  1.00  0.00    -0.206 C  
BRANCH  13  14
HETATM   14  C   UNL     1     -10.645   8.002  70.458  1.00  0.00    -0.220 C  
BRANCH  14  15
HETATM   15  N   UNL     1     -10.067   8.305  69.138  1.00  0.00    -0.197 NA 
HETATM   16  C   UNL     1      -9.937  11.254  68.547  1.00  0.00    -0.206 C  
HETATM   17  C   UNL     1     -11.237  10.443  68.643  1.00  0.00    -0.305 C  
HETATM   18  C   UNL     1     -10.978   8.998  68.227  1.00  0.00     0.082 C  
HETATM   19  C   UNL     1      -8.850  10.556  69.379  1.00  0.00    -0.091 C  
HETATM   20  C   UNL     1      -8.780   9.025  69.212  1.00  0.00    -0.138 C  
BRANCH  16  21
HETATM   21  C   UNL     1      -9.644  11.518  67.090  1.00  0.00    -0.177 A  
HETATM   22  N   UNL     1      -8.625  10.939  66.441  1.00  0.00    -0.155 NA 
HETATM   23  O   UNL     1      -8.887  11.119  65.090  1.00  0.00    -0.155 OA 
HETATM   24  C   UNL     1     -10.038  11.827  64.936  1.00  0.00    -0.259 A  
HETATM   25  C   UNL     1     -10.521  12.182  66.183  1.00  0.00    -0.281 A  
HETATM   26  C   UNL     1     -11.706  12.936  66.267  1.00  0.00    -0.457 A  
HETATM   27  C   UNL     1     -12.361  13.278  65.077  1.00  0.00    -0.499 A  
HETATM   28  C   UNL     1     -11.855  12.862  63.847  1.00  0.00    -0.473 A  
HETATM   29  C   UNL     1     -10.674  12.128  63.736  1.00  0.00    -0.488 A  
HETATM   30  F   UNL     1     -12.535  13.170  62.734  1.00  0.00    -0.437 F  
ENDBRANCH  16  21
ENDBRANCH  14  15
ENDBRANCH  13  14
ENDBRANCH   3  13
TORSDOF 4
ENDMDL
MODEL      117
REMARK 921   NORMALIZED FREE ENERGY PREDICTED BY IDOCK:   -5.09 KCAL/MOL
REMARK 922        TOTAL FREE ENERGY PREDICTED BY IDOCK:   -7.02 KCAL/MOL
REMARK 923 INTER-LIGAND FREE ENERGY PREDICTED BY IDOCK:   -6.57 KCAL/MOL
REMARK 924 INTRA-LIGAND FREE ENERGY PREDICTED BY IDOCK:   -0.45 KCAL/MOL
REMARK 927      BINDING AFFINITY PREDICTED BY RF-SCORE:    0.00 PKD
ROOT
HETATM    1  C   UNL     1      -7.306  13.192  68.567  1.00  0.00    -0.111 C  
HETATM    2  C   UNL     1      -8.633  12.951  67.896  1.00  0.00    -0.185 C  
HETATM    3  C   UNL     1      -9.380  11.838  68.031  1.00  0.00    -0.184 C  
HETATM    4  C   UNL     1     -11.537  14.926  64.618  1.00  0.00    -0.395 C  
HETATM    5  C   UNL     1     -10.686  11.824  67.315  1.00  0.00    -0.237 C  
HETATM    6  N   UNL     1     -11.024  12.961  66.608  1.00  0.00    -0.271 N  
HETATM    7  O   UNL     1     -11.412  10.834  67.377  1.00  0.00    -0.467 OA 
HETATM    8  C   UNL     1     -10.487  15.204  65.674  1.00  0.00    -0.378 C  
HETATM    9  N   UNL     1      -8.997  14.019  67.120  1.00  0.00    -0.222 NA 
HETATM   10  C   UNL     1     -12.263  12.905  65.842  1.00  0.00    -0.407 C  
HETATM   11  C   UNL     1     -12.718  14.239  65.275  1.00  0.00    -0.358 C  
HETATM   12  C   UNL     1     -10.129  13.988  66.501  1.00  0.00    -0.285 C  
ENDROOT
BRANCH   3  13
HETATM   13  C   UNL     1      -9.115  10.612  68.872  1.00  0.00    -0.181 C  
BRANCH  13  14
HETATM   14  C   UNL     1      -8.466   9.426  68.105  1.00  0.00    -0.120 C  
BRANCH  14  15
HETATM   15  N   UNL     1      -9.169   8.137  68.226  1.00  0.00    -0.135 NA 
HETATM   16  C   UNL     1      -8.519   6.665  70.770  1.00  0.00    -0.134 C  
HETATM   17  C   UNL     1      -7.529   6.889  69.619  1.00  0.00    -0.099 C  
HETATM   18  C   UNL     1      -8.284   6.974  68.296  1.00  0.00    -0.124 C  
HETATM   19  C   UNL     1      -9.585   7.771  70.736  1.00  0.00    -0.167 C  
HETATM   20  C   UNL     1     -10.142   8.101  69.337  1.00  0.00    -0.194 C  
BRANCH  16  21
HETATM   21  C   UNL     1      -8.992   5.233  70.721  1.00  0.00    -0.136 A  
HETATM   22  N   UNL     1      -8.454   4.321  69.900  1.00  0.00    -0.061 NA 
HETATM   23  O   UNL     1      -8.868   3.087  70.384  1.00  0.00    -0.068 OA 
HETATM   24  C   UNL     1      -9.672   3.265  71.466  1.00  0.00    -0.163 A  
HETATM   25  C   UNL     1      -9.856   4.620  71.676  1.00  0.00    -0.253 A  
HETATM   26  C   UNL     1     -10.669   5.041  72.745  1.00  0.00    -0.292 A  
HETATM   27  C   UNL     1     -11.244   4.064  73.567  1.00  0.00    -0.325 A  
HETATM   28  C   UNL     1     -10.996   2.712  73.337  1.00  0.00    -0.195 A  
HETATM   29  C   UNL     1     -10.208   2.268  72.276  1.00  0.00    -0.210 A  
HETATM   30  F   UNL     1     -11.528   1.810  74.173  1.00  0.00    -0.219 F  
ENDBRANCH  16  21
ENDBRANCH  14  15
ENDBRANCH  13  14
ENDBRANCH   3  13
TORSDOF 4
ENDMDL
MODEL      118
REMARK 921   NORMALIZED FREE ENERGY PREDICTED BY IDOCK:   -5.09 KCAL/MOL
REMARK 922        TOTAL FREE ENERGY PREDICTED BY IDOCK:   -7.01 KCAL/MOL
REMARK 923 INTER-LIGAND FREE ENERGY PREDICTED BY IDOCK:   -6.70 KCAL/MOL
REMARK 924 INTRA-LIGAND FREE ENERGY PREDICTED BY IDOCK:   -0.31 KCAL/MOL
REMARK 927      BINDING AFFINITY PREDICTED BY RF-SCORE:    0.00 PKD
ROOT
HETATM    1  C   UNL     1      -9.520   5.536  71.382  1.00  0.00    -0.182 C  
HETATM    2  C   UNL     1      -9.679   5.379  69.892  1.00  0.00    -0.184 C  
HETATM    3  C   UNL     1     -10.181   6.314  69.061  1.00  0.00    -0.224 C  
HETATM    4  C   UNL     1      -9.268   2.047  66.455  1.00  0.00     0.017 C  
HETATM    5  C   UNL     1     -10.206   5.971  67.613  1.00  0.00    -0.181 C  
HETATM    6  N   UNL     1      -9.686   4.745  67.250  1.00  0.00    -0.169 N  
HETATM    7  O   UNL     1     -10.667   6.769  66.799  1.00  0.00    -0.294 OA 
HETATM    8  C   UNL     1      -8.763   2.502  67.809  1.00  0.00    -0.139 C  
HETATM    9  N   UNL     1      -9.243   4.150  69.473  1.00  0.00    -0.130 NA 
HETATM   10  C   UNL     1      -9.792   4.384  65.843  1.00  0.00    -0.228 C  
HETATM   11  C   UNL     1      -9.006   3.146  65.444  1.00  0.00    -0.142 C  
HETATM   12  C   UNL     1      -9.277   3.866  68.215  1.00  0.00    -0.155 C  
ENDROOT
BRANCH   3  13
HETATM   13  C   UNL     1     -10.663   7.708  69.383  1.00  0.00    -0.188 C  
BRANCH  13  14
HETATM   14  C   UNL     1      -9.832   8.850  68.733  1.00  0.00    -0.173 C  
BRANCH  14  15
HETATM   15  N   UNL     1      -9.870  10.141  69.441  1.00  0.00    -0.218 NA 
HETATM   16  C   UNL     1     -11.784  12.112  68.213  1.00  0.00    -0.401 C  
HETATM   17  C   UNL     1     -10.480  11.643  67.556  1.00  0.00    -0.228 C  
HETATM   18  C   UNL     1      -9.457  11.285  68.630  1.00  0.00    -0.175 C  
HETATM   19  C   UNL     1     -12.268  11.033  69.193  1.00  0.00    -0.229 C  
HETATM   20  C   UNL     1     -11.171  10.418  70.085  1.00  0.00    -0.321 C  
BRANCH  16  21
HETATM   21  C   UNL     1     -11.572  13.506  68.754  1.00  0.00    -0.325 A  
HETATM   22  N   UNL     1     -11.483  13.766  70.066  1.00  0.00    -0.176 NA 
HETATM   23  O   UNL     1     -10.934  15.038  70.162  1.00  0.00    -0.249 OA 
HETATM   24  C   UNL     1     -10.727  15.543  68.916  1.00  0.00    -0.242 A  
HETATM   25  C   UNL     1     -11.195  14.640  67.978  1.00  0.00    -0.307 A  
HETATM   26  C   UNL     1     -11.094  14.961  66.611  1.00  0.00    -0.329 A  
HETATM   27  C   UNL     1     -10.500  16.180  66.258  1.00  0.00    -0.321 A  
HETATM   28  C   UNL     1     -10.009  17.038  67.241  1.00  0.00    -0.275 A  
HETATM   29  C   UNL     1     -10.111  16.751  68.601  1.00  0.00    -0.279 A  
HETATM   30  F   UNL     1      -9.407  18.173  66.860  1.00  0.00    -0.252 F  
ENDBRANCH  16  21
ENDBRANCH  14  15
ENDBRANCH  13  14
ENDBRANCH   3  13
TORSDOF 4
ENDMDL
MODEL      119
REMARK 921   NORMALIZED FREE ENERGY PREDICTED BY IDOCK:   -5.08 KCAL/MOL
REMARK 922        TOTAL FREE ENERGY PREDICTED BY IDOCK:   -7.00 KCAL/MOL
REMARK 923 INTER-LIGAND FREE ENERGY PREDICTED BY IDOCK:   -7.33 KCAL/MOL
REMARK 924 INTRA-LIGAND FREE ENERGY PREDICTED BY IDOCK:    0.33 KCAL/MOL
REMARK 927      BINDING AFFINITY PREDICTED BY RF-SCORE:    0.00 PKD
ROOT
HETATM    1  C   UNL     1     -12.430  13.226  70.672  1.00  0.00    -0.373 C  
HETATM    2  C   UNL     1     -11.774  13.683  69.395  1.00  0.00    -0.324 C  
HETATM    3  C   UNL     1     -11.409  12.877  68.377  1.00  0.00    -0.329 C  
HETATM    4  C   UNL     1      -9.881  17.629  67.411  1.00  0.00    -0.305 C  
HETATM    5  C   UNL     1     -10.816  13.542  67.184  1.00  0.00    -0.284 C  
HETATM    6  N   UNL     1     -10.724  14.920  67.216  1.00  0.00    -0.287 N  
HETATM    7  O   UNL     1     -10.444  12.869  66.226  1.00  0.00    -0.262 OA 
HETATM    8  C   UNL     1     -10.907  17.104  68.395  1.00  0.00    -0.309 C  
HETATM    9  N   UNL     1     -11.589  15.040  69.391  1.00  0.00    -0.296 NA 
HETATM   10  C   UNL     1     -10.066  15.553  66.081  1.00  0.00    -0.309 C  
HETATM   11  C   UNL     1     -10.192  17.066  66.038  1.00  0.00    -0.337 C  
HETATM   12  C   UNL     1     -11.068  15.599  68.351  1.00  0.00    -0.326 C  
ENDROOT
BRANCH   3  13
HETATM   13  C   UNL     1     -11.582  11.384  68.240  1.00  0.00    -0.376 C  
BRANCH  13  14
HETATM   14  C   UNL     1     -12.118  10.672  69.514  1.00  0.00    -0.214 C  
BRANCH  14  15
HETATM   15  N   UNL     1     -11.096  10.015  70.347  1.00  0.00    -0.305 NA 
HETATM   16  C   UNL     1     -11.579   7.067  70.714  1.00  0.00    -0.381 C  
HETATM   17  C   UNL     1     -12.457   8.173  71.315  1.00  0.00    -0.269 C  
HETATM   18  C   UNL     1     -11.615   9.418  71.576  1.00  0.00    -0.397 C  
HETATM   19  C   UNL     1     -10.875   7.612  69.462  1.00  0.00    -0.171 C  
HETATM   20  C   UNL     1     -10.283   9.028  69.608  1.00  0.00    -0.206 C  
BRANCH  16  21
HETATM   21  C   UNL     1     -10.715   6.494  71.811  1.00  0.00    -0.228 A  
HETATM   22  N   UNL     1     -11.199   6.171  73.018  1.00  0.00    -0.215 NA 
HETATM   23  O   UNL     1     -10.238   5.360  73.606  1.00  0.00    -0.181 OA 
HETATM   24  C   UNL     1      -9.176   5.225  72.766  1.00  0.00    -0.133 A  
HETATM   25  C   UNL     1      -9.390   5.998  71.638  1.00  0.00    -0.160 A  
HETATM   26  C   UNL     1      -8.407   6.022  70.631  1.00  0.00    -0.125 A  
HETATM   27  C   UNL     1      -7.259   5.240  70.805  1.00  0.00    -0.065 A  
HETATM   28  C   UNL     1      -7.108   4.448  71.942  1.00  0.00    -0.055 A  
HETATM   29  C   UNL     1      -8.059   4.419  72.962  1.00  0.00    -0.095 A  
HETATM   30  F   UNL     1      -6.016   3.679  72.050  1.00  0.00    -0.010 F  
ENDBRANCH  16  21
ENDBRANCH  14  15
ENDBRANCH  13  14
ENDBRANCH   3  13
TORSDOF 4
ENDMDL
MODEL      120
REMARK 921   NORMALIZED FREE ENERGY PREDICTED BY IDOCK:   -5.06 KCAL/MOL
REMARK 922        TOTAL FREE ENERGY PREDICTED BY IDOCK:   -6.98 KCAL/MOL
REMARK 923 INTER-LIGAND FREE ENERGY PREDICTED BY IDOCK:   -6.69 KCAL/MOL
REMARK 924 INTRA-LIGAND FREE ENERGY PREDICTED BY IDOCK:   -0.29 KCAL/MOL
REMARK 927      BINDING AFFINITY PREDICTED BY RF-SCORE:    0.00 PKD
ROOT
HETATM    1  C   UNL     1     -10.076   4.463  71.732  1.00  0.00    -0.238 C  
HETATM    2  C   UNL     1     -10.428   5.928  71.701  1.00  0.00    -0.233 C  
HETATM    3  C   UNL     1      -9.540   6.939  71.646  1.00  0.00    -0.161 C  
HETATM    4  C   UNL     1     -14.235   8.830  72.119  1.00  0.00    -0.504 C  
HETATM    5  C   UNL     1     -10.104   8.316  71.575  1.00  0.00    -0.208 C  
HETATM    6  N   UNL     1     -11.480   8.428  71.540  1.00  0.00    -0.264 N  
HETATM    7  O   UNL     1      -9.353   9.288  71.541  1.00  0.00    -0.287 OA 
HETATM    8  C   UNL     1     -13.764   7.453  71.698  1.00  0.00    -0.468 C  
HETATM    9  N   UNL     1     -11.785   6.112  71.734  1.00  0.00    -0.287 NA 
HETATM   10  C   UNL     1     -12.023   9.779  71.557  1.00  0.00    -0.407 C  
HETATM   11  C   UNL     1     -13.514   9.867  71.281  1.00  0.00    -0.353 C  
HETATM   12  C   UNL     1     -12.258   7.311  71.678  1.00  0.00    -0.343 C  
ENDROOT
BRANCH   3  13
HETATM   13  C   UNL     1      -8.033   6.877  71.573  1.00  0.00    -0.104 C  
BRANCH  13  14
HETATM   14  C   UNL     1      -7.472   6.197  70.292  1.00  0.00    -0.090 C  
BRANCH  14  15
HETATM   15  N   UNL     1      -7.140   7.112  69.186  1.00  0.00    -0.081 NA 
HETATM   16  C   UNL     1      -8.797   6.643  66.718  1.00  0.00    -0.132 C  
HETATM   17  C   UNL     1      -7.735   5.671  67.248  1.00  0.00    -0.101 C  
HETATM   18  C   UNL     1      -6.644   6.446  67.983  1.00  0.00    -0.066 C  
HETATM   19  C   UNL     1      -9.321   7.497  67.882  1.00  0.00    -0.144 C  
HETATM   20  C   UNL     1      -8.238   8.036  68.839  1.00  0.00    -0.125 C  
BRANCH  16  21
HETATM   21  C   UNL     1      -8.228   7.365  65.520  1.00  0.00    -0.135 A  
HETATM   22  N   UNL     1      -7.370   6.787  64.668  1.00  0.00    -0.082 NA 
HETATM   23  O   UNL     1      -7.363   7.591  63.536  1.00  0.00    -0.077 OA 
HETATM   24  C   UNL     1      -8.186   8.657  63.726  1.00  0.00    -0.145 A  
HETATM   25  C   UNL     1      -8.701   8.609  65.010  1.00  0.00    -0.154 A  
HETATM   26  C   UNL     1      -9.576   9.627  65.433  1.00  0.00    -0.361 A  
HETATM   27  C   UNL     1      -9.906  10.639  64.523  1.00  0.00    -0.388 A  
HETATM   28  C   UNL     1      -9.392  10.621  63.228  1.00  0.00    -0.306 A  
HETATM   29  C   UNL     1      -8.510   9.634  62.789  1.00  0.00    -0.179 A  
HETATM   30  F   UNL     1      -9.767  11.583  62.373  1.00  0.00    -0.265 F  
ENDBRANCH  16  21
ENDBRANCH  14  15
ENDBRANCH  13  14
ENDBRANCH   3  13
TORSDOF 4
ENDMDL
MODEL      121
REMARK 921   NORMALIZED FREE ENERGY PREDICTED BY IDOCK:   -5.05 KCAL/MOL
REMARK 922        TOTAL FREE ENERGY PREDICTED BY IDOCK:   -6.97 KCAL/MOL
REMARK 923 INTER-LIGAND FREE ENERGY PREDICTED BY IDOCK:   -6.39 KCAL/MOL
REMARK 924 INTRA-LIGAND FREE ENERGY PREDICTED BY IDOCK:   -0.58 KCAL/MOL
REMARK 927      BINDING AFFINITY PREDICTED BY RF-SCORE:    0.00 PKD
ROOT
HETATM    1  C   UNL     1      -9.292   8.297  72.614  1.00  0.00    -0.350 C  
HETATM    2  C   UNL     1      -9.588   7.349  71.481  1.00  0.00    -0.151 C  
HETATM    3  C   UNL     1     -10.303   7.653  70.380  1.00  0.00    -0.214 C  
HETATM    4  C   UNL     1      -9.091   2.716  70.306  1.00  0.00    -0.182 C  
HETATM    5  C   UNL     1     -10.437   6.578  69.358  1.00  0.00    -0.221 C  
HETATM    6  N   UNL     1      -9.793   5.384  69.616  1.00  0.00    -0.175 N  
HETATM    7  O   UNL     1     -11.091   6.778  68.336  1.00  0.00    -0.210 OA 
HETATM    8  C   UNL     1      -8.511   3.862  71.111  1.00  0.00    -0.099 C  
HETATM    9  N   UNL     1      -9.033   6.118  71.708  1.00  0.00    -0.141 NA 
HETATM   10  C   UNL     1     -10.000   4.313  68.652  1.00  0.00     0.046 C  
HETATM   11  C   UNL     1      -9.097   3.106  68.841  1.00  0.00    -0.208 C  
HETATM   12  C   UNL     1      -9.164   5.196  70.815  1.00  0.00    -0.145 C  
ENDROOT
BRANCH   3  13
HETATM   13  C   UNL     1     -10.938   8.967  69.993  1.00  0.00    -0.217 C  
BRANCH  13  14
HETATM   14  C   UNL     1     -10.023   9.911  69.162  1.00  0.00    -0.198 C  
BRANCH  14  15
HETATM   15  N   UNL     1     -10.721  10.985  68.435  1.00  0.00    -0.189 NA 
HETATM   16  C   UNL     1      -8.875  12.691  66.780  1.00  0.00    -0.168 C  
HETATM   17  C   UNL     1      -8.896  12.670  68.314  1.00  0.00    -0.172 C  
HETATM   18  C   UNL     1     -10.300  12.335  68.808  1.00  0.00    -0.135 C  
HETATM   19  C   UNL     1      -9.412  11.351  66.253  1.00  0.00    -0.229 C  
HETATM   20  C   UNL     1     -10.674  10.826  66.968  1.00  0.00    -0.265 C  
BRANCH  16  21
HETATM   21  C   UNL     1      -9.555  13.953  66.309  1.00  0.00    -0.256 A  
HETATM   22  N   UNL     1     -10.753  13.948  65.708  1.00  0.00    -0.283 NA 
HETATM   23  O   UNL     1     -11.206  15.260  65.760  1.00  0.00    -0.325 OA 
HETATM   24  C   UNL     1     -10.271  16.045  66.359  1.00  0.00    -0.305 A  
HETATM   25  C   UNL     1      -9.158  15.278  66.654  1.00  0.00    -0.312 A  
HETATM   26  C   UNL     1      -8.051  15.891  67.272  1.00  0.00    -0.213 A  
HETATM   27  C   UNL     1      -8.134  17.254  67.582  1.00  0.00    -0.198 A  
HETATM   28  C   UNL     1      -9.294  17.974  67.298  1.00  0.00    -0.256 A  
HETATM   29  C   UNL     1     -10.397  17.395  66.672  1.00  0.00    -0.306 A  
HETATM   30  F   UNL     1      -9.351  19.265  67.651  1.00  0.00    -0.316 F  
ENDBRANCH  16  21
ENDBRANCH  14  15
ENDBRANCH  13  14
ENDBRANCH   3  13
TORSDOF 4
ENDMDL
MODEL      122
REMARK 921   NORMALIZED FREE ENERGY PREDICTED BY IDOCK:   -5.03 KCAL/MOL
REMARK 922        TOTAL FREE ENERGY PREDICTED BY IDOCK:   -6.95 KCAL/MOL
REMARK 923 INTER-LIGAND FREE ENERGY PREDICTED BY IDOCK:   -6.28 KCAL/MOL
REMARK 924 INTRA-LIGAND FREE ENERGY PREDICTED BY IDOCK:   -0.67 KCAL/MOL
REMARK 927      BINDING AFFINITY PREDICTED BY RF-SCORE:    0.00 PKD
ROOT
HETATM    1  C   UNL     1     -10.579   5.467  67.254  1.00  0.00    -0.294 C  
HETATM    2  C   UNL     1      -9.205   5.750  66.703  1.00  0.00    -0.137 C  
HETATM    3  C   UNL     1      -8.213   6.370  67.371  1.00  0.00    -0.116 C  
HETATM    4  C   UNL     1      -6.739   5.481  62.588  1.00  0.00    -0.029 C  
HETATM    5  C   UNL     1      -6.914   6.508  66.655  1.00  0.00    -0.067 C  
HETATM    6  N   UNL     1      -6.836   5.961  65.389  1.00  0.00    -0.054 N  
HETATM    7  O   UNL     1      -5.970   7.079  67.196  1.00  0.00    -0.023 OA 
HETATM    8  C   UNL     1      -7.870   4.881  63.399  1.00  0.00    -0.077 C  
HETATM    9  N   UNL     1      -9.083   5.292  65.418  1.00  0.00    -0.148 NA 
HETATM   10  C   UNL     1      -5.591   6.174  64.665  1.00  0.00    -0.021 C  
HETATM   11  C   UNL     1      -5.455   5.366  63.385  1.00  0.00    -0.013 C  
HETATM   12  C   UNL     1      -7.953   5.424  64.809  1.00  0.00    -0.110 C  
ENDROOT
BRANCH   3  13
HETATM   13  C   UNL     1      -8.203   6.891  68.788  1.00  0.00    -0.121 C  
BRANCH  13  14
HETATM   14  C   UNL     1      -8.754   8.335  68.953  1.00  0.00    -0.137 C  
BRANCH  14  15
HETATM   15  N   UNL     1      -9.119   9.019  67.700  1.00  0.00    -0.133 NA 
HETATM   16  C   UNL     1     -10.304  11.750  68.139  1.00  0.00    -0.213 C  
HETATM   17  C   UNL     1     -10.994  10.433  68.518  1.00  0.00    -0.302 C  
HETATM   18  C   UNL     1     -10.544   9.322  67.574  1.00  0.00    -0.262 C  
HETATM   19  C   UNL     1      -8.783  11.532  68.120  1.00  0.00    -0.157 C  
HETATM   20  C   UNL     1      -8.317  10.230  67.437  1.00  0.00    -0.118 C  
BRANCH  16  21
HETATM   21  C   UNL     1     -10.951  12.285  66.884  1.00  0.00    -0.267 A  
HETATM   22  N   UNL     1     -12.033  11.719  66.332  1.00  0.00    -0.441 NA 
HETATM   23  O   UNL     1     -12.543  12.663  65.451  1.00  0.00    -0.641 OA 
HETATM   24  C   UNL     1     -11.753  13.770  65.456  1.00  0.00    -0.346 A  
HETATM   25  C   UNL     1     -10.672  13.551  66.291  1.00  0.00    -0.288 A  
HETATM   26  C   UNL     1      -9.708  14.566  66.442  1.00  0.00    -0.314 A  
HETATM   27  C   UNL     1      -9.898  15.769  65.752  1.00  0.00    -0.383 A  
HETATM   28  C   UNL     1     -11.026  15.956  64.953  1.00  0.00    -0.411 A  
HETATM   29  C   UNL     1     -11.986  14.961  64.774  1.00  0.00    -0.364 A  
HETATM   30  F   UNL     1     -11.194  17.138  64.345  1.00  0.00    -0.296 F  
ENDBRANCH  16  21
ENDBRANCH  14  15
ENDBRANCH  13  14
ENDBRANCH   3  13
TORSDOF 4
ENDMDL
MODEL      123
REMARK 921   NORMALIZED FREE ENERGY PREDICTED BY IDOCK:   -5.03 KCAL/MOL
REMARK 922        TOTAL FREE ENERGY PREDICTED BY IDOCK:   -6.95 KCAL/MOL
REMARK 923 INTER-LIGAND FREE ENERGY PREDICTED BY IDOCK:   -6.67 KCAL/MOL
REMARK 924 INTRA-LIGAND FREE ENERGY PREDICTED BY IDOCK:   -0.28 KCAL/MOL
REMARK 927      BINDING AFFINITY PREDICTED BY RF-SCORE:    0.00 PKD
ROOT
HETATM    1  C   UNL     1      -8.146  15.422  69.328  1.00  0.00    -0.246 C  
HETATM    2  C   UNL     1      -9.643  15.307  69.463  1.00  0.00    -0.215 C  
HETATM    3  C   UNL     1     -10.501  15.106  68.443  1.00  0.00    -0.233 C  
HETATM    4  C   UNL     1     -13.113  15.799  72.749  1.00  0.00    -0.596 C  
HETATM    5  C   UNL     1     -11.940  14.975  68.803  1.00  0.00    -0.249 C  
HETATM    6  N   UNL     1     -12.259  15.039  70.145  1.00  0.00    -0.328 N  
HETATM    7  O   UNL     1     -12.782  14.809  67.923  1.00  0.00     0.435 OA 
HETATM    8  C   UNL     1     -11.656  15.448  72.525  1.00  0.00    -0.525 C  
HETATM    9  N   UNL     1     -10.034  15.432  70.769  1.00  0.00     0.461 NA 
HETATM   10  C   UNL     1     -13.675  14.995  70.480  1.00  0.00     0.166 C  
HETATM   11  C   UNL     1     -13.973  14.831  71.961  1.00  0.00    -0.582 C  
HETATM   12  C   UNL     1     -11.285  15.322  71.063  1.00  0.00    -0.335 C  
ENDROOT
BRANCH   3  13
HETATM   13  C   UNL     1     -10.204  14.920  66.975  1.00  0.00    -0.256 C  
BRANCH  13  14
HETATM   14  C   UNL     1      -9.794  13.476  66.572  1.00  0.00    -0.291 C  
BRANCH  14  15
HETATM   15  N   UNL     1     -10.515  12.397  67.270  1.00  0.00    -0.221 NA 
HETATM   16  C   UNL     1      -9.179   9.713  67.009  1.00  0.00    -0.167 C  
HETATM   17  C   UNL     1      -9.859  10.461  65.855  1.00  0.00    -0.294 C  
HETATM   18  C   UNL     1     -10.992  11.328  66.395  1.00  0.00    -0.227 C  
HETATM   19  C   UNL     1      -8.729  10.730  68.069  1.00  0.00    -0.132 C  
HETATM   20  C   UNL     1      -9.761  11.826  68.404  1.00  0.00    -0.197 C  
BRANCH  16  21
HETATM   21  C   UNL     1     -10.088   8.593  67.454  1.00  0.00    -0.229 A  
HETATM   22  N   UNL     1     -10.334   7.518  66.694  1.00  0.00    -0.235 NA 
HETATM   23  O   UNL     1     -10.884   6.571  67.547  1.00  0.00    -0.275 OA 
HETATM   24  C   UNL     1     -10.993   7.090  68.800  1.00  0.00    -0.101 A  
HETATM   25  C   UNL     1     -10.577   8.410  68.780  1.00  0.00    -0.154 A  
HETATM   26  C   UNL     1     -10.615   9.155  69.973  1.00  0.00    -0.250 A  
HETATM   27  C   UNL     1     -11.055   8.518  71.140  1.00  0.00    -0.312 A  
HETATM   28  C   UNL     1     -11.426   7.175  71.116  1.00  0.00    -0.290 A  
HETATM   29  C   UNL     1     -11.413   6.419  69.944  1.00  0.00    -0.483 A  
HETATM   30  F   UNL     1     -11.798   6.589  72.262  1.00  0.00    -0.308 F  
ENDBRANCH  16  21
ENDBRANCH  14  15
ENDBRANCH  13  14
ENDBRANCH   3  13
TORSDOF 4
ENDMDL
MODEL      124
REMARK 921   NORMALIZED FREE ENERGY PREDICTED BY IDOCK:   -5.01 KCAL/MOL
REMARK 922        TOTAL FREE ENERGY PREDICTED BY IDOCK:   -6.92 KCAL/MOL
REMARK 923 INTER-LIGAND FREE ENERGY PREDICTED BY IDOCK:   -6.42 KCAL/MOL
REMARK 924 INTRA-LIGAND FREE ENERGY PREDICTED BY IDOCK:   -0.50 KCAL/MOL
REMARK 927      BINDING AFFINITY PREDICTED BY RF-SCORE:    0.00 PKD
ROOT
HETATM    1  C   UNL     1     -11.896  16.528  68.415  1.00  0.00     0.342 C  
HETATM    2  C   UNL     1     -10.508  15.970  68.227  1.00  0.00    -0.269 C  
HETATM    3  C   UNL     1     -10.222  14.699  67.884  1.00  0.00    -0.226 C  
HETATM    4  C   UNL     1      -5.906  17.216  68.818  1.00  0.00    -0.148 C  
HETATM    5  C   UNL     1      -8.782  14.367  67.704  1.00  0.00    -0.189 C  
HETATM    6  N   UNL     1      -7.877  15.397  67.872  1.00  0.00    -0.127 N  
HETATM    7  O   UNL     1      -8.445  13.223  67.409  1.00  0.00    -0.184 OA 
HETATM    8  C   UNL     1      -7.303  17.727  68.532  1.00  0.00    -0.266 C  
HETATM    9  N   UNL     1      -9.555  16.928  68.448  1.00  0.00    -0.246 NA 
HETATM   10  C   UNL     1      -6.466  15.045  67.777  1.00  0.00    -0.163 C  
HETATM   11  C   UNL     1      -5.518  16.230  67.733  1.00  0.00    -0.149 C  
HETATM   12  C   UNL     1      -8.311  16.623  68.294  1.00  0.00    -0.198 C  
ENDROOT
BRANCH   3  13
HETATM   13  C   UNL     1     -11.168  13.561  67.581  1.00  0.00    -0.304 C  
BRANCH  13  14
HETATM   14  C   UNL     1     -11.711  12.817  68.834  1.00  0.00    -0.326 C  
BRANCH  14  15
HETATM   15  N   UNL     1     -12.073  11.405  68.621  1.00  0.00    -0.542 NA 
HETATM   16  C   UNL     1     -10.202   9.481  69.983  1.00  0.00    -0.281 C  
HETATM   17  C   UNL     1      -9.822  10.360  68.784  1.00  0.00    -0.190 C  
HETATM   18  C   UNL     1     -11.054  10.622  67.923  1.00  0.00    -0.308 C  
HETATM   19  C   UNL     1     -11.359  10.145  70.745  1.00  0.00    -0.436 C  
HETATM   20  C   UNL     1     -12.486  10.712  69.858  1.00  0.00    -0.173 C  
BRANCH  16  21
HETATM   21  C   UNL     1     -10.404   8.067  69.494  1.00  0.00    -0.221 A  
HETATM   22  N   UNL     1     -11.395   7.283  69.941  1.00  0.00    -0.172 NA 
HETATM   23  O   UNL     1     -11.489   6.239  69.030  1.00  0.00    -0.363 OA 
HETATM   24  C   UNL     1     -10.540   6.384  68.067  1.00  0.00    -0.254 A  
HETATM   25  C   UNL     1      -9.762   7.490  68.360  1.00  0.00    -0.161 A  
HETATM   26  C   UNL     1      -8.702   7.827  67.498  1.00  0.00    -0.125 A  
HETATM   27  C   UNL     1      -8.492   7.036  66.362  1.00  0.00    -0.130 A  
HETATM   28  C   UNL     1      -9.329   5.954  66.090  1.00  0.00    -0.132 A  
HETATM   29  C   UNL     1     -10.376   5.589  66.936  1.00  0.00    -0.315 A  
HETATM   30  F   UNL     1      -9.124   5.249  64.969  1.00  0.00    -0.160 F  
ENDBRANCH  16  21
ENDBRANCH  14  15
ENDBRANCH  13  14
ENDBRANCH   3  13
TORSDOF 4
ENDMDL
MODEL      125
REMARK 921   NORMALIZED FREE ENERGY PREDICTED BY IDOCK:   -5.01 KCAL/MOL
REMARK 922        TOTAL FREE ENERGY PREDICTED BY IDOCK:   -6.91 KCAL/MOL
REMARK 923 INTER-LIGAND FREE ENERGY PREDICTED BY IDOCK:   -6.38 KCAL/MOL
REMARK 924 INTRA-LIGAND FREE ENERGY PREDICTED BY IDOCK:   -0.53 KCAL/MOL
REMARK 927      BINDING AFFINITY PREDICTED BY RF-SCORE:    0.00 PKD
ROOT
HETATM    1  C   UNL     1     -12.738  11.117  71.656  1.00  0.00    -0.466 C  
HETATM    2  C   UNL     1     -11.831  11.218  70.457  1.00  0.00    -0.324 C  
HETATM    3  C   UNL     1     -10.868  10.332  70.135  1.00  0.00    -0.362 C  
HETATM    4  C   UNL     1     -10.716  14.254  66.904  1.00  0.00    -0.290 C  
HETATM    5  C   UNL     1     -10.115  10.597  68.877  1.00  0.00    -0.202 C  
HETATM    6  N   UNL     1     -10.494  11.704  68.143  1.00  0.00    -0.188 N  
HETATM    7  O   UNL     1      -9.210   9.842  68.531  1.00  0.00    -0.132 OA 
HETATM    8  C   UNL     1     -11.809  13.796  67.848  1.00  0.00    -0.413 C  
HETATM    9  N   UNL     1     -12.109  12.337  69.718  1.00  0.00    -0.266 NA 
HETATM   10  C   UNL     1      -9.698  12.002  66.960  1.00  0.00    -0.196 C  
HETATM   11  C   UNL     1     -10.281  13.074  66.056  1.00  0.00    -0.292 C  
HETATM   12  C   UNL     1     -11.444  12.555  68.634  1.00  0.00    -0.306 C  
ENDROOT
BRANCH   3  13
HETATM   13  C   UNL     1     -10.482   9.053  70.837  1.00  0.00    -0.321 C  
BRANCH  13  14
HETATM   14  C   UNL     1     -11.528   7.908  70.725  1.00  0.00    -0.263 C  
BRANCH  14  15
HETATM   15  N   UNL     1     -10.969   6.559  70.528  1.00  0.00    -0.271 NA 
HETATM   16  C   UNL     1      -8.966   6.419  68.286  1.00  0.00    -0.116 C  
HETATM   17  C   UNL     1     -10.470   6.656  68.094  1.00  0.00    -0.257 C  
HETATM   18  C   UNL     1     -11.249   5.978  69.216  1.00  0.00    -0.297 C  
HETATM   19  C   UNL     1      -8.561   6.887  69.692  1.00  0.00    -0.134 C  
HETATM   20  C   UNL     1      -9.525   6.474  70.823  1.00  0.00    -0.172 C  
BRANCH  16  21
HETATM   21  C   UNL     1      -8.656   4.991  67.906  1.00  0.00    -0.103 A  
HETATM   22  N   UNL     1      -8.441   4.031  68.815  1.00  0.00    -0.081 NA 
HETATM   23  O   UNL     1      -8.557   2.829  68.130  1.00  0.00    -0.078 OA 
HETATM   24  C   UNL     1      -8.809   3.074  66.816  1.00  0.00    -0.147 A  
HETATM   25  C   UNL     1      -8.798   4.440  66.599  1.00  0.00    -0.114 A  
HETATM   26  C   UNL     1      -9.026   4.927  65.298  1.00  0.00    -0.152 A  
HETATM   27  C   UNL     1      -9.275   4.001  64.277  1.00  0.00    -0.147 A  
HETATM   28  C   UNL     1      -9.314   2.636  64.555  1.00  0.00    -0.136 A  
HETATM   29  C   UNL     1      -9.076   2.127  65.831  1.00  0.00    -0.059 A  
HETATM   30  F   UNL     1      -9.601   1.785  63.560  1.00  0.00    -0.095 F  
ENDBRANCH  16  21
ENDBRANCH  14  15
ENDBRANCH  13  14
ENDBRANCH   3  13
TORSDOF 4
ENDMDL
MODEL      126
REMARK 921   NORMALIZED FREE ENERGY PREDICTED BY IDOCK:   -5.00 KCAL/MOL
REMARK 922        TOTAL FREE ENERGY PREDICTED BY IDOCK:   -6.91 KCAL/MOL
REMARK 923 INTER-LIGAND FREE ENERGY PREDICTED BY IDOCK:   -7.44 KCAL/MOL
REMARK 924 INTRA-LIGAND FREE ENERGY PREDICTED BY IDOCK:    0.54 KCAL/MOL
REMARK 927      BINDING AFFINITY PREDICTED BY RF-SCORE:    0.00 PKD
ROOT
HETATM    1  C   UNL     1      -8.131   8.621  72.617  1.00  0.00    -0.025 C  
HETATM    2  C   UNL     1      -9.415   8.045  72.077  1.00  0.00    -0.197 C  
HETATM    3  C   UNL     1      -9.501   7.014  71.214  1.00  0.00    -0.164 C  
HETATM    4  C   UNL     1     -14.142   8.905  72.065  1.00  0.00    -0.477 C  
HETATM    5  C   UNL     1     -10.873   6.571  70.842  1.00  0.00    -0.253 C  
HETATM    6  N   UNL     1     -11.928   7.234  71.439  1.00  0.00    -0.303 N  
HETATM    7  O   UNL     1     -11.028   5.649  70.045  1.00  0.00    -0.328 OA 
HETATM    8  C   UNL     1     -12.853   9.068  72.844  1.00  0.00     0.100 C  
HETATM    9  N   UNL     1     -10.504   8.706  72.578  1.00  0.00    -0.244 NA 
HETATM   10  C   UNL     1     -13.265   6.850  71.006  1.00  0.00     0.036 C  
HETATM   11  C   UNL     1     -14.393   7.426  71.845  1.00  0.00    -0.520 C  
HETATM   12  C   UNL     1     -11.687   8.314  72.242  1.00  0.00    -0.388 C  
ENDROOT
BRANCH   3  13
HETATM   13  C   UNL     1      -8.392   6.184  70.613  1.00  0.00    -0.126 C  
BRANCH  13  14
HETATM   14  C   UNL     1      -8.626   5.757  69.137  1.00  0.00    -0.110 C  
BRANCH  14  15
HETATM   15  N   UNL     1      -8.131   6.702  68.121  1.00  0.00    -0.110 NA 
HETATM   16  C   UNL     1     -10.204   8.702  67.250  1.00  0.00    -0.337 C  
HETATM   17  C   UNL     1     -10.258   7.202  66.933  1.00  0.00    -0.330 C  
HETATM   18  C   UNL     1      -8.842   6.640  66.845  1.00  0.00    -0.118 C  
HETATM   19  C   UNL     1      -9.373   8.916  68.524  1.00  0.00    -0.141 C  
HETATM   20  C   UNL     1      -8.068   8.098  68.599  1.00  0.00    -0.124 C  
BRANCH  16  21
HETATM   21  C   UNL     1      -9.778   9.439  66.003  1.00  0.00    -0.275 A  
HETATM   22  N   UNL     1      -8.925   8.917  65.111  1.00  0.00    -0.176 NA 
HETATM   23  O   UNL     1      -9.060   9.688  63.964  1.00  0.00    -0.243 OA 
HETATM   24  C   UNL     1      -9.965  10.680  64.182  1.00  0.00    -0.342 A  
HETATM   25  C   UNL     1     -10.394  10.621  65.496  1.00  0.00    -0.297 A  
HETATM   26  C   UNL     1     -11.330  11.567  65.952  1.00  0.00    -0.174 A  
HETATM   27  C   UNL     1     -11.807  12.521  65.043  1.00  0.00    -0.445 A  
HETATM   28  C   UNL     1     -11.373  12.513  63.719  1.00  0.00    -0.466 A  
HETATM   29  C   UNL     1     -10.433  11.597  63.246  1.00  0.00    -0.438 A  
HETATM   30  F   UNL     1     -11.886  13.413  62.869  1.00  0.00    -0.428 F  
ENDBRANCH  16  21
ENDBRANCH  14  15
ENDBRANCH  13  14
ENDBRANCH   3  13
TORSDOF 4
ENDMDL
MODEL      127
REMARK 921   NORMALIZED FREE ENERGY PREDICTED BY IDOCK:   -4.99 KCAL/MOL
REMARK 922        TOTAL FREE ENERGY PREDICTED BY IDOCK:   -6.89 KCAL/MOL
REMARK 923 INTER-LIGAND FREE ENERGY PREDICTED BY IDOCK:   -6.89 KCAL/MOL
REMARK 924 INTRA-LIGAND FREE ENERGY PREDICTED BY IDOCK:   -0.00 KCAL/MOL
REMARK 927      BINDING AFFINITY PREDICTED BY RF-SCORE:    0.00 PKD
ROOT
HETATM    1  C   UNL     1     -12.149  12.798  69.969  1.00  0.00    -0.355 C  
HETATM    2  C   UNL     1     -11.648  12.191  68.684  1.00  0.00    -0.321 C  
HETATM    3  C   UNL     1     -10.888  11.082  68.593  1.00  0.00    -0.256 C  
HETATM    4  C   UNL     1     -11.481  13.116  63.972  1.00  0.00    -0.455 C  
HETATM    5  C   UNL     1     -10.541  10.626  67.219  1.00  0.00    -0.263 C  
HETATM    6  N   UNL     1     -11.054  11.359  66.167  1.00  0.00    -0.247 N  
HETATM    7  O   UNL     1      -9.835   9.632  67.059  1.00  0.00    -0.174 OA 
HETATM    8  C   UNL     1     -12.259  13.335  65.253  1.00  0.00    -0.492 C  
HETATM    9  N   UNL     1     -12.066  12.914  67.598  1.00  0.00    -0.307 NA 
HETATM   10  C   UNL     1     -10.640  10.955  64.830  1.00  0.00    -0.246 C  
HETATM   11  C   UNL     1     -11.402  11.626  63.700  1.00  0.00    -0.485 C  
HETATM   12  C   UNL     1     -11.752  12.509  66.415  1.00  0.00    -0.397 C  
ENDROOT
BRANCH   3  13
HETATM   13  C   UNL     1     -10.388  10.181  69.696  1.00  0.00    -0.278 C  
BRANCH  13  14
HETATM   14  C   UNL     1     -11.444   9.181  70.247  1.00  0.00    -0.146 C  
BRANCH  14  15
HETATM   15  N   UNL     1     -10.895   8.011  70.954  1.00  0.00    -0.226 NA 
HETATM   16  C   UNL     1      -9.754   5.932  69.101  1.00  0.00    -0.176 C  
HETATM   17  C   UNL     1     -11.247   6.263  69.220  1.00  0.00    -0.458 C  
HETATM   18  C   UNL     1     -11.559   6.749  70.632  1.00  0.00    -0.370 C  
HETATM   19  C   UNL     1      -8.933   7.158  69.530  1.00  0.00    -0.140 C  
HETATM   20  C   UNL     1      -9.433   7.867  70.805  1.00  0.00    -0.158 C  
BRANCH  16  21
HETATM   21  C   UNL     1      -9.495   4.629  69.818  1.00  0.00    -0.168 A  
HETATM   22  N   UNL     1      -9.653   3.436  69.229  1.00  0.00    -0.138 NA 
HETATM   23  O   UNL     1      -8.989   2.524  70.039  1.00  0.00    -0.076 OA 
HETATM   24  C   UNL     1      -8.466   3.166  71.119  1.00  0.00    -0.066 A  
HETATM   25  C   UNL     1      -8.832   4.499  71.074  1.00  0.00    -0.151 A  
HETATM   26  C   UNL     1      -8.409   5.358  72.105  1.00  0.00    -0.126 A  
HETATM   27  C   UNL     1      -7.614   4.826  73.128  1.00  0.00    -0.092 A  
HETATM   28  C   UNL     1      -7.241   3.483  73.107  1.00  0.00    -0.054 A  
HETATM   29  C   UNL     1      -7.659   2.608  72.106  1.00  0.00    -0.052 A  
HETATM   30  F   UNL     1      -6.442   3.023  74.080  1.00  0.00    -0.023 F  
ENDBRANCH  16  21
ENDBRANCH  14  15
ENDBRANCH  13  14
ENDBRANCH   3  13
TORSDOF 4
ENDMDL
MODEL      128
REMARK 921   NORMALIZED FREE ENERGY PREDICTED BY IDOCK:   -4.97 KCAL/MOL
REMARK 922        TOTAL FREE ENERGY PREDICTED BY IDOCK:   -6.87 KCAL/MOL
REMARK 923 INTER-LIGAND FREE ENERGY PREDICTED BY IDOCK:   -6.74 KCAL/MOL
REMARK 924 INTRA-LIGAND FREE ENERGY PREDICTED BY IDOCK:   -0.14 KCAL/MOL
REMARK 927      BINDING AFFINITY PREDICTED BY RF-SCORE:    0.00 PKD
ROOT
HETATM    1  C   UNL     1     -13.119  10.313  70.339  1.00  0.00    -0.089 C  
HETATM    2  C   UNL     1     -12.588  11.724  70.339  1.00  0.00    -0.105 C  
HETATM    3  C   UNL     1     -11.893  12.292  69.334  1.00  0.00    -0.370 C  
HETATM    4  C   UNL     1     -12.116  15.502  73.270  1.00  0.00    -0.600 C  
HETATM    5  C   UNL     1     -11.502  13.717  69.520  1.00  0.00    -0.263 C  
HETATM    6  N   UNL     1     -11.913  14.332  70.686  1.00  0.00    -0.317 N  
HETATM    7  O   UNL     1     -10.850  14.295  68.653  1.00  0.00    -0.238 OA 
HETATM    8  C   UNL     1     -12.947  14.276  72.949  1.00  0.00    -0.548 C  
HETATM    9  N   UNL     1     -12.904  12.372  71.504  1.00  0.00    -0.336 NA 
HETATM   10  C   UNL     1     -11.454  15.699  70.896  1.00  0.00    -0.390 C  
HETATM   11  C   UNL     1     -12.114  16.417  72.062  1.00  0.00    -0.362 C  
HETATM   12  C   UNL     1     -12.553  13.605  71.651  1.00  0.00    -0.250 C  
ENDROOT
BRANCH   3  13
HETATM   13  C   UNL     1     -11.508  11.707  67.997  1.00  0.00    -0.385 C  
BRANCH  13  14
HETATM   14  C   UNL     1      -9.977  11.644  67.732  1.00  0.00    -0.181 C  
BRANCH  14  15
HETATM   15  N   UNL     1      -9.213  10.781  68.649  1.00  0.00    -0.177 NA 
HETATM   16  C   UNL     1      -8.221   8.253  67.351  1.00  0.00    -0.121 C  
HETATM   17  C   UNL     1      -9.696   8.558  67.643  1.00  0.00    -0.201 C  
HETATM   18  C   UNL     1      -9.806   9.462  68.867  1.00  0.00    -0.171 C  
HETATM   19  C   UNL     1      -7.453   9.577  67.215  1.00  0.00    -0.091 C  
HETATM   20  C   UNL     1      -7.791  10.642  68.277  1.00  0.00    -0.113 C  
BRANCH  16  21
HETATM   21  C   UNL     1      -7.728   7.258  68.374  1.00  0.00    -0.120 A  
HETATM   22  N   UNL     1      -6.508   7.332  68.924  1.00  0.00    -0.038 NA 
HETATM   23  O   UNL     1      -6.549   6.512  70.044  1.00  0.00    -0.045 OA 
HETATM   24  C   UNL     1      -7.775   5.932  70.143  1.00  0.00    -0.095 A  
HETATM   25  C   UNL     1      -8.543   6.307  69.054  1.00  0.00    -0.123 A  
HETATM   26  C   UNL     1      -9.855   5.811  68.941  1.00  0.00    -0.191 A  
HETATM   27  C   UNL     1     -10.337   4.971  69.952  1.00  0.00    -0.298 A  
HETATM   28  C   UNL     1      -9.537   4.655  71.049  1.00  0.00    -0.176 A  
HETATM   29  C   UNL     1      -8.229   5.119  71.178  1.00  0.00    -0.116 A  
HETATM   30  F   UNL     1     -10.051   3.885  72.019  1.00  0.00    -0.227 F  
ENDBRANCH  16  21
ENDBRANCH  14  15
ENDBRANCH  13  14
ENDBRANCH   3  13
TORSDOF 4
ENDMDL
MODEL      129
REMARK 921   NORMALIZED FREE ENERGY PREDICTED BY IDOCK:   -4.96 KCAL/MOL
REMARK 922        TOTAL FREE ENERGY PREDICTED BY IDOCK:   -6.86 KCAL/MOL
REMARK 923 INTER-LIGAND FREE ENERGY PREDICTED BY IDOCK:   -6.30 KCAL/MOL
REMARK 924 INTRA-LIGAND FREE ENERGY PREDICTED BY IDOCK:   -0.55 KCAL/MOL
REMARK 927      BINDING AFFINITY PREDICTED BY RF-SCORE:    0.00 PKD
ROOT
HETATM    1  C   UNL     1      -6.836  14.721  68.544  1.00  0.00    -0.107 C  
HETATM    2  C   UNL     1      -7.918  15.451  67.791  1.00  0.00    -0.146 C  
HETATM    3  C   UNL     1      -8.937  14.865  67.134  1.00  0.00    -0.230 C  
HETATM    4  C   UNL     1      -9.085  19.888  66.362  1.00  0.00    -0.450 C  
HETATM    5  C   UNL     1      -9.926  15.776  66.493  1.00  0.00    -0.269 C  
HETATM    6  N   UNL     1      -9.726  17.133  66.658  1.00  0.00    -0.264 N  
HETATM    7  O   UNL     1     -10.872  15.312  65.861  1.00  0.00    -0.328 OA 
HETATM    8  C   UNL     1      -8.363  19.073  67.416  1.00  0.00    -0.299 C  
HETATM    9  N   UNL     1      -7.738  16.808  67.857  1.00  0.00    -0.168 NA 
HETATM   10  C   UNL     1     -10.649  18.016  65.958  1.00  0.00    -0.251 C  
HETATM   11  C   UNL     1     -10.545  19.480  66.349  1.00  0.00    -0.571 C  
HETATM   12  C   UNL     1      -8.601  17.583  67.292  1.00  0.00    -0.225 C  
ENDROOT
BRANCH   3  13
HETATM   13  C   UNL     1      -9.268  13.398  67.009  1.00  0.00    -0.242 C  
BRANCH  13  14
HETATM   14  C   UNL     1     -10.172  12.837  68.143  1.00  0.00    -0.241 C  
BRANCH  14  15
HETATM   15  N   UNL     1     -10.576  11.428  67.989  1.00  0.00    -0.183 NA 
HETATM   16  C   UNL     1      -9.485   9.637  70.147  1.00  0.00    -0.298 C  
HETATM   17  C   UNL     1      -8.632  10.308  69.063  1.00  0.00    -0.162 C  
HETATM   18  C   UNL     1      -9.462  10.501  67.797  1.00  0.00    -0.149 C  
HETATM   19  C   UNL     1     -10.762  10.463  70.364  1.00  0.00    -0.186 C  
HETATM   20  C   UNL     1     -11.454  10.948  69.074  1.00  0.00    -0.302 C  
BRANCH  16  21
HETATM   21  C   UNL     1      -9.645   8.178  69.794  1.00  0.00    -0.171 A  
HETATM   22  N   UNL     1     -10.842   7.584  69.701  1.00  0.00    -0.231 NA 
HETATM   23  O   UNL     1     -10.622   6.395  69.019  1.00  0.00    -0.205 OA 
HETATM   24  C   UNL     1      -9.297   6.268  68.736  1.00  0.00    -0.124 A  
HETATM   25  C   UNL     1      -8.612   7.338  69.283  1.00  0.00    -0.137 A  
HETATM   26  C   UNL     1      -7.216   7.409  69.124  1.00  0.00    -0.084 A  
HETATM   27  C   UNL     1      -6.579   6.396  68.396  1.00  0.00    -0.058 A  
HETATM   28  C   UNL     1      -7.320   5.359  67.831  1.00  0.00    -0.073 A  
HETATM   29  C   UNL     1      -8.701   5.257  67.987  1.00  0.00    -0.102 A  
HETATM   30  F   UNL     1      -6.679   4.434  67.103  1.00  0.00    -0.046 F  
ENDBRANCH  16  21
ENDBRANCH  14  15
ENDBRANCH  13  14
ENDBRANCH   3  13
TORSDOF 4
ENDMDL
MODEL      130
REMARK 921   NORMALIZED FREE ENERGY PREDICTED BY IDOCK:   -4.95 KCAL/MOL
REMARK 922        TOTAL FREE ENERGY PREDICTED BY IDOCK:   -6.85 KCAL/MOL
REMARK 923 INTER-LIGAND FREE ENERGY PREDICTED BY IDOCK:   -7.62 KCAL/MOL
REMARK 924 INTRA-LIGAND FREE ENERGY PREDICTED BY IDOCK:    0.77 KCAL/MOL
REMARK 927      BINDING AFFINITY PREDICTED BY RF-SCORE:    0.00 PKD
ROOT
HETATM    1  C   UNL     1     -12.050   9.939  71.609  1.00  0.00    -0.457 C  
HETATM    2  C   UNL     1     -11.253   8.683  71.370  1.00  0.00    -0.277 C  
HETATM    3  C   UNL     1     -10.581   8.394  70.238  1.00  0.00    -0.234 C  
HETATM    4  C   UNL     1     -10.331   4.436  73.418  1.00  0.00    -0.237 C  
HETATM    5  C   UNL     1      -9.818   7.115  70.227  1.00  0.00    -0.176 C  
HETATM    6  N   UNL     1      -9.841   6.362  71.384  1.00  0.00    -0.176 N  
HETATM    7  O   UNL     1      -9.197   6.777  69.222  1.00  0.00    -0.142 OA 
HETATM    8  C   UNL     1     -10.693   5.885  73.674  1.00  0.00    -0.260 C  
HETATM    9  N   UNL     1     -11.292   7.856  72.460  1.00  0.00    -0.363 NA 
HETATM   10  C   UNL     1      -9.162   5.075  71.336  1.00  0.00    -0.146 C  
HETATM   11  C   UNL     1      -9.007   4.388  72.682  1.00  0.00    -0.127 C  
HETATM   12  C   UNL     1     -10.630   6.749  72.433  1.00  0.00    -0.214 C  
ENDROOT
BRANCH   3  13
HETATM   13  C   UNL     1     -10.430   9.222  68.985  1.00  0.00    -0.233 C  
BRANCH  13  14
HETATM   14  C   UNL     1      -9.055   9.932  68.837  1.00  0.00    -0.156 C  
BRANCH  14  15
HETATM   15  N   UNL     1      -9.086  11.230  68.142  1.00  0.00    -0.160 NA 
HETATM   16  C   UNL     1     -11.386  11.493  66.218  1.00  0.00    -0.222 C  
HETATM   17  C   UNL     1     -10.191  10.551  66.020  1.00  0.00    -0.310 C  
HETATM   18  C   UNL     1      -8.952  11.138  66.689  1.00  0.00    -0.170 C  
HETATM   19  C   UNL     1     -11.564  11.767  67.719  1.00  0.00    -0.374 C  
HETATM   20  C   UNL     1     -10.261  12.054  68.492  1.00  0.00    -0.212 C  
BRANCH  16  21
HETATM   21  C   UNL     1     -11.214  12.681  65.304  1.00  0.00    -0.300 A  
HETATM   22  N   UNL     1     -11.686  12.703  64.050  1.00  0.00    -0.387 NA 
HETATM   23  O   UNL     1     -11.673  14.037  63.665  1.00  0.00    -0.140 OA 
HETATM   24  C   UNL     1     -11.168  14.799  64.671  1.00  0.00    -0.342 A  
HETATM   25  C   UNL     1     -10.778  13.976  65.712  1.00  0.00    -0.294 A  
HETATM   26  C   UNL     1     -10.212  14.553  66.864  1.00  0.00    -0.264 A  
HETATM   27  C   UNL     1     -10.085  15.946  66.915  1.00  0.00    -0.267 A  
HETATM   28  C   UNL     1     -10.529  16.736  65.855  1.00  0.00    -0.301 A  
HETATM   29  C   UNL     1     -11.078  16.188  64.696  1.00  0.00    -0.310 A  
HETATM   30  F   UNL     1     -10.431  18.068  65.961  1.00  0.00    -0.369 F  
ENDBRANCH  16  21
ENDBRANCH  14  15
ENDBRANCH  13  14
ENDBRANCH   3  13
TORSDOF 4
ENDMDL
MODEL      131
REMARK 921   NORMALIZED FREE ENERGY PREDICTED BY IDOCK:   -4.94 KCAL/MOL
REMARK 922        TOTAL FREE ENERGY PREDICTED BY IDOCK:   -6.83 KCAL/MOL
REMARK 923 INTER-LIGAND FREE ENERGY PREDICTED BY IDOCK:   -6.32 KCAL/MOL
REMARK 924 INTRA-LIGAND FREE ENERGY PREDICTED BY IDOCK:   -0.51 KCAL/MOL
REMARK 927      BINDING AFFINITY PREDICTED BY RF-SCORE:    0.00 PKD
ROOT
HETATM    1  C   UNL     1      -6.418   7.741  67.837  1.00  0.00    -0.051 C  
HETATM    2  C   UNL     1      -7.533   6.873  67.313  1.00  0.00    -0.096 C  
HETATM    3  C   UNL     1      -8.744   6.734  67.887  1.00  0.00    -0.120 C  
HETATM    4  C   UNL     1      -8.382   3.591  63.908  1.00  0.00    -0.090 C  
HETATM    5  C   UNL     1      -9.719   5.860  67.178  1.00  0.00    -0.132 C  
HETATM    6  N   UNL     1      -9.306   5.301  65.985  1.00  0.00    -0.156 N  
HETATM    7  O   UNL     1     -10.837   5.673  67.652  1.00  0.00    -0.225 OA 
HETATM    8  C   UNL     1      -7.558   4.806  64.283  1.00  0.00    -0.073 C  
HETATM    9  N   UNL     1      -7.162   6.231  66.162  1.00  0.00    -0.074 NA 
HETATM   10  C   UNL     1     -10.234   4.381  65.342  1.00  0.00    -0.228 C  
HETATM   11  C   UNL     1      -9.849   3.974  63.930  1.00  0.00    -0.152 C  
HETATM   12  C   UNL     1      -8.016   5.473  65.562  1.00  0.00    -0.111 C  
ENDROOT
BRANCH   3  13
HETATM   13  C   UNL     1      -9.289   7.402  69.127  1.00  0.00    -0.146 C  
BRANCH  13  14
HETATM   14  C   UNL     1     -10.324   8.530  68.856  1.00  0.00    -0.210 C  
BRANCH  14  15
HETATM   15  N   UNL     1      -9.753   9.871  68.641  1.00  0.00    -0.153 NA 
HETATM   16  C   UNL     1     -11.535  11.674  67.018  1.00  0.00    -0.336 C  
HETATM   17  C   UNL     1     -10.811  10.440  66.464  1.00  0.00    -0.098 C  
HETATM   18  C   UNL     1      -9.517  10.206  67.238  1.00  0.00    -0.154 C  
HETATM   19  C   UNL     1     -11.742  11.496  68.530  1.00  0.00    -0.379 C  
HETATM   20  C   UNL     1     -10.522  10.948  69.298  1.00  0.00    -0.202 C  
BRANCH  16  21
HETATM   21  C   UNL     1     -10.801  12.908  66.551  1.00  0.00    -0.271 A  
HETATM   22  N   UNL     1     -10.325  13.037  65.306  1.00  0.00    -0.300 NA 
HETATM   23  O   UNL     1     -10.061  14.391  65.142  1.00  0.00    -0.382 OA 
HETATM   24  C   UNL     1     -10.348  15.057  66.292  1.00  0.00    -0.296 A  
HETATM   25  C   UNL     1     -10.745  14.146  67.255  1.00  0.00    -0.279 A  
HETATM   26  C   UNL     1     -11.083  14.614  68.539  1.00  0.00    -0.273 A  
HETATM   27  C   UNL     1     -11.023  15.992  68.781  1.00  0.00    -0.320 A  
HETATM   28  C   UNL     1     -10.654  16.872  67.765  1.00  0.00    -0.340 A  
HETATM   29  C   UNL     1     -10.299  16.433  66.490  1.00  0.00    -0.306 A  
HETATM   30  F   UNL     1     -10.652  18.187  68.023  1.00  0.00    -0.369 F  
ENDBRANCH  16  21
ENDBRANCH  14  15
ENDBRANCH  13  14
ENDBRANCH   3  13
TORSDOF 4
ENDMDL
MODEL      132
REMARK 921   NORMALIZED FREE ENERGY PREDICTED BY IDOCK:   -4.92 KCAL/MOL
REMARK 922        TOTAL FREE ENERGY PREDICTED BY IDOCK:   -6.81 KCAL/MOL
REMARK 923 INTER-LIGAND FREE ENERGY PREDICTED BY IDOCK:   -6.25 KCAL/MOL
REMARK 924 INTRA-LIGAND FREE ENERGY PREDICTED BY IDOCK:   -0.56 KCAL/MOL
REMARK 927      BINDING AFFINITY PREDICTED BY RF-SCORE:    0.00 PKD
ROOT
HETATM    1  C   UNL     1      -5.284  17.218  69.477  1.00  0.00    -0.167 C  
HETATM    2  C   UNL     1      -6.707  17.274  68.985  1.00  0.00    -0.238 C  
HETATM    3  C   UNL     1      -7.584  16.251  69.026  1.00  0.00    -0.219 C  
HETATM    4  C   UNL     1      -9.692  20.196  66.611  1.00  0.00    -0.568 C  
HETATM    5  C   UNL     1      -8.958  16.534  68.529  1.00  0.00    -0.231 C  
HETATM    6  N   UNL     1      -9.217  17.822  68.103  1.00  0.00    -0.269 N  
HETATM    7  O   UNL     1      -9.805  15.643  68.519  1.00  0.00    -0.199 OA 
HETATM    8  C   UNL     1      -8.487  20.130  67.527  1.00  0.00    -0.394 C  
HETATM    9  N   UNL     1      -7.010  18.511  68.483  1.00  0.00    -0.259 NA 
HETATM   10  C   UNL     1     -10.538  18.067  67.540  1.00  0.00    -0.388 C  
HETATM   11  C   UNL     1     -10.865  19.532  67.304  1.00  0.00    -0.557 C  
HETATM   12  C   UNL     1      -8.204  18.739  68.051  1.00  0.00    -0.291 C  
ENDROOT
BRANCH   3  13
HETATM   13  C   UNL     1      -7.392  14.858  69.577  1.00  0.00    -0.178 C  
BRANCH  13  14
HETATM   14  C   UNL     1      -6.980  13.793  68.522  1.00  0.00    -0.103 C  
BRANCH  14  15
HETATM   15  N   UNL     1      -7.399  12.413  68.822  1.00  0.00    -0.101 NA 
HETATM   16  C   UNL     1      -8.356  10.908  66.398  1.00  0.00    -0.162 C  
HETATM   17  C   UNL     1      -9.100  12.087  67.039  1.00  0.00    -0.191 C  
HETATM   18  C   UNL     1      -8.805  12.135  68.535  1.00  0.00    -0.079 C  
HETATM   19  C   UNL     1      -6.860  11.020  66.730  1.00  0.00    -0.128 C  
HETATM   20  C   UNL     1      -6.540  11.389  68.193  1.00  0.00    -0.057 C  
BRANCH  16  21
HETATM   21  C   UNL     1      -9.065   9.631  66.780  1.00  0.00    -0.146 A  
HETATM   22  N   UNL     1     -10.400   9.525  66.805  1.00  0.00    -0.243 NA 
HETATM   23  O   UNL     1     -10.671   8.164  66.830  1.00  0.00    -0.309 OA 
HETATM   24  C   UNL     1      -9.504   7.465  66.851  1.00  0.00    -0.162 A  
HETATM   25  C   UNL     1      -8.445   8.353  66.906  1.00  0.00    -0.117 A  
HETATM   26  C   UNL     1      -7.132   7.848  66.948  1.00  0.00    -0.078 A  
HETATM   27  C   UNL     1      -6.953   6.460  66.912  1.00  0.00    -0.068 A  
HETATM   28  C   UNL     1      -8.052   5.608  66.817  1.00  0.00    -0.102 A  
HETATM   29  C   UNL     1      -9.363   6.082  66.790  1.00  0.00    -0.148 A  
HETATM   30  F   UNL     1      -7.837   4.287  66.738  1.00  0.00    -0.092 F  
ENDBRANCH  16  21
ENDBRANCH  14  15
ENDBRANCH  13  14
ENDBRANCH   3  13
TORSDOF 4
ENDMDL
MODEL      133
REMARK 921   NORMALIZED FREE ENERGY PREDICTED BY IDOCK:   -4.91 KCAL/MOL
REMARK 922        TOTAL FREE ENERGY PREDICTED BY IDOCK:   -6.79 KCAL/MOL
REMARK 923 INTER-LIGAND FREE ENERGY PREDICTED BY IDOCK:   -6.90 KCAL/MOL
REMARK 924 INTRA-LIGAND FREE ENERGY PREDICTED BY IDOCK:    0.10 KCAL/MOL
REMARK 927      BINDING AFFINITY PREDICTED BY RF-SCORE:    0.00 PKD
ROOT
HETATM    1  C   UNL     1     -10.164  16.645  68.180  1.00  0.00    -0.280 C  
HETATM    2  C   UNL     1     -10.859  15.487  68.848  1.00  0.00    -0.254 C  
HETATM    3  C   UNL     1     -10.659  14.187  68.555  1.00  0.00    -0.257 C  
HETATM    4  C   UNL     1     -14.393  14.599  71.980  1.00  0.00    -0.642 C  
HETATM    5  C   UNL     1     -11.418  13.198  69.370  1.00  0.00    -0.260 C  
HETATM    6  N   UNL     1     -12.229  13.700  70.369  1.00  0.00    -0.353 N  
HETATM    7  O   UNL     1     -11.299  11.995  69.147  1.00  0.00    -0.246 OA 
HETATM    8  C   UNL     1     -13.327  15.590  71.560  1.00  0.00    -0.593 C  
HETATM    9  N   UNL     1     -11.735  15.922  69.807  1.00  0.00    -0.334 NA 
HETATM   10  C   UNL     1     -13.031  12.732  71.104  1.00  0.00    -0.157 C  
HETATM   11  C   UNL     1     -13.724  13.286  72.337  1.00  0.00    -0.678 C  
HETATM   12  C   UNL     1     -12.389  15.052  70.501  1.00  0.00    -0.356 C  
ENDROOT
BRANCH   3  13
HETATM   13  C   UNL     1      -9.710  13.575  67.554  1.00  0.00    -0.228 C  
BRANCH  13  14
HETATM   14  C   UNL     1     -10.352  12.517  66.613  1.00  0.00    -0.227 C  
BRANCH  14  15
HETATM   15  N   UNL     1      -9.422  11.514  66.064  1.00  0.00    -0.224 NA 
HETATM   16  C   UNL     1      -8.970   9.179  67.908  1.00  0.00    -0.131 C  
HETATM   17  C   UNL     1      -8.479  10.607  68.178  1.00  0.00    -0.122 C  
HETATM   18  C   UNL     1      -8.209  11.321  66.857  1.00  0.00    -0.153 C  
HETATM   19  C   UNL     1     -10.191   9.237  66.976  1.00  0.00    -0.331 C  
HETATM   20  C   UNL     1     -10.061  10.211  65.788  1.00  0.00    -0.254 C  
BRANCH  16  21
HETATM   21  C   UNL     1      -7.792   8.343  67.469  1.00  0.00    -0.099 A  
HETATM   22  N   UNL     1      -6.557   8.525  67.954  1.00  0.00    -0.060 NA 
HETATM   23  O   UNL     1      -5.847   7.379  67.619  1.00  0.00    -0.032 OA 
HETATM   24  C   UNL     1      -6.647   6.535  66.913  1.00  0.00    -0.051 A  
HETATM   25  C   UNL     1      -7.877   7.137  66.714  1.00  0.00    -0.103 A  
HETATM   26  C   UNL     1      -8.866   6.445  65.991  1.00  0.00    -0.160 A  
HETATM   27  C   UNL     1      -8.568   5.161  65.519  1.00  0.00    -0.143 A  
HETATM   28  C   UNL     1      -7.326   4.583  65.780  1.00  0.00    -0.077 A  
HETATM   29  C   UNL     1      -6.324   5.253  66.479  1.00  0.00    -0.036 A  
HETATM   30  F   UNL     1      -7.096   3.334  65.351  1.00  0.00    -0.056 F  
ENDBRANCH  16  21
ENDBRANCH  14  15
ENDBRANCH  13  14
ENDBRANCH   3  13
TORSDOF 4
ENDMDL
MODEL      134
REMARK 921   NORMALIZED FREE ENERGY PREDICTED BY IDOCK:   -4.89 KCAL/MOL
REMARK 922        TOTAL FREE ENERGY PREDICTED BY IDOCK:   -6.78 KCAL/MOL
REMARK 923 INTER-LIGAND FREE ENERGY PREDICTED BY IDOCK:   -8.79 KCAL/MOL
REMARK 924 INTRA-LIGAND FREE ENERGY PREDICTED BY IDOCK:    2.02 KCAL/MOL
REMARK 927      BINDING AFFINITY PREDICTED BY RF-SCORE:    0.00 PKD
ROOT
HETATM    1  C   UNL     1     -13.371  10.401  70.356  1.00  0.00     0.148 C  
HETATM    2  C   UNL     1     -12.705  11.735  70.580  1.00  0.00    -0.107 C  
HETATM    3  C   UNL     1     -11.702  12.237  69.835  1.00  0.00    -0.346 C  
HETATM    4  C   UNL     1     -12.636  15.353  73.741  1.00  0.00    -0.747 C  
HETATM    5  C   UNL     1     -11.219  13.597  70.200  1.00  0.00     0.201 C  
HETATM    6  N   UNL     1     -11.863  14.230  71.245  1.00  0.00    -0.247 N  
HETATM    7  O   UNL     1     -10.293  14.111  69.576  1.00  0.00    -0.009 OA 
HETATM    8  C   UNL     1     -13.479  14.247  73.138  1.00  0.00    -0.106 C  
HETATM    9  N   UNL     1     -13.254  12.388  71.651  1.00  0.00    -0.358 NA 
HETATM   10  C   UNL     1     -11.330  15.524  71.649  1.00  0.00    -0.388 C  
HETATM   11  C   UNL     1     -12.199  16.290  72.632  1.00  0.00    -0.581 C  
HETATM   12  C   UNL     1     -12.821  13.564  71.959  1.00  0.00    -0.249 C  
ENDROOT
BRANCH   3  13
HETATM   13  C   UNL     1     -11.032  11.642  68.620  1.00  0.00    -0.266 C  
BRANCH  13  14
HETATM   14  C   UNL     1     -11.739  11.951  67.270  1.00  0.00    -0.247 C  
BRANCH  14  15
HETATM   15  N   UNL     1     -12.063  13.370  67.039  1.00  0.00    -0.369 NA 
HETATM   16  C   UNL     1     -10.319  14.660  64.953  1.00  0.00    -0.382 C  
HETATM   17  C   UNL     1      -9.830  14.206  66.334  1.00  0.00    -0.308 C  
HETATM   18  C   UNL     1     -10.971  14.293  67.343  1.00  0.00    -0.295 C  
HETATM   19  C   UNL     1     -11.555  13.835  64.562  1.00  0.00    -0.413 C  
HETATM   20  C   UNL     1     -12.592  13.638  65.686  1.00  0.00    -0.484 C  
BRANCH  16  21
HETATM   21  C   UNL     1     -10.456  16.164  64.965  1.00  0.00    -0.179 A  
HETATM   22  N   UNL     1     -11.364  16.813  64.224  1.00  0.00    -1.111 NA 
HETATM   23  O   UNL     1     -11.442  18.092  64.758  1.00  0.00     0.088 OA 
HETATM   24  C   UNL     1     -10.564  18.212  65.790  1.00  0.00    -0.175 A  
HETATM   25  C   UNL     1      -9.845  17.036  65.912  1.00  0.00    -0.202 A  
HETATM   26  C   UNL     1      -8.863  16.938  66.915  1.00  0.00    -0.248 A  
HETATM   27  C   UNL     1      -8.669  18.034  67.765  1.00  0.00    -0.251 A  
HETATM   28  C   UNL     1      -9.447  19.183  67.625  1.00  0.00    -0.304 A  
HETATM   29  C   UNL     1     -10.415  19.312  66.629  1.00  0.00    -0.541 A  
HETATM   30  F   UNL     1      -9.262  20.193  68.486  1.00  0.00    -0.319 F  
ENDBRANCH  16  21
ENDBRANCH  14  15
ENDBRANCH  13  14
ENDBRANCH   3  13
TORSDOF 4
ENDMDL
MODEL      135
REMARK 921   NORMALIZED FREE ENERGY PREDICTED BY IDOCK:   -4.89 KCAL/MOL
REMARK 922        TOTAL FREE ENERGY PREDICTED BY IDOCK:   -6.77 KCAL/MOL
REMARK 923 INTER-LIGAND FREE ENERGY PREDICTED BY IDOCK:   -6.26 KCAL/MOL
REMARK 924 INTRA-LIGAND FREE ENERGY PREDICTED BY IDOCK:   -0.51 KCAL/MOL
REMARK 927      BINDING AFFINITY PREDICTED BY RF-SCORE:    0.00 PKD
ROOT
HETATM    1  C   UNL     1     -11.832  13.422  68.907  1.00  0.00    -0.373 C  
HETATM    2  C   UNL     1     -11.664  11.975  69.291  1.00  0.00    -0.330 C  
HETATM    3  C   UNL     1     -10.971  11.060  68.585  1.00  0.00    -0.271 C  
HETATM    4  C   UNL     1     -13.245   8.794  72.527  1.00  0.00    -0.398 C  
HETATM    5  C   UNL     1     -10.891   9.692  69.168  1.00  0.00    -0.190 C  
HETATM    6  N   UNL     1     -11.504   9.495  70.390  1.00  0.00    -0.255 N  
HETATM    7  O   UNL     1     -10.291   8.801  68.570  1.00  0.00    -0.199 OA 
HETATM    8  C   UNL     1     -12.953  10.258  72.265  1.00  0.00    -0.276 C  
HETATM    9  N   UNL     1     -12.310  11.695  70.465  1.00  0.00    -0.341 NA 
HETATM   10  C   UNL     1     -11.493   8.135  70.912  1.00  0.00    -0.271 C  
HETATM   11  C   UNL     1     -11.963   8.004  72.350  1.00  0.00    -0.405 C  
HETATM   12  C   UNL     1     -12.236  10.503  70.955  1.00  0.00    -0.388 C  
ENDROOT
BRANCH   3  13
HETATM   13  C   UNL     1     -10.192  11.239  67.304  1.00  0.00    -0.226 C  
BRANCH  13  14
HETATM   14  C   UNL     1      -8.649  11.309  67.486  1.00  0.00    -0.134 C  
BRANCH  14  15
HETATM   15  N   UNL     1      -7.986  12.439  66.814  1.00  0.00    -0.030 NA 
HETATM   16  C   UNL     1      -6.719  14.383  68.732  1.00  0.00    -0.093 C  
HETATM   17  C   UNL     1      -8.232  14.182  68.571  1.00  0.00    -0.146 C  
HETATM   18  C   UNL     1      -8.548  13.748  67.142  1.00  0.00    -0.198 C  
HETATM   19  C   UNL     1      -5.995  13.099  68.300  1.00  0.00    -0.090 C  
HETATM   20  C   UNL     1      -6.521  12.455  67.001  1.00  0.00     0.011 C  
BRANCH  16  21
HETATM   21  C   UNL     1      -6.333  15.671  68.045  1.00  0.00    -0.134 A  
HETATM   22  N   UNL     1      -6.292  15.795  66.712  1.00  0.00    -0.111 NA 
HETATM   23  O   UNL     1      -6.266  17.160  66.461  1.00  0.00    -0.199 OA 
HETATM   24  C   UNL     1      -6.260  17.843  67.638  1.00  0.00    -0.164 A  
HETATM   25  C   UNL     1      -6.216  16.939  68.685  1.00  0.00    -0.154 A  
HETATM   26  C   UNL     1      -6.190  17.425  70.005  1.00  0.00    -0.026 A  
HETATM   27  C   UNL     1      -6.231  18.811  70.204  1.00  0.00    -0.071 A  
HETATM   28  C   UNL     1      -6.315  19.679  69.116  1.00  0.00    -0.312 A  
HETATM   29  C   UNL     1      -6.326  19.224  67.798  1.00  0.00    -0.226 A  
HETATM   30  F   UNL     1      -6.398  20.996  69.349  1.00  0.00    -0.256 F  
ENDBRANCH  16  21
ENDBRANCH  14  15
ENDBRANCH  13  14
ENDBRANCH   3  13
TORSDOF 4
ENDMDL
MODEL      136
REMARK 921   NORMALIZED FREE ENERGY PREDICTED BY IDOCK:   -4.88 KCAL/MOL
REMARK 922        TOTAL FREE ENERGY PREDICTED BY IDOCK:   -6.76 KCAL/MOL
REMARK 923 INTER-LIGAND FREE ENERGY PREDICTED BY IDOCK:   -6.42 KCAL/MOL
REMARK 924 INTRA-LIGAND FREE ENERGY PREDICTED BY IDOCK:   -0.35 KCAL/MOL
REMARK 927      BINDING AFFINITY PREDICTED BY RF-SCORE:    0.00 PKD
ROOT
HETATM    1  C   UNL     1     -10.140  14.896  67.349  1.00  0.00    -0.228 C  
HETATM    2  C   UNL     1     -10.884  14.191  68.454  1.00  0.00    -0.254 C  
HETATM    3  C   UNL     1     -10.846  12.866  68.694  1.00  0.00    -0.288 C  
HETATM    4  C   UNL     1     -14.175  15.064  71.844  1.00  0.00    -0.649 C  
HETATM    5  C   UNL     1     -11.620  12.381  69.870  1.00  0.00    -0.186 C  
HETATM    6  N   UNL     1     -12.277  13.333  70.623  1.00  0.00    -0.366 N  
HETATM    7  O   UNL     1     -11.646  11.182  70.138  1.00  0.00    -0.303 OA 
HETATM    8  C   UNL     1     -13.058  15.664  71.015  1.00  0.00    -0.487 C  
HETATM    9  N   UNL     1     -11.615  15.076  69.202  1.00  0.00    -0.293 NA 
HETATM   10  C   UNL     1     -13.100  12.841  71.720  1.00  0.00    -0.356 C  
HETATM   11  C   UNL     1     -13.612  13.918  72.661  1.00  0.00    -0.626 C  
HETATM   12  C   UNL     1     -12.285  14.638  70.214  1.00  0.00    -0.331 C  
ENDROOT
BRANCH   3  13
HETATM   13  C   UNL     1     -10.064  11.793  67.975  1.00  0.00    -0.198 C  
BRANCH  13  14
HETATM   14  C   UNL     1     -10.758  11.222  66.707  1.00  0.00    -0.275 C  
BRANCH  14  15
HETATM   15  N   UNL     1     -10.652   9.763  66.533  1.00  0.00    -0.134 NA 
HETATM   16  C   UNL     1      -7.937   8.677  67.244  1.00  0.00    -0.101 C  
HETATM   17  C   UNL     1      -8.224   9.570  66.030  1.00  0.00    -0.115 C  
HETATM   18  C   UNL     1      -9.654   9.346  65.549  1.00  0.00    -0.258 C  
HETATM   19  C   UNL     1      -9.001   8.937  68.321  1.00  0.00    -0.137 C  
HETATM   20  C   UNL     1     -10.449   9.034  67.801  1.00  0.00    -0.245 C  
BRANCH  16  21
HETATM   21  C   UNL     1      -7.761   7.257  66.761  1.00  0.00    -0.109 A  
HETATM   22  N   UNL     1      -8.633   6.282  67.051  1.00  0.00    -0.105 NA 
HETATM   23  O   UNL     1      -8.355   5.251  66.163  1.00  0.00    -0.112 OA 
HETATM   24  C   UNL     1      -7.305   5.599  65.371  1.00  0.00    -0.072 A  
HETATM   25  C   UNL     1      -6.830   6.837  65.766  1.00  0.00    -0.056 A  
HETATM   26  C   UNL     1      -5.729   7.394  65.089  1.00  0.00    -0.037 A  
HETATM   27  C   UNL     1      -5.172   6.675  64.024  1.00  0.00    -0.026 A  
HETATM   28  C   UNL     1      -5.712   5.449  63.640  1.00  0.00    -0.014 A  
HETATM   29  C   UNL     1      -6.792   4.868  64.304  1.00  0.00    -0.048 A  
HETATM   30  F   UNL     1      -5.179   4.814  62.587  1.00  0.00    -0.008 F  
ENDBRANCH  16  21
ENDBRANCH  14  15
ENDBRANCH  13  14
ENDBRANCH   3  13
TORSDOF 4
ENDMDL
MODEL      137
REMARK 921   NORMALIZED FREE ENERGY PREDICTED BY IDOCK:   -4.86 KCAL/MOL
REMARK 922        TOTAL FREE ENERGY PREDICTED BY IDOCK:   -6.73 KCAL/MOL
REMARK 923 INTER-LIGAND FREE ENERGY PREDICTED BY IDOCK:   -6.29 KCAL/MOL
REMARK 924 INTRA-LIGAND FREE ENERGY PREDICTED BY IDOCK:   -0.43 KCAL/MOL
REMARK 927      BINDING AFFINITY PREDICTED BY RF-SCORE:    0.00 PKD
ROOT
HETATM    1  C   UNL     1     -10.289   9.465  68.214  1.00  0.00    -0.251 C  
HETATM    2  C   UNL     1     -10.345  10.119  66.857  1.00  0.00    -0.236 C  
HETATM    3  C   UNL     1      -9.667   9.707  65.768  1.00  0.00    -0.350 C  
HETATM    4  C   UNL     1     -12.135  14.021  64.699  1.00  0.00    -0.462 C  
HETATM    5  C   UNL     1      -9.903  10.470  64.511  1.00  0.00    -0.337 C  
HETATM    6  N   UNL     1     -10.816  11.505  64.569  1.00  0.00    -0.328 N  
HETATM    7  O   UNL     1      -9.305  10.162  63.482  1.00  0.00    -0.268 OA 
HETATM    8  C   UNL     1     -12.327  13.029  65.829  1.00  0.00    -0.477 C  
HETATM    9  N   UNL     1     -11.184  11.201  66.863  1.00  0.00    -0.345 NA 
HETATM   10  C   UNL     1     -10.976  12.298  63.358  1.00  0.00    -0.405 C  
HETATM   11  C   UNL     1     -12.146  13.267  63.384  1.00  0.00    -0.508 C  
HETATM   12  C   UNL     1     -11.373  11.855  65.767  1.00  0.00    -0.299 C  
ENDROOT
BRANCH   3  13
HETATM   13  C   UNL     1      -8.744   8.523  65.616  1.00  0.00    -0.213 C  
BRANCH  13  14
HETATM   14  C   UNL     1      -9.321   7.177  66.138  1.00  0.00    -0.045 C  
BRANCH  14  15
HETATM   15  N   UNL     1      -8.349   6.287  66.798  1.00  0.00    -0.109 NA 
HETATM   16  C   UNL     1      -9.631   3.924  68.151  1.00  0.00    -0.182 C  
HETATM   17  C   UNL     1      -9.776   5.378  68.620  1.00  0.00    -0.187 C  
HETATM   18  C   UNL     1      -8.528   6.170  68.244  1.00  0.00    -0.113 C  
HETATM   19  C   UNL     1      -9.321   3.912  66.646  1.00  0.00    -0.201 C  
HETATM   20  C   UNL     1      -8.272   4.945  66.186  1.00  0.00    -0.108 C  
BRANCH  16  21
HETATM   21  C   UNL     1      -8.666   3.218  69.071  1.00  0.00    -0.089 A  
HETATM   22  N   UNL     1      -7.435   2.854  68.687  1.00  0.00    -0.048 NA 
HETATM   23  O   UNL     1      -6.738   2.586  69.857  1.00  0.00    -0.032 OA 
HETATM   24  C   UNL     1      -7.557   2.760  70.929  1.00  0.00    -0.036 A  
HETATM   25  C   UNL     1      -8.826   3.081  70.481  1.00  0.00    -0.149 A  
HETATM   26  C   UNL     1      -9.848   3.296  71.424  1.00  0.00    -0.194 A  
HETATM   27  C   UNL     1      -9.530   3.193  72.784  1.00  0.00    -0.151 A  
HETATM   28  C   UNL     1      -8.226   2.905  73.185  1.00  0.00    -0.071 A  
HETATM   29  C   UNL     1      -7.199   2.673  72.271  1.00  0.00    -0.038 A  
HETATM   30  F   UNL     1      -7.951   2.861  74.496  1.00  0.00    -0.058 F  
ENDBRANCH  16  21
ENDBRANCH  14  15
ENDBRANCH  13  14
ENDBRANCH   3  13
TORSDOF 4
ENDMDL
MODEL      138
REMARK 921   NORMALIZED FREE ENERGY PREDICTED BY IDOCK:   -4.85 KCAL/MOL
REMARK 922        TOTAL FREE ENERGY PREDICTED BY IDOCK:   -6.72 KCAL/MOL
REMARK 923 INTER-LIGAND FREE ENERGY PREDICTED BY IDOCK:   -6.65 KCAL/MOL
REMARK 924 INTRA-LIGAND FREE ENERGY PREDICTED BY IDOCK:   -0.07 KCAL/MOL
REMARK 927      BINDING AFFINITY PREDICTED BY RF-SCORE:    0.00 PKD
ROOT
HETATM    1  C   UNL     1     -11.550  14.866  67.484  1.00  0.00    -0.355 C  
HETATM    2  C   UNL     1     -10.254  15.585  67.209  1.00  0.00    -0.260 C  
HETATM    3  C   UNL     1      -9.032  15.017  67.229  1.00  0.00    -0.212 C  
HETATM    4  C   UNL     1      -8.565  20.021  66.468  1.00  0.00    -0.366 C  
HETATM    5  C   UNL     1      -7.884  15.899  66.882  1.00  0.00    -0.247 C  
HETATM    6  N   UNL     1      -8.178  17.205  66.541  1.00  0.00    -0.249 N  
HETATM    7  O   UNL     1      -6.738  15.454  66.897  1.00  0.00    -0.211 OA 
HETATM    8  C   UNL     1      -9.765  19.109  66.318  1.00  0.00    -0.412 C  
HETATM    9  N   UNL     1     -10.470  16.908  66.930  1.00  0.00    -0.300 NA 
HETATM   10  C   UNL     1      -7.044  18.082  66.286  1.00  0.00    -0.272 C  
HETATM   11  C   UNL     1      -7.406  19.431  65.689  1.00  0.00    -0.214 C  
HETATM   12  C   UNL     1      -9.464  17.661  66.637  1.00  0.00    -0.279 C  
ENDROOT
BRANCH   3  13
HETATM   13  C   UNL     1      -8.658  13.577  67.487  1.00  0.00    -0.193 C  
BRANCH  13  14
HETATM   14  C   UNL     1      -9.056  12.589  66.355  1.00  0.00    -0.127 C  
BRANCH  14  15
HETATM   15  N   UNL     1     -10.012  11.538  66.742  1.00  0.00    -0.205 NA 
HETATM   16  C   UNL     1      -8.885   9.584  68.735  1.00  0.00    -0.132 C  
HETATM   17  C   UNL     1      -8.427   9.697  67.275  1.00  0.00    -0.132 C  
HETATM   18  C   UNL     1      -9.584  10.181  66.405  1.00  0.00    -0.191 C  
HETATM   19  C   UNL     1      -9.473  10.931  69.181  1.00  0.00    -0.107 C  
HETATM   20  C   UNL     1     -10.414  11.604  68.162  1.00  0.00    -0.195 C  
BRANCH  16  21
HETATM   21  C   UNL     1      -9.757   8.359  68.868  1.00  0.00    -0.167 A  
HETATM   22  N   UNL     1     -10.475   7.868  67.849  1.00  0.00    -0.215 NA 
HETATM   23  O   UNL     1     -10.835   6.581  68.226  1.00  0.00    -0.249 OA 
HETATM   24  C   UNL     1     -10.360   6.319  69.473  1.00  0.00    -0.212 A  
HETATM   25  C   UNL     1      -9.736   7.451  69.967  1.00  0.00    -0.175 A  
HETATM   26  C   UNL     1      -9.176   7.413  71.257  1.00  0.00    -0.153 A  
HETATM   27  C   UNL     1      -9.257   6.217  71.982  1.00  0.00    -0.145 A  
HETATM   28  C   UNL     1      -9.862   5.092  71.424  1.00  0.00    -0.179 A  
HETATM   29  C   UNL     1     -10.439   5.108  70.154  1.00  0.00    -0.305 A  
HETATM   30  F   UNL     1      -9.879   3.954  72.131  1.00  0.00    -0.189 F  
ENDBRANCH  16  21
ENDBRANCH  14  15
ENDBRANCH  13  14
ENDBRANCH   3  13
TORSDOF 4
ENDMDL
MODEL      139
REMARK 921   NORMALIZED FREE ENERGY PREDICTED BY IDOCK:   -4.84 KCAL/MOL
REMARK 922        TOTAL FREE ENERGY PREDICTED BY IDOCK:   -6.71 KCAL/MOL
REMARK 923 INTER-LIGAND FREE ENERGY PREDICTED BY IDOCK:   -6.17 KCAL/MOL
REMARK 924 INTRA-LIGAND FREE ENERGY PREDICTED BY IDOCK:   -0.54 KCAL/MOL
REMARK 927      BINDING AFFINITY PREDICTED BY RF-SCORE:    0.00 PKD
ROOT
HETATM    1  C   UNL     1     -12.602  12.413  64.591  1.00  0.00    -0.459 C  
HETATM    2  C   UNL     1     -11.202  11.886  64.773  1.00  0.00    -0.297 C  
HETATM    3  C   UNL     1     -10.426  12.101  65.853  1.00  0.00    -0.288 C  
HETATM    4  C   UNL     1      -7.769   9.575  62.332  1.00  0.00    -0.119 C  
HETATM    5  C   UNL     1      -9.087  11.449  65.850  1.00  0.00    -0.198 C  
HETATM    6  N   UNL     1      -8.778  10.661  64.759  1.00  0.00    -0.181 N  
HETATM    7  O   UNL     1      -8.319  11.616  66.794  1.00  0.00    -0.167 OA 
HETATM    8  C   UNL     1      -9.264   9.775  62.484  1.00  0.00    -0.281 C  
HETATM    9  N   UNL     1     -10.805  11.149  63.689  1.00  0.00    -0.328 NA 
HETATM   10  C   UNL     1      -7.436  10.096  64.725  1.00  0.00    -0.136 C  
HETATM   11  C   UNL     1      -7.213   9.054  63.642  1.00  0.00    -0.093 C  
HETATM   12  C   UNL     1      -9.640  10.595  63.699  1.00  0.00    -0.314 C  
ENDROOT
BRANCH   3  13
HETATM   13  C   UNL     1     -10.748  12.861  67.118  1.00  0.00    -0.268 C  
BRANCH  13  14
HETATM   14  C   UNL     1     -11.698  12.117  68.099  1.00  0.00    -0.341 C  
BRANCH  14  15
HETATM   15  N   UNL     1     -11.097  11.732  69.388  1.00  0.00    -0.216 NA 
HETATM   16  C   UNL     1     -11.647   8.872  70.147  1.00  0.00     0.031 C  
HETATM   17  C   UNL     1     -12.709   9.978  70.101  1.00  0.00     0.078 C  
HETATM   18  C   UNL     1     -12.066  11.328  70.405  1.00  0.00    -0.384 C  
HETATM   19  C   UNL     1     -10.499   9.240  69.194  1.00  0.00    -0.231 C  
HETATM   20  C   UNL     1     -10.039  10.710  69.261  1.00  0.00    -0.206 C  
BRANCH  16  21
HETATM   21  C   UNL     1     -11.300   8.603  71.592  1.00  0.00    -0.307 A  
HETATM   22  N   UNL     1     -12.221   8.585  72.565  1.00  0.00    -0.371 NA 
HETATM   23  O   UNL     1     -11.615   7.960  73.646  1.00  0.00     0.277 OA 
HETATM   24  C   UNL     1     -10.333   7.635  73.329  1.00  0.00    -0.345 A  
HETATM   25  C   UNL     1     -10.050   8.100  72.056  1.00  0.00    -0.304 A  
HETATM   26  C   UNL     1      -8.766   7.885  71.521  1.00  0.00    -0.150 A  
HETATM   27  C   UNL     1      -7.831   7.189  72.297  1.00  0.00    -0.092 A  
HETATM   28  C   UNL     1      -8.178   6.707  73.558  1.00  0.00    -0.113 A  
HETATM   29  C   UNL     1      -9.437   6.920  74.118  1.00  0.00    -0.283 A  
HETATM   30  F   UNL     1      -7.270   6.006  74.251  1.00  0.00    -0.085 F  
ENDBRANCH  16  21
ENDBRANCH  14  15
ENDBRANCH  13  14
ENDBRANCH   3  13
TORSDOF 4
ENDMDL
MODEL      140
REMARK 921   NORMALIZED FREE ENERGY PREDICTED BY IDOCK:   -4.78 KCAL/MOL
REMARK 922        TOTAL FREE ENERGY PREDICTED BY IDOCK:   -6.64 KCAL/MOL
REMARK 923 INTER-LIGAND FREE ENERGY PREDICTED BY IDOCK:   -5.97 KCAL/MOL
REMARK 924 INTRA-LIGAND FREE ENERGY PREDICTED BY IDOCK:   -0.67 KCAL/MOL
REMARK 927      BINDING AFFINITY PREDICTED BY RF-SCORE:    0.00 PKD
ROOT
HETATM    1  C   UNL     1     -12.477   9.423  71.295  1.00  0.00    -0.416 C  
HETATM    2  C   UNL     1     -11.428  10.030  70.400  1.00  0.00    -0.314 C  
HETATM    3  C   UNL     1     -10.106   9.777  70.471  1.00  0.00    -0.289 C  
HETATM    4  C   UNL     1     -10.960  13.373  66.981  1.00  0.00    -0.298 C  
HETATM    5  C   UNL     1      -9.246  10.448  69.457  1.00  0.00    -0.120 C  
HETATM    6  N   UNL     1      -9.883  11.239  68.521  1.00  0.00    -0.192 N  
HETATM    7  O   UNL     1      -8.029  10.279  69.473  1.00  0.00    -0.148 OA 
HETATM    8  C   UNL     1     -11.905  12.378  67.622  1.00  0.00    -0.363 C  
HETATM    9  N   UNL     1     -11.988  10.883  69.487  1.00  0.00    -0.325 NA 
HETATM   10  C   UNL     1      -9.027  11.958  67.587  1.00  0.00    -0.169 C  
HETATM   11  C   UNL     1      -9.761  12.623  66.436  1.00  0.00    -0.259 C  
HETATM   12  C   UNL     1     -11.228  11.462  68.619  1.00  0.00    -0.243 C  
ENDROOT
BRANCH   3  13
HETATM   13  C   UNL     1      -9.367   8.843  71.398  1.00  0.00    -0.338 C  
BRANCH  13  14
HETATM   14  C   UNL     1      -8.962   7.483  70.763  1.00  0.00    -0.149 C  
BRANCH  14  15
HETATM   15  N   UNL     1      -9.670   7.131  69.520  1.00  0.00    -0.157 NA 
HETATM   16  C   UNL     1      -9.093   4.332  68.576  1.00  0.00    -0.175 C  
HETATM   17  C   UNL     1      -8.072   5.477  68.573  1.00  0.00    -0.099 C  
HETATM   18  C   UNL     1      -8.791   6.811  68.396  1.00  0.00    -0.122 C  
HETATM   19  C   UNL     1     -10.155   4.610  69.651  1.00  0.00    -0.232 C  
HETATM   20  C   UNL     1     -10.673   6.061  69.699  1.00  0.00    -0.335 C  
BRANCH  16  21
HETATM   21  C   UNL     1      -9.569   4.112  67.160  1.00  0.00    -0.197 A  
HETATM   22  N   UNL     1     -10.621   4.760  66.643  1.00  0.00    -0.170 NA 
HETATM   23  O   UNL     1     -10.530   4.591  65.268  1.00  0.00    -0.226 OA 
HETATM   24  C   UNL     1      -9.448   3.821  64.972  1.00  0.00    -0.167 A  
HETATM   25  C   UNL     1      -8.845   3.416  66.149  1.00  0.00    -0.137 A  
HETATM   26  C   UNL     1      -7.704   2.594  66.083  1.00  0.00    -0.077 A  
HETATM   27  C   UNL     1      -7.214   2.238  64.821  1.00  0.00    -0.054 A  
HETATM   28  C   UNL     1      -7.835   2.705  63.664  1.00  0.00    -0.069 A  
HETATM   29  C   UNL     1      -8.976   3.506  63.701  1.00  0.00    -0.095 A  
HETATM   30  F   UNL     1      -7.309   2.379  62.475  1.00  0.00    -0.033 F  
ENDBRANCH  16  21
ENDBRANCH  14  15
ENDBRANCH  13  14
ENDBRANCH   3  13
TORSDOF 4
ENDMDL
MODEL      141
REMARK 921   NORMALIZED FREE ENERGY PREDICTED BY IDOCK:   -4.77 KCAL/MOL
REMARK 922        TOTAL FREE ENERGY PREDICTED BY IDOCK:   -6.63 KCAL/MOL
REMARK 923 INTER-LIGAND FREE ENERGY PREDICTED BY IDOCK:   -5.93 KCAL/MOL
REMARK 924 INTRA-LIGAND FREE ENERGY PREDICTED BY IDOCK:   -0.70 KCAL/MOL
REMARK 927      BINDING AFFINITY PREDICTED BY RF-SCORE:    0.00 PKD
ROOT
HETATM    1  C   UNL     1     -12.021  12.895  69.547  1.00  0.00    -0.346 C  
HETATM    2  C   UNL     1     -11.416  12.459  68.237  1.00  0.00    -0.310 C  
HETATM    3  C   UNL     1     -10.283  11.742  68.106  1.00  0.00    -0.210 C  
HETATM    4  C   UNL     1     -11.988  13.077  63.507  1.00  0.00    -0.615 C  
HETATM    5  C   UNL     1      -9.885  11.377  66.718  1.00  0.00    -0.206 C  
HETATM    6  N   UNL     1     -10.727  11.777  65.699  1.00  0.00    -0.272 N  
HETATM    7  O   UNL     1      -8.853  10.739  66.520  1.00  0.00    -0.147 OA 
HETATM    8  C   UNL     1     -12.691  13.048  64.849  1.00  0.00    -0.456 C  
HETATM    9  N   UNL     1     -12.170  12.886  67.177  1.00  0.00    -0.364 NA 
HETATM   10  C   UNL     1     -10.288  11.489  64.341  1.00  0.00    -0.312 C  
HETATM   11  C   UNL     1     -11.338  11.729  63.270  1.00  0.00    -0.347 C  
HETATM   12  C   UNL     1     -11.808  12.566  65.980  1.00  0.00    -0.418 C  
ENDROOT
BRANCH   3  13
HETATM   13  C   UNL     1      -9.381  11.185  69.181  1.00  0.00     0.019 C  
BRANCH  13  14
HETATM   14  C   UNL     1      -9.985  10.000  69.986  1.00  0.00    -0.222 C  
BRANCH  14  15
HETATM   15  N   UNL     1      -9.064   8.879  70.244  1.00  0.00    -0.167 NA 
HETATM   16  C   UNL     1      -9.937   6.304  68.954  1.00  0.00    -0.179 C  
HETATM   17  C   UNL     1     -10.663   6.978  70.125  1.00  0.00    -0.265 C  
HETATM   18  C   UNL     1      -9.665   7.762  70.972  1.00  0.00    -0.163 C  
HETATM   19  C   UNL     1      -9.159   7.369  68.166  1.00  0.00    -0.131 C  
HETATM   20  C   UNL     1      -8.385   8.386  69.029  1.00  0.00    -0.119 C  
BRANCH  16  21
HETATM   21  C   UNL     1      -9.163   5.123  69.489  1.00  0.00    -0.119 A  
HETATM   22  N   UNL     1      -9.566   4.417  70.554  1.00  0.00    -0.182 NA 
HETATM   23  O   UNL     1      -8.840   3.234  70.519  1.00  0.00    -0.071 OA 
HETATM   24  C   UNL     1      -7.989   3.249  69.459  1.00  0.00    -0.049 A  
HETATM   25  C   UNL     1      -8.091   4.469  68.813  1.00  0.00    -0.081 A  
HETATM   26  C   UNL     1      -7.287   4.714  67.685  1.00  0.00    -0.074 A  
HETATM   27  C   UNL     1      -6.427   3.698  67.249  1.00  0.00    -0.037 A  
HETATM   28  C   UNL     1      -6.389   2.472  67.912  1.00  0.00    -0.029 A  
HETATM   29  C   UNL     1      -7.163   2.210  69.041  1.00  0.00    -0.043 A  
HETATM   30  F   UNL     1      -5.586   1.510  67.437  1.00  0.00    -0.015 F  
ENDBRANCH  16  21
ENDBRANCH  14  15
ENDBRANCH  13  14
ENDBRANCH   3  13
TORSDOF 4
ENDMDL
MODEL      142
REMARK 921   NORMALIZED FREE ENERGY PREDICTED BY IDOCK:   -4.76 KCAL/MOL
REMARK 922        TOTAL FREE ENERGY PREDICTED BY IDOCK:   -6.61 KCAL/MOL
REMARK 923 INTER-LIGAND FREE ENERGY PREDICTED BY IDOCK:   -6.41 KCAL/MOL
REMARK 924 INTRA-LIGAND FREE ENERGY PREDICTED BY IDOCK:   -0.20 KCAL/MOL
REMARK 927      BINDING AFFINITY PREDICTED BY RF-SCORE:    0.00 PKD
ROOT
HETATM    1  C   UNL     1      -8.695  15.357  67.050  1.00  0.00    -0.256 C  
HETATM    2  C   UNL     1      -9.816  14.734  67.842  1.00  0.00    -0.212 C  
HETATM    3  C   UNL     1     -10.492  13.623  67.490  1.00  0.00    -0.241 C  
HETATM    4  C   UNL     1     -12.554  15.602  71.693  1.00  0.00    -0.512 C  
HETATM    5  C   UNL     1     -11.534  13.150  68.442  1.00  0.00    -0.315 C  
HETATM    6  N   UNL     1     -11.690  13.871  69.609  1.00  0.00    -0.293 N  
HETATM    7  O   UNL     1     -12.203  12.153  68.178  1.00  0.00    -0.388 OA 
HETATM    8  C   UNL     1     -11.201  15.838  71.054  1.00  0.00    -0.396 C  
HETATM    9  N   UNL     1     -10.069  15.445  68.985  1.00  0.00    -0.222 NA 
HETATM   10  C   UNL     1     -12.767  13.451  70.495  1.00  0.00    -0.124 C  
HETATM   11  C   UNL     1     -12.758  14.110  71.863  1.00  0.00    -0.406 C  
HETATM   12  C   UNL     1     -10.979  15.025  69.797  1.00  0.00    -0.273 C  
ENDROOT
BRANCH   3  13
HETATM   13  C   UNL     1     -10.296  12.734  66.285  1.00  0.00    -0.271 C  
BRANCH  13  14
HETATM   14  C   UNL     1      -9.107  11.739  66.399  1.00  0.00    -0.213 C  
BRANCH  14  15
HETATM   15  N   UNL     1      -8.931  11.113  67.721  1.00  0.00    -0.137 NA 
HETATM   16  C   UNL     1      -8.344   8.166  67.572  1.00  0.00    -0.123 C  
HETATM   17  C   UNL     1      -9.689   8.803  67.202  1.00  0.00    -0.248 C  
HETATM   18  C   UNL     1      -9.907  10.068  68.026  1.00  0.00    -0.142 C  
HETATM   19  C   UNL     1      -7.231   9.212  67.404  1.00  0.00    -0.080 C  
HETATM   20  C   UNL     1      -7.562  10.613  67.957  1.00  0.00    -0.091 C  
BRANCH  16  21
HETATM   21  C   UNL     1      -8.484   7.501  68.920  1.00  0.00    -0.129 A  
HETATM   22  N   UNL     1      -8.823   8.175  70.027  1.00  0.00    -0.138 NA 
HETATM   23  O   UNL     1      -9.206   7.214  70.952  1.00  0.00    -0.152 OA 
HETATM   24  C   UNL     1      -9.066   5.974  70.410  1.00  0.00    -0.149 A  
HETATM   25  C   UNL     1      -8.527   6.093  69.141  1.00  0.00    -0.119 A  
HETATM   26  C   UNL     1      -8.283   4.928  68.391  1.00  0.00    -0.084 A  
HETATM   27  C   UNL     1      -8.617   3.691  68.958  1.00  0.00    -0.120 A  
HETATM   28  C   UNL     1      -9.195   3.628  70.225  1.00  0.00    -0.152 A  
HETATM   29  C   UNL     1      -9.433   4.766  70.995  1.00  0.00    -0.227 A  
HETATM   30  F   UNL     1      -9.543   2.429  70.713  1.00  0.00    -0.195 F  
ENDBRANCH  16  21
ENDBRANCH  14  15
ENDBRANCH  13  14
ENDBRANCH   3  13
TORSDOF 4
ENDMDL
MODEL      143
REMARK 921   NORMALIZED FREE ENERGY PREDICTED BY IDOCK:   -4.76 KCAL/MOL
REMARK 922        TOTAL FREE ENERGY PREDICTED BY IDOCK:   -6.60 KCAL/MOL
REMARK 923 INTER-LIGAND FREE ENERGY PREDICTED BY IDOCK:   -6.03 KCAL/MOL
REMARK 924 INTRA-LIGAND FREE ENERGY PREDICTED BY IDOCK:   -0.57 KCAL/MOL
REMARK 927      BINDING AFFINITY PREDICTED BY RF-SCORE:    0.00 PKD
ROOT
HETATM    1  C   UNL     1      -6.363   7.380  67.106  1.00  0.00    -0.055 C  
HETATM    2  C   UNL     1      -7.165   6.104  67.089  1.00  0.00    -0.075 C  
HETATM    3  C   UNL     1      -8.048   5.729  68.035  1.00  0.00    -0.104 C  
HETATM    4  C   UNL     1      -7.551   2.009  64.607  1.00  0.00    -0.064 C  
HETATM    5  C   UNL     1      -8.769   4.448  67.799  1.00  0.00    -0.105 C  
HETATM    6  N   UNL     1      -8.492   3.780  66.622  1.00  0.00    -0.104 N  
HETATM    7  O   UNL     1      -9.577   4.034  68.628  1.00  0.00    -0.158 OA 
HETATM    8  C   UNL     1      -7.176   3.475  64.532  1.00  0.00    -0.062 C  
HETATM    9  N   UNL     1      -6.883   5.358  65.976  1.00  0.00    -0.057 NA 
HETATM   10  C   UNL     1      -9.138   2.488  66.440  1.00  0.00    -0.098 C  
HETATM   11  C   UNL     1      -8.997   1.899  65.047  1.00  0.00    -0.123 C  
HETATM   12  C   UNL     1      -7.513   4.247  65.789  1.00  0.00    -0.081 C  
ENDROOT
BRANCH   3  13
HETATM   13  C   UNL     1      -8.472   6.465  69.283  1.00  0.00    -0.126 C  
BRANCH  13  14
HETATM   14  C   UNL     1      -9.575   7.538  69.062  1.00  0.00    -0.153 C  
BRANCH  14  15
HETATM   15  N   UNL     1      -9.101   8.933  69.031  1.00  0.00    -0.137 NA 
HETATM   16  C   UNL     1     -11.261  10.906  68.328  1.00  0.00    -0.347 C  
HETATM   17  C   UNL     1     -10.672   9.879  67.352  1.00  0.00    -0.323 C  
HETATM   18  C   UNL     1      -9.224   9.581  67.726  1.00  0.00    -0.124 C  
HETATM   19  C   UNL     1     -11.086  10.391  69.764  1.00  0.00    -0.352 C  
HETATM   20  C   UNL     1      -9.705   9.781  70.078  1.00  0.00    -0.250 C  
BRANCH  16  21
HETATM   21  C   UNL     1     -10.689  12.263  67.996  1.00  0.00    -0.218 A  
HETATM   22  N   UNL     1      -9.476  12.657  68.407  1.00  0.00    -0.198 NA 
HETATM   23  O   UNL     1      -9.153  13.760  67.627  1.00  0.00    -0.179 OA 
HETATM   24  C   UNL     1     -10.180  14.039  66.780  1.00  0.00    -0.264 A  
HETATM   25  C   UNL     1     -11.224  13.166  67.031  1.00  0.00    -0.325 A  
HETATM   26  C   UNL     1     -12.405  13.280  66.274  1.00  0.00    -0.382 A  
HETATM   27  C   UNL     1     -12.465  14.264  65.280  1.00  0.00    -0.428 A  
HETATM   28  C   UNL     1     -11.370  15.094  65.040  1.00  0.00    -0.380 A  
HETATM   29  C   UNL     1     -10.195  15.013  65.786  1.00  0.00    -0.361 A  
HETATM   30  F   UNL     1     -11.450  15.993  64.049  1.00  0.00    -0.401 F  
ENDBRANCH  16  21
ENDBRANCH  14  15
ENDBRANCH  13  14
ENDBRANCH   3  13
TORSDOF 4
ENDMDL
MODEL      144
REMARK 921   NORMALIZED FREE ENERGY PREDICTED BY IDOCK:   -4.75 KCAL/MOL
REMARK 922        TOTAL FREE ENERGY PREDICTED BY IDOCK:   -6.60 KCAL/MOL
REMARK 923 INTER-LIGAND FREE ENERGY PREDICTED BY IDOCK:   -6.13 KCAL/MOL
REMARK 924 INTRA-LIGAND FREE ENERGY PREDICTED BY IDOCK:   -0.48 KCAL/MOL
REMARK 927      BINDING AFFINITY PREDICTED BY RF-SCORE:    0.00 PKD
ROOT
HETATM    1  C   UNL     1     -10.867   6.681  68.607  1.00  0.00    -0.319 C  
HETATM    2  C   UNL     1     -10.060   6.472  67.352  1.00  0.00    -0.162 C  
HETATM    3  C   UNL     1      -9.455   7.448  66.647  1.00  0.00    -0.240 C  
HETATM    4  C   UNL     1      -8.919   3.016  64.216  1.00  0.00    -0.110 C  
HETATM    5  C   UNL     1      -8.665   7.018  65.460  1.00  0.00    -0.025 C  
HETATM    6  N   UNL     1      -8.599   5.661  65.210  1.00  0.00    -0.151 N  
HETATM    7  O   UNL     1      -8.101   7.855  64.759  1.00  0.00    -0.144 OA 
HETATM    8  C   UNL     1      -9.295   3.313  65.653  1.00  0.00    -0.128 C  
HETATM    9  N   UNL     1     -10.012   5.148  67.008  1.00  0.00    -0.176 NA 
HETATM   10  C   UNL     1      -7.896   5.256  64.000  1.00  0.00    -0.098 C  
HETATM   11  C   UNL     1      -7.642   3.763  63.883  1.00  0.00    -0.074 C  
HETATM   12  C   UNL     1      -9.329   4.792  65.973  1.00  0.00    -0.156 C  
ENDROOT
BRANCH   3  13
HETATM   13  C   UNL     1      -9.401   8.930  66.930  1.00  0.00    -0.213 C  
BRANCH  13  14
HETATM   14  C   UNL     1     -10.636   9.732  66.431  1.00  0.00    -0.047 C  
BRANCH  14  15
HETATM   15  N   UNL     1     -10.387  11.154  66.136  1.00  0.00    -0.244 NA 
HETATM   16  C   UNL     1     -10.528  12.915  68.573  1.00  0.00    -0.260 C  
HETATM   17  C   UNL     1     -11.734  12.205  67.943  1.00  0.00    -0.403 C  
HETATM   18  C   UNL     1     -11.511  12.037  66.443  1.00  0.00    -0.353 C  
HETATM   19  C   UNL     1      -9.249  12.139  68.220  1.00  0.00    -0.192 C  
HETATM   20  C   UNL     1      -9.150  11.674  66.753  1.00  0.00    -0.186 C  
BRANCH  16  21
HETATM   21  C   UNL     1     -10.586  14.377  68.201  1.00  0.00    -0.236 A  
HETATM   22  N   UNL     1     -11.741  15.031  68.020  1.00  0.00    -0.330 NA 
HETATM   23  O   UNL     1     -11.421  16.381  68.060  1.00  0.00    -0.239 OA 
HETATM   24  C   UNL     1     -10.080  16.529  68.233  1.00  0.00    -0.259 A  
HETATM   25  C   UNL     1      -9.484  15.280  68.245  1.00  0.00    -0.205 A  
HETATM   26  C   UNL     1      -8.088  15.191  68.401  1.00  0.00    -0.139 A  
HETATM   27  C   UNL     1      -7.361  16.377  68.561  1.00  0.00    -0.181 A  
HETATM   28  C   UNL     1      -8.013  17.609  68.581  1.00  0.00    -0.275 A  
HETATM   29  C   UNL     1      -9.392  17.726  68.412  1.00  0.00    -0.294 A  
HETATM   30  F   UNL     1      -7.287  18.717  68.782  1.00  0.00    -0.290 F  
ENDBRANCH  16  21
ENDBRANCH  14  15
ENDBRANCH  13  14
ENDBRANCH   3  13
TORSDOF 4
ENDMDL
MODEL      145
REMARK 921   NORMALIZED FREE ENERGY PREDICTED BY IDOCK:   -4.75 KCAL/MOL
REMARK 922        TOTAL FREE ENERGY PREDICTED BY IDOCK:   -6.60 KCAL/MOL
REMARK 923 INTER-LIGAND FREE ENERGY PREDICTED BY IDOCK:   -5.93 KCAL/MOL
REMARK 924 INTRA-LIGAND FREE ENERGY PREDICTED BY IDOCK:   -0.67 KCAL/MOL
REMARK 927      BINDING AFFINITY PREDICTED BY RF-SCORE:    0.00 PKD
ROOT
HETATM    1  C   UNL     1     -10.637  17.576  66.275  1.00  0.00    -0.198 C  
HETATM    2  C   UNL     1      -9.345  17.310  67.004  1.00  0.00    -0.251 C  
HETATM    3  C   UNL     1      -8.732  16.113  67.087  1.00  0.00    -0.216 C  
HETATM    4  C   UNL     1      -6.226  19.503  69.929  1.00  0.00    -0.328 C  
HETATM    5  C   UNL     1      -7.436  16.080  67.819  1.00  0.00    -0.136 C  
HETATM    6  N   UNL     1      -6.966  17.280  68.316  1.00  0.00    -0.180 N  
HETATM    7  O   UNL     1      -6.829  15.019  67.951  1.00  0.00    -0.124 OA 
HETATM    8  C   UNL     1      -7.239  19.703  68.819  1.00  0.00    -0.378 C  
HETATM    9  N   UNL     1      -8.859  18.452  67.583  1.00  0.00    -0.261 NA 
HETATM   10  C   UNL     1      -5.742  17.224  69.103  1.00  0.00    -0.183 C  
HETATM   11  C   UNL     1      -5.134  18.578  69.429  1.00  0.00    -0.179 C  
HETATM   12  C   UNL     1      -7.737  18.406  68.219  1.00  0.00    -0.293 C  
ENDROOT
BRANCH   3  13
HETATM   13  C   UNL     1      -9.138  14.794  66.476  1.00  0.00    -0.291 C  
BRANCH  13  14
HETATM   14  C   UNL     1     -10.338  14.095  67.176  1.00  0.00    -0.265 C  
BRANCH  14  15
HETATM   15  N   UNL     1     -10.624  12.725  66.718  1.00  0.00    -0.250 NA 
HETATM   16  C   UNL     1      -9.767  10.612  68.683  1.00  0.00    -0.178 C  
HETATM   17  C   UNL     1      -8.802  11.497  67.884  1.00  0.00    -0.152 C  
HETATM   18  C   UNL     1      -9.438  11.886  66.552  1.00  0.00    -0.217 C  
HETATM   19  C   UNL     1     -11.112  11.342  68.829  1.00  0.00    -0.288 C  
HETATM   20  C   UNL     1     -11.627  12.027  67.548  1.00  0.00    -0.330 C  
BRANCH  16  21
HETATM   21  C   UNL     1      -9.780   9.236  68.063  1.00  0.00    -0.150 A  
HETATM   22  N   UNL     1     -10.766   8.814  67.260  1.00  0.00    -0.228 NA 
HETATM   23  O   UNL     1     -10.269   7.694  66.608  1.00  0.00    -0.258 OA 
HETATM   24  C   UNL     1      -9.007   7.433  67.043  1.00  0.00    -0.130 A  
HETATM   25  C   UNL     1      -8.674   8.337  68.037  1.00  0.00    -0.135 A  
HETATM   26  C   UNL     1      -7.408   8.247  68.645  1.00  0.00    -0.089 A  
HETATM   27  C   UNL     1      -6.528   7.253  68.202  1.00  0.00    -0.045 A  
HETATM   28  C   UNL     1      -6.896   6.391  67.170  1.00  0.00    -0.066 A  
HETATM   29  C   UNL     1      -8.149   6.448  66.562  1.00  0.00    -0.111 A  
HETATM   30  F   UNL     1      -6.008   5.482  66.744  1.00  0.00    -0.016 F  
ENDBRANCH  16  21
ENDBRANCH  14  15
ENDBRANCH  13  14
ENDBRANCH   3  13
TORSDOF 4
ENDMDL
MODEL      146
REMARK 921   NORMALIZED FREE ENERGY PREDICTED BY IDOCK:   -4.73 KCAL/MOL
REMARK 922        TOTAL FREE ENERGY PREDICTED BY IDOCK:   -6.58 KCAL/MOL
REMARK 923 INTER-LIGAND FREE ENERGY PREDICTED BY IDOCK:   -5.94 KCAL/MOL
REMARK 924 INTRA-LIGAND FREE ENERGY PREDICTED BY IDOCK:   -0.63 KCAL/MOL
REMARK 927      BINDING AFFINITY PREDICTED BY RF-SCORE:    0.00 PKD
ROOT
HETATM    1  C   UNL     1      -8.252   6.855  65.863  1.00  0.00    -0.129 C  
HETATM    2  C   UNL     1      -8.766   6.125  67.076  1.00  0.00    -0.107 C  
HETATM    3  C   UNL     1      -9.804   6.520  67.839  1.00  0.00    -0.134 C  
HETATM    4  C   UNL     1      -7.650   2.406  69.907  1.00  0.00    -0.043 C  
HETATM    5  C   UNL     1     -10.178   5.624  68.968  1.00  0.00    -0.222 C  
HETATM    6  N   UNL     1      -9.449   4.459  69.111  1.00  0.00    -0.156 N  
HETATM    7  O   UNL     1     -11.103   5.930  69.717  1.00  0.00    -0.377 OA 
HETATM    8  C   UNL     1      -7.545   2.975  68.507  1.00  0.00    -0.048 C  
HETATM    9  N   UNL     1      -8.038   4.989  67.316  1.00  0.00    -0.106 NA 
HETATM   10  C   UNL     1      -9.766   3.632  70.267  1.00  0.00    -0.122 C  
HETATM   11  C   UNL     1      -9.117   2.259  70.262  1.00  0.00    -0.174 C  
HETATM   12  C   UNL     1      -8.371   4.227  68.302  1.00  0.00    -0.092 C  
ENDROOT
BRANCH   3  13
HETATM   13  C   UNL     1     -10.703   7.720  67.670  1.00  0.00    -0.227 C  
BRANCH  13  14
HETATM   14  C   UNL     1     -10.137   9.044  68.256  1.00  0.00    -0.192 C  
BRANCH  14  15
HETATM   15  N   UNL     1     -10.785  10.276  67.773  1.00  0.00    -0.254 NA 
HETATM   16  C   UNL     1      -8.825  12.361  66.839  1.00  0.00    -0.205 C  
HETATM   17  C   UNL     1      -9.003  11.928  68.300  1.00  0.00    -0.178 C  
HETATM   18  C   UNL     1     -10.441  11.475  68.535  1.00  0.00    -0.208 C  
HETATM   19  C   UNL     1      -9.270  11.213  65.919  1.00  0.00    -0.225 C  
HETATM   20  C   UNL     1     -10.584  10.518  66.330  1.00  0.00    -0.133 C  
BRANCH  16  21
HETATM   21  C   UNL     1      -9.487  13.705  66.654  1.00  0.00    -0.277 A  
HETATM   22  N   UNL     1     -10.735  13.837  66.184  1.00  0.00    -0.281 NA 
HETATM   23  O   UNL     1     -11.120  15.134  66.496  1.00  0.00    -0.330 OA 
HETATM   24  C   UNL     1     -10.098  15.778  67.120  1.00  0.00    -0.251 A  
HETATM   25  C   UNL     1      -8.998  14.939  67.172  1.00  0.00    -0.230 A  
HETATM   26  C   UNL     1      -7.812  15.405  67.769  1.00  0.00    -0.158 A  
HETATM   27  C   UNL     1      -7.803  16.698  68.307  1.00  0.00    -0.182 A  
HETATM   28  C   UNL     1      -8.949  17.490  68.264  1.00  0.00    -0.267 A  
HETATM   29  C   UNL     1     -10.132  17.059  67.664  1.00  0.00    -0.298 A  
HETATM   30  F   UNL     1      -8.913  18.705  68.829  1.00  0.00    -0.334 F  
ENDBRANCH  16  21
ENDBRANCH  14  15
ENDBRANCH  13  14
ENDBRANCH   3  13
TORSDOF 4
ENDMDL
MODEL      147
REMARK 921   NORMALIZED FREE ENERGY PREDICTED BY IDOCK:   -4.71 KCAL/MOL
REMARK 922        TOTAL FREE ENERGY PREDICTED BY IDOCK:   -6.55 KCAL/MOL
REMARK 923 INTER-LIGAND FREE ENERGY PREDICTED BY IDOCK:   -5.95 KCAL/MOL
REMARK 924 INTRA-LIGAND FREE ENERGY PREDICTED BY IDOCK:   -0.60 KCAL/MOL
REMARK 927      BINDING AFFINITY PREDICTED BY RF-SCORE:    0.00 PKD
ROOT
HETATM    1  C   UNL     1      -5.997  10.333  67.667  1.00  0.00    -0.052 C  
HETATM    2  C   UNL     1      -6.765   9.235  66.978  1.00  0.00    -0.076 C  
HETATM    3  C   UNL     1      -8.049   8.911  67.227  1.00  0.00    -0.104 C  
HETATM    4  C   UNL     1      -6.085   5.614  63.893  1.00  0.00    -0.025 C  
HETATM    5  C   UNL     1      -8.632   7.820  66.398  1.00  0.00    -0.145 C  
HETATM    6  N   UNL     1      -7.817   7.264  65.432  1.00  0.00    -0.111 N  
HETATM    7  O   UNL     1      -9.792   7.459  66.582  1.00  0.00    -0.209 OA 
HETATM    8  C   UNL     1      -5.607   6.987  64.321  1.00  0.00    -0.032 C  
HETATM    9  N   UNL     1      -5.988   8.593  66.051  1.00  0.00    -0.047 NA 
HETATM   10  C   UNL     1      -8.367   6.141  64.684  1.00  0.00    -0.044 C  
HETATM   11  C   UNL     1      -7.541   5.713  63.483  1.00  0.00    -0.077 C  
HETATM   12  C   UNL     1      -6.506   7.646  65.344  1.00  0.00    -0.041 C  
ENDROOT
BRANCH   3  13
HETATM   13  C   UNL     1      -9.020   9.551  68.190  1.00  0.00    -0.123 C  
BRANCH  13  14
HETATM   14  C   UNL     1      -9.802  10.765  67.614  1.00  0.00    -0.171 C  
BRANCH  14  15
HETATM   15  N   UNL     1      -9.906  11.931  68.509  1.00  0.00    -0.204 NA 
HETATM   16  C   UNL     1     -11.433  14.224  67.299  1.00  0.00    -0.371 C  
HETATM   17  C   UNL     1     -10.054  13.750  66.821  1.00  0.00    -0.265 C  
HETATM   18  C   UNL     1      -9.280  13.145  67.988  1.00  0.00    -0.211 C  
HETATM   19  C   UNL     1     -12.157  13.053  67.980  1.00  0.00    -0.220 C  
HETATM   20  C   UNL     1     -11.288  12.217  68.942  1.00  0.00    -0.287 C  
BRANCH  16  21
HETATM   21  C   UNL     1     -11.252  15.495  68.094  1.00  0.00    -0.343 A  
HETATM   22  N   UNL     1     -11.542  15.578  69.399  1.00  0.00    -0.331 NA 
HETATM   23  O   UNL     1     -10.920  16.734  69.851  1.00  0.00    -0.293 OA 
HETATM   24  C   UNL     1     -10.290  17.350  68.816  1.00  0.00    -0.357 A  
HETATM   25  C   UNL     1     -10.540  16.647  67.650  1.00  0.00    -0.321 A  
HETATM   26  C   UNL     1      -9.993  17.114  66.441  1.00  0.00    -0.315 A  
HETATM   27  C   UNL     1      -9.197  18.266  66.473  1.00  0.00    -0.298 A  
HETATM   28  C   UNL     1      -8.942  18.916  67.679  1.00  0.00    -0.287 A  
HETATM   29  C   UNL     1      -9.485  18.484  68.889  1.00  0.00    -0.277 A  
HETATM   30  F   UNL     1      -8.138  19.988  67.675  1.00  0.00    -0.313 F  
ENDBRANCH  16  21
ENDBRANCH  14  15
ENDBRANCH  13  14
ENDBRANCH   3  13
TORSDOF 4
ENDMDL
MODEL      148
REMARK 921   NORMALIZED FREE ENERGY PREDICTED BY IDOCK:   -4.71 KCAL/MOL
REMARK 922        TOTAL FREE ENERGY PREDICTED BY IDOCK:   -6.55 KCAL/MOL
REMARK 923 INTER-LIGAND FREE ENERGY PREDICTED BY IDOCK:   -6.15 KCAL/MOL
REMARK 924 INTRA-LIGAND FREE ENERGY PREDICTED BY IDOCK:   -0.40 KCAL/MOL
REMARK 927      BINDING AFFINITY PREDICTED BY RF-SCORE:    0.00 PKD
ROOT
HETATM    1  C   UNL     1      -7.462   8.850  69.005  1.00  0.00    -0.074 C  
HETATM    2  C   UNL     1      -8.151   7.632  68.447  1.00  0.00    -0.124 C  
HETATM    3  C   UNL     1      -9.052   6.878  69.108  1.00  0.00    -0.136 C  
HETATM    4  C   UNL     1      -8.055   4.763  64.594  1.00  0.00    -0.107 C  
HETATM    5  C   UNL     1      -9.648   5.741  68.353  1.00  0.00    -0.125 C  
HETATM    6  N   UNL     1      -9.251   5.585  67.039  1.00  0.00    -0.115 N  
HETATM    7  O   UNL     1     -10.463   5.000  68.898  1.00  0.00    -0.130 OA 
HETATM    8  C   UNL     1      -7.801   6.167  65.102  1.00  0.00    -0.108 C  
HETATM    9  N   UNL     1      -7.748   7.378  67.163  1.00  0.00    -0.113 NA 
HETATM   10  C   UNL     1      -9.776   4.422  66.336  1.00  0.00    -0.215 C  
HETATM   11  C   UNL     1      -9.509   4.412  64.840  1.00  0.00    -0.164 C  
HETATM   12  C   UNL     1      -8.270   6.387  66.524  1.00  0.00    -0.113 C  
ENDROOT
BRANCH   3  13
HETATM   13  C   UNL     1      -9.604   7.061  70.501  1.00  0.00    -0.169 C  
BRANCH  13  14
HETATM   14  C   UNL     1     -10.958   7.822  70.567  1.00  0.00    -0.245 C  
BRANCH  14  15
HETATM   15  N   UNL     1     -10.948   9.060  71.366  1.00  0.00    -0.296 NA 
HETATM   16  C   UNL     1     -13.236  10.907  70.724  1.00  0.00    -0.046 C  
HETATM   17  C   UNL     1     -12.071  10.604  69.773  1.00  0.00    -0.343 C  
HETATM   18  C   UNL     1     -10.815  10.284  70.577  1.00  0.00    -0.211 C  
HETATM   19  C   UNL     1     -13.407   9.730  71.697  1.00  0.00    -0.487 C  
HETATM   20  C   UNL     1     -12.096   9.173  72.288  1.00  0.00    -0.241 C  
BRANCH  16  21
HETATM   21  C   UNL     1     -13.026  12.280  71.315  1.00  0.00    -0.204 A  
HETATM   22  N   UNL     1     -13.232  12.549  72.611  1.00  0.00    -0.146 NA 
HETATM   23  O   UNL     1     -12.601  13.763  72.850  1.00  0.00    -0.115 OA 
HETATM   24  C   UNL     1     -12.050  14.228  71.696  1.00  0.00    -0.197 A  
HETATM   25  C   UNL     1     -12.364  13.362  70.664  1.00  0.00    -0.423 A  
HETATM   26  C   UNL     1     -11.904  13.653  69.366  1.00  0.00    -0.392 A  
HETATM   27  C   UNL     1     -11.127  14.802  69.179  1.00  0.00    -0.278 A  
HETATM   28  C   UNL     1     -10.806  15.622  70.260  1.00  0.00    -0.350 A  
HETATM   29  C   UNL     1     -11.262  15.365  71.552  1.00  0.00    -0.401 A  
HETATM   30  F   UNL     1     -10.022  16.688  70.047  1.00  0.00    -0.081 F  
ENDBRANCH  16  21
ENDBRANCH  14  15
ENDBRANCH  13  14
ENDBRANCH   3  13
TORSDOF 4
ENDMDL
MODEL      149
REMARK 921   NORMALIZED FREE ENERGY PREDICTED BY IDOCK:   -4.66 KCAL/MOL
REMARK 922        TOTAL FREE ENERGY PREDICTED BY IDOCK:   -6.49 KCAL/MOL
REMARK 923 INTER-LIGAND FREE ENERGY PREDICTED BY IDOCK:   -6.90 KCAL/MOL
REMARK 924 INTRA-LIGAND FREE ENERGY PREDICTED BY IDOCK:    0.41 KCAL/MOL
REMARK 927      BINDING AFFINITY PREDICTED BY RF-SCORE:    0.00 PKD
ROOT
HETATM    1  C   UNL     1      -9.339  15.476  69.535  1.00  0.00    -0.276 C  
HETATM    2  C   UNL     1      -9.006  16.650  68.652  1.00  0.00    -0.246 C  
HETATM    3  C   UNL     1      -9.568  16.905  67.454  1.00  0.00    -0.241 C  
HETATM    4  C   UNL     1      -5.885  20.291  68.354  1.00  0.00    -0.294 C  
HETATM    5  C   UNL     1      -9.127  18.149  66.764  1.00  0.00    -0.282 C  
HETATM    6  N   UNL     1      -8.210  18.940  67.427  1.00  0.00    -0.268 N  
HETATM    7  O   UNL     1      -9.584  18.436  65.660  1.00  0.00    -0.381 OA 
HETATM    8  C   UNL     1      -6.623  19.362  69.297  1.00  0.00    -0.361 C  
HETATM    9  N   UNL     1      -8.046  17.443  69.222  1.00  0.00     0.038 NA 
HETATM   10  C   UNL     1      -7.721  20.110  66.709  1.00  0.00    -0.299 C  
HETATM   11  C   UNL     1      -6.904  21.075  67.549  1.00  0.00    -0.409 C  
HETATM   12  C   UNL     1      -7.671  18.514  68.609  1.00  0.00    -0.308 C  
ENDROOT
BRANCH   3  13
HETATM   13  C   UNL     1     -10.649  16.139  66.730  1.00  0.00    -0.277 C  
BRANCH  13  14
HETATM   14  C   UNL     1     -10.840  14.673  67.211  1.00  0.00    -0.305 C  
BRANCH  14  15
HETATM   15  N   UNL     1     -10.307  13.638  66.308  1.00  0.00    -0.287 NA 
HETATM   16  C   UNL     1     -10.481  10.860  67.452  1.00  0.00    -0.263 C  
HETATM   17  C   UNL     1      -9.553  11.960  67.982  1.00  0.00    -0.193 C  
HETATM   18  C   UNL     1      -9.164  12.901  66.846  1.00  0.00    -0.234 C  
HETATM   19  C   UNL     1     -11.682  11.512  66.750  1.00  0.00     0.008 C  
HETATM   20  C   UNL     1     -11.336  12.695  65.824  1.00  0.00    -0.333 C  
BRANCH  16  21
HETATM   21  C   UNL     1      -9.654   9.878  66.658  1.00  0.00    -0.184 A  
HETATM   22  N   UNL     1      -8.638  10.258  65.872  1.00  0.00    -0.146 NA 
HETATM   23  O   UNL     1      -7.908   9.105  65.615  1.00  0.00    -0.093 OA 
HETATM   24  C   UNL     1      -8.503   8.042  66.218  1.00  0.00    -0.133 A  
HETATM   25  C   UNL     1      -9.671   8.462  66.829  1.00  0.00    -0.309 A  
HETATM   26  C   UNL     1     -10.463   7.519  67.510  1.00  0.00    -0.341 A  
HETATM   27  C   UNL     1     -10.021   6.191  67.557  1.00  0.00    -0.159 A  
HETATM   28  C   UNL     1      -8.817   5.825  66.958  1.00  0.00    -0.112 A  
HETATM   29  C   UNL     1      -8.022   6.736  66.264  1.00  0.00    -0.108 A  
HETATM   30  F   UNL     1      -8.406   4.554  67.065  1.00  0.00    -0.104 F  
ENDBRANCH  16  21
ENDBRANCH  14  15
ENDBRANCH  13  14
ENDBRANCH   3  13
TORSDOF 4
ENDMDL
MODEL      150
REMARK 921   NORMALIZED FREE ENERGY PREDICTED BY IDOCK:   -4.64 KCAL/MOL
REMARK 922        TOTAL FREE ENERGY PREDICTED BY IDOCK:   -6.46 KCAL/MOL
REMARK 923 INTER-LIGAND FREE ENERGY PREDICTED BY IDOCK:   -6.06 KCAL/MOL
REMARK 924 INTRA-LIGAND FREE ENERGY PREDICTED BY IDOCK:   -0.40 KCAL/MOL
REMARK 927      BINDING AFFINITY PREDICTED BY RF-SCORE:    0.00 PKD
ROOT
HETATM    1  C   UNL     1     -11.520  19.270  67.154  1.00  0.00     0.570 C  
HETATM    2  C   UNL     1     -10.067  19.169  67.539  1.00  0.00    -0.376 C  
HETATM    3  C   UNL     1      -9.570  18.349  68.486  1.00  0.00    -0.368 C  
HETATM    4  C   UNL     1      -5.853  21.316  66.690  1.00  0.00    -0.357 C  
HETATM    5  C   UNL     1      -8.093  18.373  68.677  1.00  0.00    -0.297 C  
HETATM    6  N   UNL     1      -7.368  19.205  67.848  1.00  0.00    -0.246 N  
HETATM    7  O   UNL     1      -7.572  17.665  69.536  1.00  0.00     0.079 OA 
HETATM    8  C   UNL     1      -7.217  20.988  66.117  1.00  0.00     0.147 C  
HETATM    9  N   UNL     1      -9.297  20.024  66.798  1.00  0.00    -0.371 NA 
HETATM   10  C   UNL     1      -5.936  19.285  68.098  1.00  0.00    -0.216 C  
HETATM   11  C   UNL     1      -5.144  20.019  67.029  1.00  0.00    -0.157 C  
HETATM   12  C   UNL     1      -8.019  20.037  66.979  1.00  0.00    -0.314 C  
ENDROOT
BRANCH   3  13
HETATM   13  C   UNL     1     -10.295  17.342  69.346  1.00  0.00    -0.120 C  
BRANCH  13  14
HETATM   14  C   UNL     1     -10.746  16.055  68.601  1.00  0.00    -0.281 C  
BRANCH  14  15
HETATM   15  N   UNL     1     -10.157  14.799  69.096  1.00  0.00    -0.220 NA 
HETATM   16  C   UNL     1     -11.822  12.374  68.463  1.00  0.00    -0.352 C  
HETATM   17  C   UNL     1     -12.227  13.470  69.457  1.00  0.00    -0.289 C  
HETATM   18  C   UNL     1     -10.980  14.094  70.077  1.00  0.00     0.122 C  
HETATM   19  C   UNL     1     -10.849  12.966  67.433  1.00  0.00    -0.272 C  
HETATM   20  C   UNL     1      -9.750  13.876  68.018  1.00  0.00    -0.226 C  
BRANCH  16  21
HETATM   21  C   UNL     1     -11.366  11.165  69.245  1.00  0.00    -0.281 A  
HETATM   22  N   UNL     1     -11.546  11.050  70.567  1.00  0.00    -0.302 NA 
HETATM   23  O   UNL     1     -11.350   9.706  70.858  1.00  0.00    -0.300 OA 
HETATM   24  C   UNL     1     -11.025   9.033  69.722  1.00  0.00    -0.166 A  
HETATM   25  C   UNL     1     -10.937   9.932  68.673  1.00  0.00    -0.222 A  
HETATM   26  C   UNL     1     -10.598   9.456  67.393  1.00  0.00    -0.326 A  
HETATM   27  C   UNL     1     -10.384   8.081  67.231  1.00  0.00    -0.371 A  
HETATM   28  C   UNL     1     -10.523   7.212  68.312  1.00  0.00    -0.198 A  
HETATM   29  C   UNL     1     -10.842   7.660  69.594  1.00  0.00    -0.195 A  
HETATM   30  F   UNL     1     -10.354   5.898  68.107  1.00  0.00    -0.160 F  
ENDBRANCH  16  21
ENDBRANCH  14  15
ENDBRANCH  13  14
ENDBRANCH   3  13
TORSDOF 4
ENDMDL
MODEL      151
REMARK 921   NORMALIZED FREE ENERGY PREDICTED BY IDOCK:   -4.63 KCAL/MOL
REMARK 922        TOTAL FREE ENERGY PREDICTED BY IDOCK:   -6.45 KCAL/MOL
REMARK 923 INTER-LIGAND FREE ENERGY PREDICTED BY IDOCK:   -6.39 KCAL/MOL
REMARK 924 INTRA-LIGAND FREE ENERGY PREDICTED BY IDOCK:   -0.06 KCAL/MOL
REMARK 927      BINDING AFFINITY PREDICTED BY RF-SCORE:    0.00 PKD
ROOT
HETATM    1  C   UNL     1      -7.566   8.360  72.207  1.00  0.00    -0.146 C  
HETATM    2  C   UNL     1      -7.527   9.120  70.907  1.00  0.00    -0.118 C  
HETATM    3  C   UNL     1      -8.235   8.809  69.803  1.00  0.00    -0.117 C  
HETATM    4  C   UNL     1      -5.129  12.702  68.783  1.00  0.00    -0.056 C  
HETATM    5  C   UNL     1      -8.084   9.723  68.637  1.00  0.00    -0.105 C  
HETATM    6  N   UNL     1      -7.260  10.819  68.803  1.00  0.00    -0.084 N  
HETATM    7  O   UNL     1      -8.685   9.491  67.591  1.00  0.00    -0.122 OA 
HETATM    8  C   UNL     1      -5.601  12.138  70.108  1.00  0.00    -0.140 C  
HETATM    9  N   UNL     1      -6.670  10.186  70.982  1.00  0.00    -0.331 NA 
HETATM   10  C   UNL     1      -7.052  11.659  67.632  1.00  0.00    -0.095 C  
HETATM   11  C   UNL     1      -6.339  12.971  67.911  1.00  0.00    -0.134 C  
HETATM   12  C   UNL     1      -6.546  10.965  69.961  1.00  0.00    -0.151 C  
ENDROOT
BRANCH   3  13
HETATM   13  C   UNL     1      -9.229   7.692  69.597  1.00  0.00    -0.146 C  
BRANCH  13  14
HETATM   14  C   UNL     1     -10.633   7.949  70.214  1.00  0.00    -0.231 C  
BRANCH  14  15
HETATM   15  N   UNL     1     -10.747   9.165  71.037  1.00  0.00    -0.266 NA 
HETATM   16  C   UNL     1     -13.247  10.746  70.480  1.00  0.00     0.010 C  
HETATM   17  C   UNL     1     -12.077  10.597  69.499  1.00  0.00    -0.285 C  
HETATM   18  C   UNL     1     -10.774  10.410  70.271  1.00  0.00    -0.187 C  
HETATM   19  C   UNL     1     -13.259   9.541  71.432  1.00  0.00    -0.448 C  
HETATM   20  C   UNL     1     -11.880   9.129  71.985  1.00  0.00    -0.337 C  
BRANCH  16  21
HETATM   21  C   UNL     1     -13.183  12.124  71.094  1.00  0.00     0.137 A  
HETATM   22  N   UNL     1     -13.428  12.349  72.392  1.00  0.00    -0.386 NA 
HETATM   23  O   UNL     1     -12.926  13.616  72.656  1.00  0.00    -0.378 OA 
HETATM   24  C   UNL     1     -12.415  14.154  71.516  1.00  0.00    -0.341 A  
HETATM   25  C   UNL     1     -12.628  13.278  70.467  1.00  0.00    -0.259 A  
HETATM   26  C   UNL     1     -12.189  13.635  69.179  1.00  0.00    -0.265 A  
HETATM   27  C   UNL     1     -11.531  14.861  69.018  1.00  0.00    -0.322 A  
HETATM   28  C   UNL     1     -11.305  15.691  70.115  1.00  0.00    -0.344 A  
HETATM   29  C   UNL     1     -11.745  15.368  71.398  1.00  0.00    -0.453 A  
HETATM   30  F   UNL     1     -10.632  16.835  69.928  1.00  0.00    -0.293 F  
ENDBRANCH  16  21
ENDBRANCH  14  15
ENDBRANCH  13  14
ENDBRANCH   3  13
TORSDOF 4
ENDMDL
MODEL      152
REMARK 921   NORMALIZED FREE ENERGY PREDICTED BY IDOCK:   -4.62 KCAL/MOL
REMARK 922        TOTAL FREE ENERGY PREDICTED BY IDOCK:   -6.44 KCAL/MOL
REMARK 923 INTER-LIGAND FREE ENERGY PREDICTED BY IDOCK:   -5.87 KCAL/MOL
REMARK 924 INTRA-LIGAND FREE ENERGY PREDICTED BY IDOCK:   -0.57 KCAL/MOL
REMARK 927      BINDING AFFINITY PREDICTED BY RF-SCORE:    0.00 PKD
ROOT
HETATM    1  C   UNL     1      -9.214  12.704  67.748  1.00  0.00    -0.195 C  
HETATM    2  C   UNL     1      -9.153  11.342  67.105  1.00  0.00    -0.164 C  
HETATM    3  C   UNL     1     -10.022  10.337  67.330  1.00  0.00    -0.233 C  
HETATM    4  C   UNL     1      -6.293   8.706  64.284  1.00  0.00    -0.071 C  
HETATM    5  C   UNL     1      -9.805   9.086  66.553  1.00  0.00    -0.268 C  
HETATM    6  N   UNL     1      -8.757   9.081  65.653  1.00  0.00    -0.164 N  
HETATM    7  O   UNL     1     -10.548   8.121  66.719  1.00  0.00    -0.313 OA 
HETATM    8  C   UNL     1      -6.732  10.112  64.640  1.00  0.00    -0.120 C  
HETATM    9  N   UNL     1      -8.089  11.247  66.248  1.00  0.00    -0.146 NA 
HETATM   10  C   UNL     1      -8.501   7.825  64.960  1.00  0.00    -0.036 C  
HETATM   11  C   UNL     1      -7.504   7.922  63.818  1.00  0.00    -0.114 C  
HETATM   12  C   UNL     1      -7.911  10.153  65.587  1.00  0.00    -0.147 C  
ENDROOT
BRANCH   3  13
HETATM   13  C   UNL     1     -11.244  10.320  68.215  1.00  0.00    -0.295 C  
BRANCH  13  14
HETATM   14  C   UNL     1     -10.964   9.967  69.703  1.00  0.00    -0.264 C  
BRANCH  14  15
HETATM   15  N   UNL     1     -10.659   8.551  69.969  1.00  0.00    -0.225 NA 
HETATM   16  C   UNL     1      -9.667   8.055  72.767  1.00  0.00    -0.348 C  
HETATM   17  C   UNL     1      -8.883   8.814  71.689  1.00  0.00    -0.278 C  
HETATM   18  C   UNL     1      -9.261   8.289  70.307  1.00  0.00    -0.155 C  
HETATM   19  C   UNL     1     -11.169   8.155  72.458  1.00  0.00    -0.459 C  
HETATM   20  C   UNL     1     -11.548   7.939  70.978  1.00  0.00    -0.282 C  
BRANCH  16  21
HETATM   21  C   UNL     1      -9.071   6.676  72.911  1.00  0.00    -0.128 A  
HETATM   22  N   UNL     1      -7.762   6.471  73.110  1.00  0.00    -0.096 NA 
HETATM   23  O   UNL     1      -7.648   5.160  73.552  1.00  0.00    -0.093 OA 
HETATM   24  C   UNL     1      -8.877   4.578  73.585  1.00  0.00    -0.105 A  
HETATM   25  C   UNL     1      -9.815   5.475  73.103  1.00  0.00    -0.177 A  
HETATM   26  C   UNL     1     -11.164   5.080  73.035  1.00  0.00    -0.383 A  
HETATM   27  C   UNL     1     -11.504   3.796  73.479  1.00  0.00    -0.180 A  
HETATM   28  C   UNL     1     -10.527   2.944  73.992  1.00  0.00    -0.170 A  
HETATM   29  C   UNL     1      -9.181   3.305  74.056  1.00  0.00    -0.100 A  
HETATM   30  F   UNL     1     -10.899   1.741  74.448  1.00  0.00    -0.160 F  
ENDBRANCH  16  21
ENDBRANCH  14  15
ENDBRANCH  13  14
ENDBRANCH   3  13
TORSDOF 4
ENDMDL
MODEL      153
REMARK 921   NORMALIZED FREE ENERGY PREDICTED BY IDOCK:   -4.61 KCAL/MOL
REMARK 922        TOTAL FREE ENERGY PREDICTED BY IDOCK:   -6.42 KCAL/MOL
REMARK 923 INTER-LIGAND FREE ENERGY PREDICTED BY IDOCK:   -5.77 KCAL/MOL
REMARK 924 INTRA-LIGAND FREE ENERGY PREDICTED BY IDOCK:   -0.65 KCAL/MOL
REMARK 927      BINDING AFFINITY PREDICTED BY RF-SCORE:    0.00 PKD
ROOT
HETATM    1  C   UNL     1     -10.345   5.266  69.713  1.00  0.00    -0.369 C  
HETATM    2  C   UNL     1      -9.430   5.371  68.521  1.00  0.00    -0.123 C  
HETATM    3  C   UNL     1      -9.606   6.206  67.477  1.00  0.00    -0.117 C  
HETATM    4  C   UNL     1      -5.601   3.204  66.591  1.00  0.00    -0.021 C  
HETATM    5  C   UNL     1      -8.555   6.182  66.423  1.00  0.00    -0.131 C  
HETATM    6  N   UNL     1      -7.483   5.335  66.626  1.00  0.00    -0.086 N  
HETATM    7  O   UNL     1      -8.659   6.903  65.433  1.00  0.00    -0.131 OA 
HETATM    8  C   UNL     1      -6.326   3.524  67.882  1.00  0.00    -0.036 C  
HETATM    9  N   UNL     1      -8.377   4.502  68.627  1.00  0.00    -0.084 NA 
HETATM   10  C   UNL     1      -6.503   5.257  65.551  1.00  0.00    -0.040 C  
HETATM   11  C   UNL     1      -5.232   4.505  65.905  1.00  0.00    -0.009 C  
HETATM   12  C   UNL     1      -7.477   4.490  67.702  1.00  0.00    -0.074 C  
ENDROOT
BRANCH   3  13
HETATM   13  C   UNL     1     -10.695   7.227  67.252  1.00  0.00    -0.391 C  
BRANCH  13  14
HETATM   14  C   UNL     1     -10.475   8.583  67.980  1.00  0.00    -0.191 C  
BRANCH  14  15
HETATM   15  N   UNL     1     -10.911   9.777  67.236  1.00  0.00    -0.237 NA 
HETATM   16  C   UNL     1      -8.986  12.081  67.454  1.00  0.00    -0.176 C  
HETATM   17  C   UNL     1      -9.841  11.550  68.613  1.00  0.00    -0.184 C  
HETATM   18  C   UNL     1     -11.137  10.956  68.070  1.00  0.00    -0.293 C  
HETATM   19  C   UNL     1      -8.770  10.953  66.434  1.00  0.00    -0.174 C  
HETATM   20  C   UNL     1     -10.025  10.119  66.105  1.00  0.00    -0.246 C  
BRANCH  16  21
HETATM   21  C   UNL     1      -9.599  13.368  66.958  1.00  0.00    -0.244 A  
HETATM   22  N   UNL     1     -10.544  13.399  66.009  1.00  0.00    -0.283 NA 
HETATM   23  O   UNL     1     -11.110  14.665  66.081  1.00  0.00    -0.323 OA 
HETATM   24  C   UNL     1     -10.485  15.392  67.046  1.00  0.00    -0.295 A  
HETATM   25  C   UNL     1      -9.454  14.641  67.582  1.00  0.00    -0.205 A  
HETATM   26  C   UNL     1      -8.657  15.203  68.597  1.00  0.00    -0.172 A  
HETATM   27  C   UNL     1      -8.957  16.497  69.037  1.00  0.00    -0.225 A  
HETATM   28  C   UNL     1     -10.032  17.198  68.492  1.00  0.00    -0.309 A  
HETATM   29  C   UNL     1     -10.827  16.671  67.474  1.00  0.00    -0.221 A  
HETATM   30  F   UNL     1     -10.316  18.417  68.972  1.00  0.00    -0.380 F  
ENDBRANCH  16  21
ENDBRANCH  14  15
ENDBRANCH  13  14
ENDBRANCH   3  13
TORSDOF 4
ENDMDL
MODEL      154
REMARK 921   NORMALIZED FREE ENERGY PREDICTED BY IDOCK:   -4.60 KCAL/MOL
REMARK 922        TOTAL FREE ENERGY PREDICTED BY IDOCK:   -6.42 KCAL/MOL
REMARK 923 INTER-LIGAND FREE ENERGY PREDICTED BY IDOCK:   -5.87 KCAL/MOL
REMARK 924 INTRA-LIGAND FREE ENERGY PREDICTED BY IDOCK:   -0.55 KCAL/MOL
REMARK 927      BINDING AFFINITY PREDICTED BY RF-SCORE:    0.00 PKD
ROOT
HETATM    1  C   UNL     1     -12.061  11.239  70.417  1.00  0.00    -0.474 C  
HETATM    2  C   UNL     1     -11.230  10.094  69.898  1.00  0.00    -0.287 C  
HETATM    3  C   UNL     1     -10.338  10.176  68.891  1.00  0.00    -0.223 C  
HETATM    4  C   UNL     1     -10.747   5.341  70.407  1.00  0.00    -0.216 C  
HETATM    5  C   UNL     1      -9.587   8.932  68.566  1.00  0.00    -0.157 C  
HETATM    6  N   UNL     1      -9.849   7.822  69.345  1.00  0.00    -0.173 N  
HETATM    7  O   UNL     1      -8.771   8.927  67.648  1.00  0.00    -0.124 OA 
HETATM    8  C   UNL     1     -11.156   6.628  71.094  1.00  0.00    -0.326 C  
HETATM    9  N   UNL     1     -11.493   8.940  70.585  1.00  0.00    -0.263 NA 
HETATM   10  C   UNL     1      -9.172   6.588  68.966  1.00  0.00    -0.130 C  
HETATM   11  C   UNL     1      -9.299   5.460  69.975  1.00  0.00    -0.192 C  
HETATM   12  C   UNL     1     -10.838   7.869  70.288  1.00  0.00    -0.241 C  
ENDROOT
BRANCH   3  13
HETATM   13  C   UNL     1      -9.932  11.381  68.078  1.00  0.00    -0.192 C  
BRANCH  13  14
HETATM   14  C   UNL     1      -8.726  12.177  68.653  1.00  0.00     0.007 C  
BRANCH  14  15
HETATM   15  N   UNL     1      -8.232  13.274  67.803  1.00  0.00    -0.154 NA 
HETATM   16  C   UNL     1      -5.855  14.703  68.973  1.00  0.00    -0.088 C  
HETATM   17  C   UNL     1      -7.276  14.766  69.548  1.00  0.00    -0.160 C  
HETATM   18  C   UNL     1      -8.297  14.595  68.427  1.00  0.00    -0.157 C  
HETATM   19  C   UNL     1      -5.692  13.396  68.182  1.00  0.00    -0.108 C  
HETATM   20  C   UNL     1      -6.878  13.034  67.264  1.00  0.00    -0.026 C  
BRANCH  16  21
HETATM   21  C   UNL     1      -5.574  15.999  68.251  1.00  0.00    -0.109 A  
HETATM   22  N   UNL     1      -5.622  16.109  66.917  1.00  0.00    -0.312 NA 
HETATM   23  O   UNL     1      -5.678  17.470  66.652  1.00  0.00    -0.153 OA 
HETATM   24  C   UNL     1      -5.633  18.167  67.819  1.00  0.00    -0.151 A  
HETATM   25  C   UNL     1      -5.480  17.280  68.870  1.00  0.00    -0.150 A  
HETATM   26  C   UNL     1      -5.397  17.784  70.182  1.00  0.00    -0.234 A  
HETATM   27  C   UNL     1      -5.494  19.168  70.369  1.00  0.00    -0.244 A  
HETATM   28  C   UNL     1      -5.686  20.017  69.279  1.00  0.00    -0.257 A  
HETATM   29  C   UNL     1      -5.756  19.545  67.969  1.00  0.00    -0.217 A  
HETATM   30  F   UNL     1      -5.819  21.331  69.504  1.00  0.00    -0.356 F  
ENDBRANCH  16  21
ENDBRANCH  14  15
ENDBRANCH  13  14
ENDBRANCH   3  13
TORSDOF 4
ENDMDL
MODEL      155
REMARK 921   NORMALIZED FREE ENERGY PREDICTED BY IDOCK:   -4.59 KCAL/MOL
REMARK 922        TOTAL FREE ENERGY PREDICTED BY IDOCK:   -6.40 KCAL/MOL
REMARK 923 INTER-LIGAND FREE ENERGY PREDICTED BY IDOCK:   -6.01 KCAL/MOL
REMARK 924 INTRA-LIGAND FREE ENERGY PREDICTED BY IDOCK:   -0.40 KCAL/MOL
REMARK 927      BINDING AFFINITY PREDICTED BY RF-SCORE:    0.00 PKD
ROOT
HETATM    1  C   UNL     1     -12.186  14.460  64.613  1.00  0.00    -0.479 C  
HETATM    2  C   UNL     1     -11.076  14.888  65.539  1.00  0.00    -0.352 C  
HETATM    3  C   UNL     1     -10.364  14.062  66.331  1.00  0.00    -0.289 C  
HETATM    4  C   UNL     1      -8.998  18.875  67.233  1.00  0.00    -0.298 C  
HETATM    5  C   UNL     1      -9.278  14.688  67.135  1.00  0.00    -0.221 C  
HETATM    6  N   UNL     1      -9.080  16.045  66.973  1.00  0.00    -0.206 N  
HETATM    7  O   UNL     1      -8.599  13.999  67.894  1.00  0.00    -0.160 OA 
HETATM    8  C   UNL     1      -9.742  18.264  66.063  1.00  0.00    -0.114 C  
HETATM    9  N   UNL     1     -10.874  16.241  65.478  1.00  0.00    -0.289 NA 
HETATM   10  C   UNL     1      -8.073  16.661  67.826  1.00  0.00    -0.176 C  
HETATM   11  C   UNL     1      -7.720  18.092  67.459  1.00  0.00    -0.220 C  
HETATM   12  C   UNL     1      -9.933  16.768  66.186  1.00  0.00    -0.327 C  
ENDROOT
BRANCH   3  13
HETATM   13  C   UNL     1     -10.460  12.562  66.470  1.00  0.00    -0.258 C  
BRANCH  13  14
HETATM   14  C   UNL     1     -11.181  12.074  67.758  1.00  0.00    -0.271 C  
BRANCH  14  15
HETATM   15  N   UNL     1     -11.546  10.647  67.774  1.00  0.00    -0.476 NA 
HETATM   16  C   UNL     1      -9.588   8.937  69.291  1.00  0.00    -0.162 C  
HETATM   17  C   UNL     1      -9.284   9.631  67.957  1.00  0.00    -0.132 C  
HETATM   18  C   UNL     1     -10.565   9.768  67.140  1.00  0.00    -0.229 C  
HETATM   19  C   UNL     1     -10.704   9.708  70.013  1.00  0.00    -0.298 C  
HETATM   20  C   UNL     1     -11.883  10.143  69.120  1.00  0.00     0.130 C  
BRANCH  16  21
HETATM   21  C   UNL     1      -9.810   7.467  69.025  1.00  0.00    -0.170 A  
HETATM   22  N   UNL     1     -11.025   6.950  68.797  1.00  0.00    -0.191 NA 
HETATM   23  O   UNL     1     -10.802   5.695  68.245  1.00  0.00    -0.203 OA 
HETATM   24  C   UNL     1      -9.465   5.456  68.174  1.00  0.00    -0.118 A  
HETATM   25  C   UNL     1      -8.784   6.521  68.738  1.00  0.00    -0.123 A  
HETATM   26  C   UNL     1      -7.378   6.484  68.785  1.00  0.00    -0.087 A  
HETATM   27  C   UNL     1      -6.724   5.373  68.236  1.00  0.00    -0.054 A  
HETATM   28  C   UNL     1      -7.455   4.344  67.644  1.00  0.00    -0.073 A  
HETATM   29  C   UNL     1      -8.848   4.349  67.599  1.00  0.00    -0.121 A  
HETATM   30  F   UNL     1      -6.790   3.321  67.090  1.00  0.00    -0.042 F  
ENDBRANCH  16  21
ENDBRANCH  14  15
ENDBRANCH  13  14
ENDBRANCH   3  13
TORSDOF 4
ENDMDL
MODEL      156
REMARK 921   NORMALIZED FREE ENERGY PREDICTED BY IDOCK:   -4.56 KCAL/MOL
REMARK 922        TOTAL FREE ENERGY PREDICTED BY IDOCK:   -6.36 KCAL/MOL
REMARK 923 INTER-LIGAND FREE ENERGY PREDICTED BY IDOCK:   -6.59 KCAL/MOL
REMARK 924 INTRA-LIGAND FREE ENERGY PREDICTED BY IDOCK:    0.23 KCAL/MOL
REMARK 927      BINDING AFFINITY PREDICTED BY RF-SCORE:    0.00 PKD
ROOT
HETATM    1  C   UNL     1      -6.058   6.660  69.377  1.00  0.00    -0.026 C  
HETATM    2  C   UNL     1      -6.951   5.848  68.475  1.00  0.00    -0.075 C  
HETATM    3  C   UNL     1      -7.866   4.950  68.892  1.00  0.00    -0.077 C  
HETATM    4  C   UNL     1      -7.624   4.896  63.814  1.00  0.00    -0.066 C  
HETATM    5  C   UNL     1      -8.678   4.289  67.833  1.00  0.00    -0.106 C  
HETATM    6  N   UNL     1      -8.444   4.680  66.529  1.00  0.00    -0.110 N  
HETATM    7  O   UNL     1      -9.518   3.446  68.137  1.00  0.00    -0.183 OA 
HETATM    8  C   UNL     1      -7.142   5.928  64.813  1.00  0.00    -0.060 C  
HETATM    9  N   UNL     1      -6.720   6.138  67.157  1.00  0.00    -0.056 NA 
HETATM   10  C   UNL     1      -9.182   3.968  65.495  1.00  0.00    -0.150 C  
HETATM   11  C   UNL     1      -9.078   4.578  64.107  1.00  0.00    -0.132 C  
HETATM   12  C   UNL     1      -7.428   5.553  66.251  1.00  0.00    -0.086 C  
ENDROOT
BRANCH   3  13
HETATM   13  C   UNL     1      -8.241   4.561  70.301  1.00  0.00    -0.072 C  
BRANCH  13  14
HETATM   14  C   UNL     1      -9.691   4.940  70.716  1.00  0.00    -0.198 C  
BRANCH  14  15
HETATM   15  N   UNL     1     -10.160   6.254  70.240  1.00  0.00    -0.179 NA 
HETATM   16  C   UNL     1     -11.400   7.929  72.411  1.00  0.00    -0.427 C  
HETATM   17  C   UNL     1     -12.021   6.646  71.842  1.00  0.00    -0.386 C  
HETATM   18  C   UNL     1     -11.599   6.467  70.387  1.00  0.00    -0.407 C  
HETATM   19  C   UNL     1      -9.878   7.881  72.210  1.00  0.00    -0.276 C  
HETATM   20  C   UNL     1      -9.416   7.388  70.824  1.00  0.00    -0.167 C  
BRANCH  16  21
HETATM   21  C   UNL     1     -12.146   9.112  71.844  1.00  0.00    -0.378 A  
HETATM   22  N   UNL     1     -13.208   9.657  72.453  1.00  0.00    -0.391 NA 
HETATM   23  O   UNL     1     -13.386  10.900  71.861  1.00  0.00    -0.421 OA 
HETATM   24  C   UNL     1     -12.456  11.081  70.885  1.00  0.00    -0.410 A  
HETATM   25  C   UNL     1     -11.689   9.934  70.772  1.00  0.00    -0.424 A  
HETATM   26  C   UNL     1     -10.664   9.890  69.809  1.00  0.00    -0.298 A  
HETATM   27  C   UNL     1     -10.449  11.024  69.016  1.00  0.00    -0.242 A  
HETATM   28  C   UNL     1     -11.224  12.169  69.195  1.00  0.00    -0.244 A  
HETATM   29  C   UNL     1     -12.256  12.233  70.131  1.00  0.00    -0.302 A  
HETATM   30  F   UNL     1     -10.957  13.249  68.447  1.00  0.00    -0.239 F  
ENDBRANCH  16  21
ENDBRANCH  14  15
ENDBRANCH  13  14
ENDBRANCH   3  13
TORSDOF 4
ENDMDL
MODEL      157
REMARK 921   NORMALIZED FREE ENERGY PREDICTED BY IDOCK:   -4.52 KCAL/MOL
REMARK 922        TOTAL FREE ENERGY PREDICTED BY IDOCK:   -6.31 KCAL/MOL
REMARK 923 INTER-LIGAND FREE ENERGY PREDICTED BY IDOCK:   -6.15 KCAL/MOL
REMARK 924 INTRA-LIGAND FREE ENERGY PREDICTED BY IDOCK:   -0.16 KCAL/MOL
REMARK 927      BINDING AFFINITY PREDICTED BY RF-SCORE:    0.00 PKD
ROOT
HETATM    1  C   UNL     1     -12.092  11.978  64.596  1.00  0.00    -0.313 C  
HETATM    2  C   UNL     1     -10.649  11.614  64.833  1.00  0.00    -0.296 C  
HETATM    3  C   UNL     1      -9.898  12.047  65.865  1.00  0.00    -0.259 C  
HETATM    4  C   UNL     1      -7.012   9.316  62.694  1.00  0.00    -0.094 C  
HETATM    5  C   UNL     1      -8.505  11.527  65.936  1.00  0.00     0.062 C  
HETATM    6  N   UNL     1      -8.121  10.628  64.960  1.00  0.00    -0.093 N  
HETATM    7  O   UNL     1      -7.756  11.892  66.839  1.00  0.00    -0.154 OA 
HETATM    8  C   UNL     1      -8.519   9.396  62.834  1.00  0.00    -0.206 C  
HETATM    9  N   UNL     1     -10.184  10.774  63.857  1.00  0.00    -0.343 NA 
HETATM   10  C   UNL     1      -6.732  10.190  64.989  1.00  0.00    -0.127 C  
HETATM   11  C   UNL     1      -6.411   9.034  64.057  1.00  0.00    -0.087 C  
HETATM   12  C   UNL     1      -8.972  10.337  63.929  1.00  0.00    -0.237 C  
ENDROOT
BRANCH   3  13
HETATM   13  C   UNL     1     -10.292  12.940  67.017  1.00  0.00    -0.245 C  
BRANCH  13  14
HETATM   14  C   UNL     1     -10.319  12.238  68.404  1.00  0.00    -0.224 C  
BRANCH  14  15
HETATM   15  N   UNL     1     -10.822  10.853  68.400  1.00  0.00    -0.204 NA 
HETATM   16  C   UNL     1     -10.489   9.463  71.049  1.00  0.00    -0.392 C  
HETATM   17  C   UNL     1      -9.331   9.855  70.122  1.00  0.00    -0.200 C  
HETATM   18  C   UNL     1      -9.801   9.842  68.671  1.00  0.00    -0.157 C  
HETATM   19  C   UNL     1     -11.684  10.389  70.777  1.00  0.00    -0.464 C  
HETATM   20  C   UNL     1     -11.985  10.649  69.287  1.00  0.00    -0.197 C  
BRANCH  16  21
HETATM   21  C   UNL     1     -10.714   7.975  70.929  1.00  0.00    -0.221 A  
HETATM   22  N   UNL     1     -11.933   7.422  70.976  1.00  0.00    -0.311 NA 
HETATM   23  O   UNL     1     -11.784   6.136  70.475  1.00  0.00    -0.293 OA 
HETATM   24  C   UNL     1     -10.480   5.915  70.160  1.00  0.00    -0.262 A  
HETATM   25  C   UNL     1      -9.735   7.027  70.509  1.00  0.00    -0.178 A  
HETATM   26  C   UNL     1      -8.346   7.017  70.283  1.00  0.00    -0.133 A  
HETATM   27  C   UNL     1      -7.777   5.882  69.692  1.00  0.00    -0.096 A  
HETATM   28  C   UNL     1      -8.577   4.802  69.322  1.00  0.00    -0.083 A  
HETATM   29  C   UNL     1      -9.953   4.780  69.550  1.00  0.00    -0.287 A  
HETATM   30  F   UNL     1      -8.002   3.753  68.718  1.00  0.00    -0.062 F  
ENDBRANCH  16  21
ENDBRANCH  14  15
ENDBRANCH  13  14
ENDBRANCH   3  13
TORSDOF 4
ENDMDL
MODEL      158
REMARK 921   NORMALIZED FREE ENERGY PREDICTED BY IDOCK:   -4.50 KCAL/MOL
REMARK 922        TOTAL FREE ENERGY PREDICTED BY IDOCK:   -6.30 KCAL/MOL
REMARK 923 INTER-LIGAND FREE ENERGY PREDICTED BY IDOCK:   -6.33 KCAL/MOL
REMARK 924 INTRA-LIGAND FREE ENERGY PREDICTED BY IDOCK:    0.04 KCAL/MOL
REMARK 927      BINDING AFFINITY PREDICTED BY RF-SCORE:    0.00 PKD
ROOT
HETATM    1  C   UNL     1     -12.041  10.277  70.488  1.00  0.00    -0.401 C  
HETATM    2  C   UNL     1     -11.324  11.246  69.584  1.00  0.00    -0.287 C  
HETATM    3  C   UNL     1     -10.257  10.948  68.817  1.00  0.00    -0.210 C  
HETATM    4  C   UNL     1     -11.249  15.923  68.486  1.00  0.00    -0.362 C  
HETATM    5  C   UNL     1      -9.728  12.045  67.960  1.00  0.00    -0.198 C  
HETATM    6  N   UNL     1     -10.397  13.253  68.005  1.00  0.00    -0.235 N  
HETATM    7  O   UNL     1      -8.745  11.851  67.248  1.00  0.00    -0.158 OA 
HETATM    8  C   UNL     1     -12.111  14.776  68.972  1.00  0.00    -0.256 C  
HETATM    9  N   UNL     1     -11.898  12.488  69.634  1.00  0.00    -0.323 NA 
HETATM   10  C   UNL     1      -9.823  14.343  67.229  1.00  0.00    -0.247 C  
HETATM   11  C   UNL     1     -10.705  15.574  67.114  1.00  0.00    -0.315 C  
HETATM   12  C   UNL     1     -11.424  13.430  68.890  1.00  0.00    -0.304 C  
ENDROOT
BRANCH   3  13
HETATM   13  C   UNL     1      -9.552   9.625  68.644  1.00  0.00    -0.154 C  
BRANCH  13  14
HETATM   14  C   UNL     1     -10.433   8.492  68.046  1.00  0.00    -0.191 C  
BRANCH  14  15
HETATM   15  N   UNL     1     -10.660   7.336  68.931  1.00  0.00    -0.207 NA 
HETATM   16  C   UNL     1      -8.907   4.978  68.279  1.00  0.00    -0.110 C  
HETATM   17  C   UNL     1     -10.044   5.489  67.384  1.00  0.00    -0.215 C  
HETATM   18  C   UNL     1     -11.128   6.134  68.242  1.00  0.00    -0.239 C  
HETATM   19  C   UNL     1      -8.398   6.135  69.152  1.00  0.00    -0.116 C  
HETATM   20  C   UNL     1      -9.499   7.012  69.783  1.00  0.00    -0.145 C  
BRANCH  16  21
HETATM   21  C   UNL     1      -9.376   3.725  68.979  1.00  0.00    -0.171 A  
HETATM   22  N   UNL     1      -9.367   2.522  68.390  1.00  0.00    -0.199 NA 
HETATM   23  O   UNL     1      -9.503   1.598  69.418  1.00  0.00    -0.109 OA 
HETATM   24  C   UNL     1      -9.623   2.248  70.606  1.00  0.00    -0.078 A  
HETATM   25  C   UNL     1      -9.634   3.613  70.377  1.00  0.00    -0.254 A  
HETATM   26  C   UNL     1      -9.763   4.488  71.471  1.00  0.00    -0.243 A  
HETATM   27  C   UNL     1      -9.854   3.937  72.755  1.00  0.00    -0.199 A  
HETATM   28  C   UNL     1      -9.799   2.556  72.937  1.00  0.00    -0.117 A  
HETATM   29  C   UNL     1      -9.688   1.667  71.869  1.00  0.00    -0.195 A  
HETATM   30  F   UNL     1      -9.844   2.070  74.185  1.00  0.00    -0.098 F  
ENDBRANCH  16  21
ENDBRANCH  14  15
ENDBRANCH  13  14
ENDBRANCH   3  13
TORSDOF 4
ENDMDL
MODEL      159
REMARK 921   NORMALIZED FREE ENERGY PREDICTED BY IDOCK:   -4.49 KCAL/MOL
REMARK 922        TOTAL FREE ENERGY PREDICTED BY IDOCK:   -6.28 KCAL/MOL
REMARK 923 INTER-LIGAND FREE ENERGY PREDICTED BY IDOCK:   -5.61 KCAL/MOL
REMARK 924 INTRA-LIGAND FREE ENERGY PREDICTED BY IDOCK:   -0.67 KCAL/MOL
REMARK 927      BINDING AFFINITY PREDICTED BY RF-SCORE:    0.00 PKD
ROOT
HETATM    1  C   UNL     1     -13.375   9.221  71.293  1.00  0.00    -0.322 C  
HETATM    2  C   UNL     1     -12.852  10.601  70.986  1.00  0.00    -0.402 C  
HETATM    3  C   UNL     1     -11.977  10.899  70.005  1.00  0.00    -0.429 C  
HETATM    4  C   UNL     1     -12.941  15.071  72.745  1.00  0.00    -0.528 C  
HETATM    5  C   UNL     1     -11.626  12.337  69.843  1.00  0.00    -0.203 C  
HETATM    6  N   UNL     1     -12.251  13.233  70.688  1.00  0.00    -0.366 N  
HETATM    7  O   UNL     1     -10.820  12.681  68.982  1.00  0.00    -0.222 OA 
HETATM    8  C   UNL     1     -13.698  13.762  72.643  1.00  0.00    -0.566 C  
HETATM    9  N   UNL     1     -13.383  11.533  71.837  1.00  0.00    -0.404 NA 
HETATM   10  C   UNL     1     -11.839  14.626  70.578  1.00  0.00    -0.304 C  
HETATM   11  C   UNL     1     -12.707  15.607  71.347  1.00  0.00    -0.535 C  
HETATM   12  C   UNL     1     -13.064  12.774  71.687  1.00  0.00    -0.331 C  
ENDROOT
BRANCH   3  13
HETATM   13  C   UNL     1     -11.345   9.982  68.986  1.00  0.00    -0.136 C  
BRANCH  13  14
HETATM   14  C   UNL     1      -9.849   9.650  69.250  1.00  0.00    -0.189 C  
BRANCH  14  15
HETATM   15  N   UNL     1      -9.552   9.091  70.581  1.00  0.00    -0.216 NA 
HETATM   16  C   UNL     1      -6.991   7.514  70.662  1.00  0.00    -0.051 C  
HETATM   17  C   UNL     1      -8.258   7.075  69.917  1.00  0.00    -0.130 C  
HETATM   18  C   UNL     1      -9.492   7.631  70.620  1.00  0.00    -0.163 C  
HETATM   19  C   UNL     1      -6.991   9.044  70.793  1.00  0.00    -0.087 C  
HETATM   20  C   UNL     1      -8.342   9.666  71.202  1.00  0.00     0.581 C  
BRANCH  16  21
HETATM   21  C   UNL     1      -6.877   6.702  71.930  1.00  0.00    -0.067 A  
HETATM   22  N   UNL     1      -6.918   7.256  73.149  1.00  0.00    -0.068 NA 
HETATM   23  O   UNL     1      -7.154   6.210  74.031  1.00  0.00    -0.083 OA 
HETATM   24  C   UNL     1      -7.222   5.038  73.345  1.00  0.00    -0.086 A  
HETATM   25  C   UNL     1      -6.967   5.281  72.006  1.00  0.00    -0.078 A  
HETATM   26  C   UNL     1      -6.973   4.202  71.103  1.00  0.00    -0.036 A  
HETATM   27  C   UNL     1      -7.259   2.924  71.597  1.00  0.00    -0.039 A  
HETATM   28  C   UNL     1      -7.548   2.737  72.948  1.00  0.00    -0.050 A  
HETATM   29  C   UNL     1      -7.533   3.786  73.867  1.00  0.00    -0.069 A  
HETATM   30  F   UNL     1      -7.862   1.505  73.374  1.00  0.00    -0.034 F  
ENDBRANCH  16  21
ENDBRANCH  14  15
ENDBRANCH  13  14
ENDBRANCH   3  13
TORSDOF 4
ENDMDL
MODEL      160
REMARK 921   NORMALIZED FREE ENERGY PREDICTED BY IDOCK:   -4.45 KCAL/MOL
REMARK 922        TOTAL FREE ENERGY PREDICTED BY IDOCK:   -6.23 KCAL/MOL
REMARK 923 INTER-LIGAND FREE ENERGY PREDICTED BY IDOCK:   -6.16 KCAL/MOL
REMARK 924 INTRA-LIGAND FREE ENERGY PREDICTED BY IDOCK:   -0.07 KCAL/MOL
REMARK 927      BINDING AFFINITY PREDICTED BY RF-SCORE:    0.00 PKD
ROOT
HETATM    1  C   UNL     1      -7.388   9.783  69.922  1.00  0.00    -0.134 C  
HETATM    2  C   UNL     1      -8.096   8.540  69.450  1.00  0.00    -0.112 C  
HETATM    3  C   UNL     1      -9.305   8.513  68.854  1.00  0.00    -0.146 C  
HETATM    4  C   UNL     1      -7.680   3.756  69.609  1.00  0.00    -0.052 C  
HETATM    5  C   UNL     1      -9.803   7.178  68.422  1.00  0.00    -0.152 C  
HETATM    6  N   UNL     1      -8.970   6.098  68.641  1.00  0.00    -0.126 N  
HETATM    7  O   UNL     1     -10.905   7.075  67.888  1.00  0.00    -0.218 OA 
HETATM    8  C   UNL     1      -6.923   5.068  69.613  1.00  0.00    -0.054 C  
HETATM    9  N   UNL     1      -7.351   7.419  69.702  1.00  0.00    -0.088 NA 
HETATM   10  C   UNL     1      -9.501   4.787  68.293  1.00  0.00    -0.142 C  
HETATM   11  C   UNL     1      -8.482   3.661  68.326  1.00  0.00    -0.109 C  
HETATM   12  C   UNL     1      -7.799   6.269  69.326  1.00  0.00    -0.105 C  
ENDROOT
BRANCH   3  13
HETATM   13  C   UNL     1     -10.210   9.665  68.491  1.00  0.00    -0.216 C  
BRANCH  13  14
HETATM   14  C   UNL     1     -10.432   9.861  66.964  1.00  0.00    -0.230 C  
BRANCH  14  15
HETATM   15  N   UNL     1      -9.721  11.004  66.365  1.00  0.00    -0.195 NA 
HETATM   16  C   UNL     1     -10.725  13.670  67.337  1.00  0.00    -0.272 C  
HETATM   17  C   UNL     1     -11.525  12.715  66.442  1.00  0.00    -0.409 C  
HETATM   18  C   UNL     1     -10.572  11.895  65.577  1.00  0.00    -0.269 C  
HETATM   19  C   UNL     1      -9.700  12.859  68.144  1.00  0.00    -0.227 C  
HETATM   20  C   UNL     1      -8.937  11.785  67.342  1.00  0.00    -0.173 C  
BRANCH  16  21
HETATM   21  C   UNL     1     -10.209  14.804  66.485  1.00  0.00    -0.276 A  
HETATM   22  N   UNL     1     -10.992  15.489  65.642  1.00  0.00    -0.325 NA 
HETATM   23  O   UNL     1     -10.290  16.645  65.329  1.00  0.00    -0.609 OA 
HETATM   24  C   UNL     1      -9.084  16.633  65.958  1.00  0.00    -0.224 A  
HETATM   25  C   UNL     1      -8.942  15.439  66.643  1.00  0.00    -0.319 A  
HETATM   26  C   UNL     1      -7.756  15.201  67.362  1.00  0.00    -0.225 A  
HETATM   27  C   UNL     1      -6.773  16.198  67.370  1.00  0.00    -0.218 A  
HETATM   28  C   UNL     1      -6.980  17.400  66.695  1.00  0.00    -0.233 A  
HETATM   29  C   UNL     1      -8.139  17.655  65.962  1.00  0.00    -0.148 A  
HETATM   30  F   UNL     1      -6.034  18.347  66.764  1.00  0.00    -0.154 F  
ENDBRANCH  16  21
ENDBRANCH  14  15
ENDBRANCH  13  14
ENDBRANCH   3  13
TORSDOF 4
ENDMDL
MODEL      161
REMARK 921   NORMALIZED FREE ENERGY PREDICTED BY IDOCK:   -4.42 KCAL/MOL
REMARK 922        TOTAL FREE ENERGY PREDICTED BY IDOCK:   -6.18 KCAL/MOL
REMARK 923 INTER-LIGAND FREE ENERGY PREDICTED BY IDOCK:   -6.57 KCAL/MOL
REMARK 924 INTRA-LIGAND FREE ENERGY PREDICTED BY IDOCK:    0.39 KCAL/MOL
REMARK 927      BINDING AFFINITY PREDICTED BY RF-SCORE:    0.00 PKD
ROOT
HETATM    1  C   UNL     1      -7.646   7.719  72.223  1.00  0.00    -0.097 C  
HETATM    2  C   UNL     1      -7.954   6.390  72.861  1.00  0.00    -0.106 C  
HETATM    3  C   UNL     1      -9.170   5.998  73.291  1.00  0.00    -0.132 C  
HETATM    4  C   UNL     1      -5.722   2.464  74.503  1.00  0.00    -0.004 C  
HETATM    5  C   UNL     1      -9.265   4.621  73.851  1.00  0.00    -0.110 C  
HETATM    6  N   UNL     1      -8.110   3.864  73.849  1.00  0.00    -0.086 N  
HETATM    7  O   UNL     1     -10.338   4.203  74.279  1.00  0.00    -0.177 OA 
HETATM    8  C   UNL     1      -5.659   3.601  73.503  1.00  0.00     0.000 C  
HETATM    9  N   UNL     1      -6.831   5.611  72.953  1.00  0.00    -0.073 NA 
HETATM   10  C   UNL     1      -8.193   2.551  74.475  1.00  0.00    -0.066 C  
HETATM   11  C   UNL     1      -6.983   1.661  74.246  1.00  0.00    -0.023 C  
HETATM   12  C   UNL     1      -6.929   4.423  73.446  1.00  0.00    -0.065 C  
ENDROOT
BRANCH   3  13
HETATM   13  C   UNL     1     -10.485   6.736  73.222  1.00  0.00    -0.321 C  
BRANCH  13  14
HETATM   14  C   UNL     1     -11.571   6.050  72.346  1.00  0.00    -0.300 C  
BRANCH  14  15
HETATM   15  N   UNL     1     -12.190   6.908  71.321  1.00  0.00    -0.368 NA 
HETATM   16  C   UNL     1     -10.453   9.227  70.508  1.00  0.00    -0.312 C  
HETATM   17  C   UNL     1     -11.119   9.081  71.882  1.00  0.00    -0.433 C  
HETATM   18  C   UNL     1     -12.415   8.288  71.748  1.00  0.00    -0.332 C  
HETATM   19  C   UNL     1     -10.264   7.833  69.891  1.00  0.00    -0.213 C  
HETATM   20  C   UNL     1     -11.475   6.887  70.029  1.00  0.00    -0.277 C  
BRANCH  16  21
HETATM   21  C   UNL     1     -11.226  10.249  69.709  1.00  0.00    -0.282 A  
HETATM   22  N   UNL     1     -11.952  11.217  70.284  1.00  0.00    -0.344 NA 
HETATM   23  O   UNL     1     -12.199  12.148  69.283  1.00  0.00    -0.199 OA 
HETATM   24  C   UNL     1     -11.649  11.721  68.115  1.00  0.00    -0.323 A  
HETATM   25  C   UNL     1     -11.088  10.471  68.308  1.00  0.00    -0.340 A  
HETATM   26  C   UNL     1     -10.468   9.826  67.221  1.00  0.00    -0.324 A  
HETATM   27  C   UNL     1     -10.428  10.491  65.989  1.00  0.00    -0.226 A  
HETATM   28  C   UNL     1     -10.974  11.767  65.856  1.00  0.00    -0.304 A  
HETATM   29  C   UNL     1     -11.608  12.421  66.912  1.00  0.00    -0.437 A  
HETATM   30  F   UNL     1     -10.876  12.388  64.673  1.00  0.00    -0.295 F  
ENDBRANCH  16  21
ENDBRANCH  14  15
ENDBRANCH  13  14
ENDBRANCH   3  13
TORSDOF 4
ENDMDL
MODEL      162
REMARK 921   NORMALIZED FREE ENERGY PREDICTED BY IDOCK:   -4.41 KCAL/MOL
REMARK 922        TOTAL FREE ENERGY PREDICTED BY IDOCK:   -6.17 KCAL/MOL
REMARK 923 INTER-LIGAND FREE ENERGY PREDICTED BY IDOCK:   -5.81 KCAL/MOL
REMARK 924 INTRA-LIGAND FREE ENERGY PREDICTED BY IDOCK:   -0.36 KCAL/MOL
REMARK 927      BINDING AFFINITY PREDICTED BY RF-SCORE:    0.00 PKD
ROOT
HETATM    1  C   UNL     1     -10.916  15.749  70.675  1.00  0.00    -0.341 C  
HETATM    2  C   UNL     1     -10.776  16.235  69.256  1.00  0.00    -0.307 C  
HETATM    3  C   UNL     1     -10.778  15.449  68.162  1.00  0.00    -0.271 C  
HETATM    4  C   UNL     1      -9.838  20.255  66.797  1.00  0.00    -0.586 C  
HETATM    5  C   UNL     1     -10.673  16.141  66.847  1.00  0.00    -0.247 C  
HETATM    6  N   UNL     1     -10.616  17.521  66.868  1.00  0.00    -0.270 N  
HETATM    7  O   UNL     1     -10.650  15.487  65.807  1.00  0.00    -0.318 OA 
HETATM    8  C   UNL     1     -10.427  19.690  68.073  1.00  0.00    -0.537 C  
HETATM    9  N   UNL     1     -10.644  17.598  69.210  1.00  0.00    -0.089 NA 
HETATM   10  C   UNL     1     -10.428  18.183  65.584  1.00  0.00    -0.095 C  
HETATM   11  C   UNL     1     -10.606  19.691  65.617  1.00  0.00    -0.462 C  
HETATM   12  C   UNL     1     -10.548  18.181  68.063  1.00  0.00    -0.341 C  
ENDROOT
BRANCH   3  13
HETATM   13  C   UNL     1     -10.945  13.952  68.069  1.00  0.00    -0.267 C  
BRANCH  13  14
HETATM   14  C   UNL     1      -9.618  13.144  68.135  1.00  0.00    -0.227 C  
BRANCH  14  15
HETATM   15  N   UNL     1      -9.748  11.697  67.895  1.00  0.00    -0.174 NA 
HETATM   16  C   UNL     1      -8.220  10.023  69.875  1.00  0.00    -0.175 C  
HETATM   17  C   UNL     1      -7.571  10.917  68.810  1.00  0.00    -0.121 C  
HETATM   18  C   UNL     1      -8.486  11.022  67.594  1.00  0.00    -0.121 C  
HETATM   19  C   UNL     1      -9.620  10.565  70.199  1.00  0.00     0.460 C  
HETATM   20  C   UNL     1     -10.459  10.984  68.975  1.00  0.00    -0.216 C  
BRANCH  16  21
HETATM   21  C   UNL     1      -8.111   8.586  69.423  1.00  0.00    -0.112 A  
HETATM   22  N   UNL     1      -7.424   8.222  68.331  1.00  0.00    -0.094 NA 
HETATM   23  O   UNL     1      -7.240   6.850  68.442  1.00  0.00    -0.083 OA 
HETATM   24  C   UNL     1      -7.840   6.397  69.575  1.00  0.00    -0.101 A  
HETATM   25  C   UNL     1      -8.485   7.450  70.199  1.00  0.00    -0.137 A  
HETATM   26  C   UNL     1      -9.189   7.209  71.393  1.00  0.00    -0.150 A  
HETATM   27  C   UNL     1      -9.187   5.909  71.914  1.00  0.00    -0.155 A  
HETATM   28  C   UNL     1      -8.489   4.890  71.268  1.00  0.00    -0.116 A  
HETATM   29  C   UNL     1      -7.798   5.099  70.075  1.00  0.00    -0.078 A  
HETATM   30  F   UNL     1      -8.474   3.670  71.822  1.00  0.00    -0.078 F  
ENDBRANCH  16  21
ENDBRANCH  14  15
ENDBRANCH  13  14
ENDBRANCH   3  13
TORSDOF 4
ENDMDL
MODEL      163
REMARK 921   NORMALIZED FREE ENERGY PREDICTED BY IDOCK:   -4.38 KCAL/MOL
REMARK 922        TOTAL FREE ENERGY PREDICTED BY IDOCK:   -6.15 KCAL/MOL
REMARK 923 INTER-LIGAND FREE ENERGY PREDICTED BY IDOCK:   -7.74 KCAL/MOL
REMARK 924 INTRA-LIGAND FREE ENERGY PREDICTED BY IDOCK:    1.59 KCAL/MOL
REMARK 927      BINDING AFFINITY PREDICTED BY RF-SCORE:    0.00 PKD
ROOT
HETATM    1  C   UNL     1     -11.001  18.314  65.796  1.00  0.00     0.213 C  
HETATM    2  C   UNL     1      -9.586  18.198  66.301  1.00  0.00    -0.239 C  
HETATM    3  C   UNL     1      -8.878  17.053  66.373  1.00  0.00    -0.313 C  
HETATM    4  C   UNL     1      -6.184  20.845  68.425  1.00  0.00    -0.327 C  
HETATM    5  C   UNL     1      -7.476  17.169  66.861  1.00  0.00    -0.204 C  
HETATM    6  N   UNL     1      -7.021  18.437  67.164  1.00  0.00    -0.197 N  
HETATM    7  O   UNL     1      -6.777  16.164  66.970  1.00  0.00    -0.196 OA 
HETATM    8  C   UNL     1      -7.386  20.876  67.502  1.00  0.00    -0.334 C  
HETATM    9  N   UNL     1      -9.095  19.418  66.685  1.00  0.00    -0.329 NA 
HETATM   10  C   UNL     1      -5.678  18.530  67.720  1.00  0.00    -0.167 C  
HETATM   11  C   UNL     1      -5.128  19.943  67.817  1.00  0.00    -0.180 C  
HETATM   12  C   UNL     1      -7.880  19.500  67.112  1.00  0.00    -0.258 C  
ENDROOT
BRANCH   3  13
HETATM   13  C   UNL     1      -9.283  15.660  65.958  1.00  0.00    -0.374 C  
BRANCH  13  14
HETATM   14  C   UNL     1      -8.660  14.520  66.813  1.00  0.00    -0.131 C  
BRANCH  14  15
HETATM   15  N   UNL     1      -9.555  13.926  67.821  1.00  0.00    -0.216 NA 
HETATM   16  C   UNL     1     -11.083  15.977  69.408  1.00  0.00    -0.331 C  
HETATM   17  C   UNL     1      -9.568  15.753  69.507  1.00  0.00    -0.262 C  
HETATM   18  C   UNL     1      -9.238  14.296  69.199  1.00  0.00     0.142 C  
HETATM   19  C   UNL     1     -11.568  15.511  68.026  1.00  0.00    -0.276 C  
HETATM   20  C   UNL     1     -10.987  14.166  67.548  1.00  0.00    -0.283 C  
BRANCH  16  21
HETATM   21  C   UNL     1     -11.737  15.366  70.623  1.00  0.00    -0.339 A  
HETATM   22  N   UNL     1     -12.371  16.100  71.548  1.00  0.00    -0.361 NA 
HETATM   23  O   UNL     1     -13.135  15.203  72.282  1.00  0.00    -0.316 OA 
HETATM   24  C   UNL     1     -12.934  13.941  71.817  1.00  0.00    -0.358 A  
HETATM   25  C   UNL     1     -11.984  13.975  70.811  1.00  0.00    -0.364 A  
HETATM   26  C   UNL     1     -11.607  12.771  70.188  1.00  0.00    -0.130 A  
HETATM   27  C   UNL     1     -12.229  11.586  70.600  1.00  0.00    -0.473 A  
HETATM   28  C   UNL     1     -13.209  11.610  71.591  1.00  0.00    -0.272 A  
HETATM   29  C   UNL     1     -13.589  12.787  72.236  1.00  0.00    -0.563 A  
HETATM   30  F   UNL     1     -13.813  10.462  71.926  1.00  0.00    -0.297 F  
ENDBRANCH  16  21
ENDBRANCH  14  15
ENDBRANCH  13  14
ENDBRANCH   3  13
TORSDOF 4
ENDMDL
MODEL      164
REMARK 921   NORMALIZED FREE ENERGY PREDICTED BY IDOCK:   -4.37 KCAL/MOL
REMARK 922        TOTAL FREE ENERGY PREDICTED BY IDOCK:   -6.13 KCAL/MOL
REMARK 923 INTER-LIGAND FREE ENERGY PREDICTED BY IDOCK:   -5.53 KCAL/MOL
REMARK 924 INTRA-LIGAND FREE ENERGY PREDICTED BY IDOCK:   -0.60 KCAL/MOL
REMARK 927      BINDING AFFINITY PREDICTED BY RF-SCORE:    0.00 PKD
ROOT
HETATM    1  C   UNL     1     -12.733  10.371  71.706  1.00  0.00    -0.525 C  
HETATM    2  C   UNL     1     -11.973  11.167  70.677  1.00  0.00    -0.360 C  
HETATM    3  C   UNL     1     -10.948  10.700  69.936  1.00  0.00    -0.337 C  
HETATM    4  C   UNL     1     -11.599  15.655  69.003  1.00  0.00    -0.396 C  
HETATM    5  C   UNL     1     -10.365  11.642  68.941  1.00  0.00    -0.153 C  
HETATM    6  N   UNL     1     -10.947  12.891  68.846  1.00  0.00    -0.244 N  
HETATM    7  O   UNL     1      -9.416  11.292  68.243  1.00  0.00    -0.175 OA 
HETATM    8  C   UNL     1     -12.527  14.642  69.642  1.00  0.00    -0.197 C  
HETATM    9  N   UNL     1     -12.457  12.444  70.581  1.00  0.00    -0.284 NA 
HETATM   10  C   UNL     1     -10.317  13.833  67.930  1.00  0.00    -0.244 C  
HETATM   11  C   UNL     1     -11.115  15.101  67.677  1.00  0.00    -0.318 C  
HETATM   12  C   UNL     1     -11.937  13.250  69.718  1.00  0.00    -0.324 C  
ENDROOT
BRANCH   3  13
HETATM   13  C   UNL     1     -10.341   9.318  69.919  1.00  0.00    -0.241 C  
BRANCH  13  14
HETATM   14  C   UNL     1     -11.049   8.309  68.971  1.00  0.00     0.258 C  
BRANCH  14  15
HETATM   15  N   UNL     1     -10.262   7.883  67.801  1.00  0.00    -0.202 NA 
HETATM   16  C   UNL     1      -9.202   5.076  68.042  1.00  0.00    -0.139 C  
HETATM   17  C   UNL     1      -8.725   6.261  68.892  1.00  0.00    -0.125 C  
HETATM   18  C   UNL     1      -8.868   7.557  68.101  1.00  0.00    -0.127 C  
HETATM   19  C   UNL     1     -10.635   5.351  67.560  1.00  0.00    -0.204 C  
HETATM   20  C   UNL     1     -10.888   6.782  67.042  1.00  0.00    -0.383 C  
BRANCH  16  21
HETATM   21  C   UNL     1      -8.154   4.785  66.996  1.00  0.00    -0.106 A  
HETATM   22  N   UNL     1      -6.840   4.859  67.250  1.00  0.00    -0.055 NA 
HETATM   23  O   UNL     1      -6.217   4.186  66.207  1.00  0.00    -0.030 OA 
HETATM   24  C   UNL     1      -7.151   3.742  65.324  1.00  0.00    -0.066 A  
HETATM   25  C   UNL     1      -8.401   4.170  65.734  1.00  0.00    -0.109 A  
HETATM   26  C   UNL     1      -9.526   3.835  64.958  1.00  0.00    -0.167 A  
HETATM   27  C   UNL     1      -9.332   3.059  63.808  1.00  0.00    -0.105 A  
HETATM   28  C   UNL     1      -8.056   2.619  63.459  1.00  0.00    -0.081 A  
HETATM   29  C   UNL     1      -6.924   2.952  64.201  1.00  0.00    -0.041 A  
HETATM   30  F   UNL     1      -7.918   1.841  62.377  1.00  0.00    -0.048 F  
ENDBRANCH  16  21
ENDBRANCH  14  15
ENDBRANCH  13  14
ENDBRANCH   3  13
TORSDOF 4
ENDMDL
MODEL      165
REMARK 921   NORMALIZED FREE ENERGY PREDICTED BY IDOCK:   -4.37 KCAL/MOL
REMARK 922        TOTAL FREE ENERGY PREDICTED BY IDOCK:   -6.13 KCAL/MOL
REMARK 923 INTER-LIGAND FREE ENERGY PREDICTED BY IDOCK:   -5.63 KCAL/MOL
REMARK 924 INTRA-LIGAND FREE ENERGY PREDICTED BY IDOCK:   -0.50 KCAL/MOL
REMARK 927      BINDING AFFINITY PREDICTED BY RF-SCORE:    0.00 PKD
ROOT
HETATM    1  C   UNL     1     -10.375  11.932  65.318  1.00  0.00    -0.316 C  
HETATM    2  C   UNL     1     -10.610  13.032  66.321  1.00  0.00    -0.271 C  
HETATM    3  C   UNL     1     -11.099  12.858  67.564  1.00  0.00    -0.302 C  
HETATM    4  C   UNL     1     -10.532  17.825  66.642  1.00  0.00    -0.300 C  
HETATM    5  C   UNL     1     -11.209  14.079  68.411  1.00  0.00    -0.266 C  
HETATM    6  N   UNL     1     -10.770  15.266  67.858  1.00  0.00    -0.268 N  
HETATM    7  O   UNL     1     -11.664  13.999  69.550  1.00  0.00    -0.273 OA 
HETATM    8  C   UNL     1      -9.943  16.619  65.940  1.00  0.00    -0.320 C  
HETATM    9  N   UNL     1     -10.259  14.253  65.808  1.00  0.00    -0.319 NA 
HETATM   10  C   UNL     1     -10.959  16.466  68.662  1.00  0.00    -0.345 C  
HETATM   11  C   UNL     1     -10.259  17.704  68.129  1.00  0.00    -0.371 C  
HETATM   12  C   UNL     1     -10.365  15.301  66.553  1.00  0.00    -0.286 C  
ENDROOT
BRANCH   3  13
HETATM   13  C   UNL     1     -11.492  11.578  68.259  1.00  0.00    -0.368 C  
BRANCH  13  14
HETATM   14  C   UNL     1     -10.314  10.604  68.544  1.00  0.00    -0.183 C  
BRANCH  14  15
HETATM   15  N   UNL     1     -10.653   9.172  68.495  1.00  0.00    -0.199 NA 
HETATM   16  C   UNL     1      -9.455   7.590  70.758  1.00  0.00    -0.163 C  
HETATM   17  C   UNL     1      -8.648   8.221  69.617  1.00  0.00    -0.129 C  
HETATM   18  C   UNL     1      -9.500   8.285  68.353  1.00  0.00    -0.139 C  
HETATM   19  C   UNL     1     -10.767   8.370  70.935  1.00  0.00    -0.260 C  
HETATM   20  C   UNL     1     -11.496   8.729  69.625  1.00  0.00     0.306 C  
BRANCH  16  21
HETATM   21  C   UNL     1      -9.551   6.104  70.511  1.00  0.00    -0.168 A  
HETATM   22  N   UNL     1     -10.718   5.479  70.304  1.00  0.00    -0.290 NA 
HETATM   23  O   UNL     1     -10.394   4.243  69.762  1.00  0.00     0.069 OA 
HETATM   24  C   UNL     1      -9.042   4.121  69.676  1.00  0.00    -0.119 A  
HETATM   25  C   UNL     1      -8.450   5.247  70.220  1.00  0.00    -0.111 A  
HETATM   26  C   UNL     1      -7.045   5.333  70.249  1.00  0.00    -0.057 A  
HETATM   27  C   UNL     1      -6.304   4.278  69.704  1.00  0.00    -0.028 A  
HETATM   28  C   UNL     1      -6.949   3.182  69.132  1.00  0.00    -0.041 A  
HETATM   29  C   UNL     1      -8.338   3.065  69.105  1.00  0.00    -0.086 A  
HETATM   30  F   UNL     1      -6.204   2.214  68.580  1.00  0.00    -0.023 F  
ENDBRANCH  16  21
ENDBRANCH  14  15
ENDBRANCH  13  14
ENDBRANCH   3  13
TORSDOF 4
ENDMDL
MODEL      166
REMARK 921   NORMALIZED FREE ENERGY PREDICTED BY IDOCK:   -4.33 KCAL/MOL
REMARK 922        TOTAL FREE ENERGY PREDICTED BY IDOCK:   -6.08 KCAL/MOL
REMARK 923 INTER-LIGAND FREE ENERGY PREDICTED BY IDOCK:   -7.78 KCAL/MOL
REMARK 924 INTRA-LIGAND FREE ENERGY PREDICTED BY IDOCK:    1.71 KCAL/MOL
REMARK 927      BINDING AFFINITY PREDICTED BY RF-SCORE:    0.00 PKD
ROOT
HETATM    1  C   UNL     1      -6.998  13.853  67.564  1.00  0.00    -0.162 C  
HETATM    2  C   UNL     1      -8.024  14.824  67.040  1.00  0.00    -0.104 C  
HETATM    3  C   UNL     1      -9.207  14.484  66.492  1.00  0.00    -0.282 C  
HETATM    4  C   UNL     1      -8.572  19.517  66.167  1.00  0.00    -0.326 C  
HETATM    5  C   UNL     1     -10.095  15.606  66.079  1.00  0.00    -0.333 C  
HETATM    6  N   UNL     1      -9.641  16.886  66.325  1.00  0.00    -0.276 N  
HETATM    7  O   UNL     1     -11.182  15.370  65.555  1.00  0.00    -0.310 OA 
HETATM    8  C   UNL     1      -7.874  18.489  67.033  1.00  0.00    -0.236 C  
HETATM    9  N   UNL     1      -7.603  16.119  67.191  1.00  0.00    -0.180 NA 
HETATM   10  C   UNL     1     -10.478  17.977  65.842  1.00  0.00    -0.264 C  
HETATM   11  C   UNL     1     -10.070  19.355  66.334  1.00  0.00    -0.532 C  
HETATM   12  C   UNL     1      -8.382  17.079  66.823  1.00  0.00    -0.234 C  
ENDROOT
BRANCH   3  13
HETATM   13  C   UNL     1      -9.803  13.110  66.296  1.00  0.00    -0.284 C  
BRANCH  13  14
HETATM   14  C   UNL     1      -8.809  11.934  66.510  1.00  0.00    -0.178 C  
BRANCH  14  15
HETATM   15  N   UNL     1      -9.103  11.062  67.660  1.00  0.00    -0.144 NA 
HETATM   16  C   UNL     1     -11.808  11.572  68.877  1.00  0.00    -0.406 C  
HETATM   17  C   UNL     1     -10.627  12.549  68.944  1.00  0.00    -0.152 C  
HETATM   18  C   UNL     1      -9.312  11.776  68.919  1.00  0.00     0.090 C  
HETATM   19  C   UNL     1     -11.643  10.671  67.644  1.00  0.00     0.020 C  
HETATM   20  C   UNL     1     -10.219  10.126  67.417  1.00  0.00    -0.218 C  
BRANCH  16  21
HETATM   21  C   UNL     1     -11.949  10.901  70.222  1.00  0.00    -0.361 A  
HETATM   22  N   UNL     1     -12.611  11.461  71.243  1.00  0.00    -0.394 NA 
HETATM   23  O   UNL     1     -12.843  10.435  72.150  1.00  0.00    -0.392 OA 
HETATM   24  C   UNL     1     -12.297   9.280  71.686  1.00  0.00    -0.372 A  
HETATM   25  C   UNL     1     -11.637   9.537  70.496  1.00  0.00    -0.316 A  
HETATM   26  C   UNL     1     -10.982   8.480  69.837  1.00  0.00    -0.165 A  
HETATM   27  C   UNL     1     -11.043   7.202  70.407  1.00  0.00    -0.309 A  
HETATM   28  C   UNL     1     -11.754   6.988  71.587  1.00  0.00    -0.297 A  
HETATM   29  C   UNL     1     -12.398   8.020  72.268  1.00  0.00    -0.336 A  
HETATM   30  F   UNL     1     -11.827   5.742  72.076  1.00  0.00    -0.330 F  
ENDBRANCH  16  21
ENDBRANCH  14  15
ENDBRANCH  13  14
ENDBRANCH   3  13
TORSDOF 4
ENDMDL
MODEL      167
REMARK 921   NORMALIZED FREE ENERGY PREDICTED BY IDOCK:   -4.31 KCAL/MOL
REMARK 922        TOTAL FREE ENERGY PREDICTED BY IDOCK:   -6.05 KCAL/MOL
REMARK 923 INTER-LIGAND FREE ENERGY PREDICTED BY IDOCK:   -6.88 KCAL/MOL
REMARK 924 INTRA-LIGAND FREE ENERGY PREDICTED BY IDOCK:    0.83 KCAL/MOL
REMARK 927      BINDING AFFINITY PREDICTED BY RF-SCORE:    0.00 PKD
ROOT
HETATM    1  C   UNL     1     -12.128  13.259  66.602  1.00  0.00    -0.421 C  
HETATM    2  C   UNL     1     -10.910  14.067  66.970  1.00  0.00    -0.290 C  
HETATM    3  C   UNL     1      -9.642  13.612  66.955  1.00  0.00    -0.262 C  
HETATM    4  C   UNL     1      -9.722  18.345  68.807  1.00  0.00    -0.369 C  
HETATM    5  C   UNL     1      -8.580  14.593  67.310  1.00  0.00    -0.214 C  
HETATM    6  N   UNL     1      -8.986  15.883  67.590  1.00  0.00    -0.189 N  
HETATM    7  O   UNL     1      -7.402  14.243  67.335  1.00  0.00    -0.181 OA 
HETATM    8  C   UNL     1     -10.756  17.583  68.002  1.00  0.00    -0.342 C  
HETATM    9  N   UNL     1     -11.252  15.344  67.326  1.00  0.00    -0.308 NA 
HETATM   10  C   UNL     1      -7.951  16.813  68.018  1.00  0.00    -0.178 C  
HETATM   11  C   UNL     1      -8.391  18.265  68.087  1.00  0.00    -0.296 C  
HETATM   12  C   UNL     1     -10.320  16.181  67.637  1.00  0.00    -0.288 C  
ENDROOT
BRANCH   3  13
HETATM   13  C   UNL     1      -9.127  12.250  66.556  1.00  0.00    -0.188 C  
BRANCH  13  14
HETATM   14  C   UNL     1     -10.224  11.250  66.093  1.00  0.00    -0.245 C  
BRANCH  14  15
HETATM   15  N   UNL     1     -10.240   9.959  66.802  1.00  0.00    -0.233 NA 
HETATM   16  C   UNL     1      -9.099  10.116  69.582  1.00  0.00    -0.195 C  
HETATM   17  C   UNL     1      -8.277  10.269  68.295  1.00  0.00    -0.115 C  
HETATM   18  C   UNL     1      -8.917   9.459  67.172  1.00  0.00    -0.130 C  
HETATM   19  C   UNL     1     -10.557  10.504  69.294  1.00  0.00    -0.265 C  
HETATM   20  C   UNL     1     -11.134   9.946  67.977  1.00  0.00    -0.158 C  
BRANCH  16  21
HETATM   21  C   UNL     1      -8.838   8.744  70.155  1.00  0.00    -0.154 A  
HETATM   22  N   UNL     1      -7.604   8.244  70.301  1.00  0.00    -0.070 NA 
HETATM   23  O   UNL     1      -7.732   7.168  71.170  1.00  0.00    -0.088 OA 
HETATM   24  C   UNL     1      -9.039   7.011  71.513  1.00  0.00    -0.139 A  
HETATM   25  C   UNL     1      -9.803   7.938  70.827  1.00  0.00    -0.188 A  
HETATM   26  C   UNL     1     -11.197   7.951  71.020  1.00  0.00    -0.288 A  
HETATM   27  C   UNL     1     -11.751   7.032  71.920  1.00  0.00    -0.333 A  
HETATM   28  C   UNL     1     -10.933   6.144  72.617  1.00  0.00    -0.256 A  
HETATM   29  C   UNL     1      -9.552   6.099  72.432  1.00  0.00    -0.159 A  
HETATM   30  F   UNL     1     -11.497   5.311  73.503  1.00  0.00    -0.339 F  
ENDBRANCH  16  21
ENDBRANCH  14  15
ENDBRANCH  13  14
ENDBRANCH   3  13
TORSDOF 4
ENDMDL
MODEL      168
REMARK 921   NORMALIZED FREE ENERGY PREDICTED BY IDOCK:   -4.28 KCAL/MOL
REMARK 922        TOTAL FREE ENERGY PREDICTED BY IDOCK:   -6.02 KCAL/MOL
REMARK 923 INTER-LIGAND FREE ENERGY PREDICTED BY IDOCK:   -5.90 KCAL/MOL
REMARK 924 INTRA-LIGAND FREE ENERGY PREDICTED BY IDOCK:   -0.12 KCAL/MOL
REMARK 927      BINDING AFFINITY PREDICTED BY RF-SCORE:    0.00 PKD
ROOT
HETATM    1  C   UNL     1     -12.583   8.666  72.138  1.00  0.00    -0.451 C  
HETATM    2  C   UNL     1     -11.453   9.204  71.299  1.00  0.00    -0.335 C  
HETATM    3  C   UNL     1     -10.142   9.029  71.557  1.00  0.00    -0.409 C  
HETATM    4  C   UNL     1     -10.684  12.100  67.543  1.00  0.00    -0.265 C  
HETATM    5  C   UNL     1      -9.188   9.607  70.571  1.00  0.00    -0.152 C  
HETATM    6  N   UNL     1      -9.731  10.238  69.470  1.00  0.00    -0.228 N  
HETATM    7  O   UNL     1      -7.977   9.503  70.752  1.00  0.00    -0.251 OA 
HETATM    8  C   UNL     1     -11.666  11.149  68.196  1.00  0.00    -0.304 C  
HETATM    9  N   UNL     1     -11.926   9.904  70.221  1.00  0.00    -0.189 NA 
HETATM   10  C   UNL     1      -8.792  10.873  68.555  1.00  0.00    -0.153 C  
HETATM   11  C   UNL     1      -9.402  11.347  67.247  1.00  0.00    -0.173 C  
HETATM   12  C   UNL     1     -11.086  10.404  69.379  1.00  0.00    -0.254 C  
ENDROOT
BRANCH   3  13
HETATM   13  C   UNL     1      -9.490   8.260  72.681  1.00  0.00    -0.354 C  
BRANCH  13  14
HETATM   14  C   UNL     1      -9.189   6.770  72.360  1.00  0.00    -0.134 C  
BRANCH  14  15
HETATM   15  N   UNL     1      -9.187   6.421  70.928  1.00  0.00    -0.157 NA 
HETATM   16  C   UNL     1      -8.606   3.513  70.415  1.00  0.00    -0.107 C  
HETATM   17  C   UNL     1      -7.583   4.521  70.956  1.00  0.00    -0.064 C  
HETATM   18  C   UNL     1      -7.906   5.917  70.434  1.00  0.00    -0.105 C  
HETATM   19  C   UNL     1     -10.021   3.995  70.772  1.00  0.00    -0.158 C  
HETATM   20  C   UNL     1     -10.276   5.499  70.547  1.00  0.00    -0.242 C  
BRANCH  16  21
HETATM   21  C   UNL     1      -8.299   3.254  68.960  1.00  0.00    -0.060 A  
HETATM   22  N   UNL     1      -7.454   2.295  68.559  1.00  0.00    -0.047 NA 
HETATM   23  O   UNL     1      -7.704   2.114  67.205  1.00  0.00    -0.063 OA 
HETATM   24  C   UNL     1      -8.668   2.982  66.797  1.00  0.00    -0.129 A  
HETATM   25  C   UNL     1      -9.025   3.794  67.859  1.00  0.00    -0.158 A  
HETATM   26  C   UNL     1     -10.007   4.783  67.662  1.00  0.00    -0.178 A  
HETATM   27  C   UNL     1     -10.598   4.890  66.396  1.00  0.00    -0.276 A  
HETATM   28  C   UNL     1     -10.231   4.021  65.370  1.00  0.00    -0.112 A  
HETATM   29  C   UNL     1      -9.250   3.043  65.534  1.00  0.00    -0.135 A  
HETATM   30  F   UNL     1     -10.852   4.125  64.187  1.00  0.00    -0.259 F  
ENDBRANCH  16  21
ENDBRANCH  14  15
ENDBRANCH  13  14
ENDBRANCH   3  13
TORSDOF 4
ENDMDL
MODEL      169
REMARK 921   NORMALIZED FREE ENERGY PREDICTED BY IDOCK:   -4.26 KCAL/MOL
REMARK 922        TOTAL FREE ENERGY PREDICTED BY IDOCK:   -6.00 KCAL/MOL
REMARK 923 INTER-LIGAND FREE ENERGY PREDICTED BY IDOCK:   -7.01 KCAL/MOL
REMARK 924 INTRA-LIGAND FREE ENERGY PREDICTED BY IDOCK:    1.01 KCAL/MOL
REMARK 927      BINDING AFFINITY PREDICTED BY RF-SCORE:    0.00 PKD
ROOT
HETATM    1  C   UNL     1      -8.834   4.084  67.418  1.00  0.00    -0.132 C  
HETATM    2  C   UNL     1      -9.346   4.244  68.826  1.00  0.00    -0.153 C  
HETATM    3  C   UNL     1      -9.854   5.380  69.344  1.00  0.00    -0.252 C  
HETATM    4  C   UNL     1      -9.577   1.836  72.978  1.00  0.00    -0.116 C  
HETATM    5  C   UNL     1     -10.347   5.308  70.747  1.00  0.00    -0.239 C  
HETATM    6  N   UNL     1     -10.270   4.081  71.376  1.00  0.00    -0.070 N  
HETATM    7  O   UNL     1     -10.806   6.310  71.290  1.00  0.00    -0.244 OA 
HETATM    8  C   UNL     1      -9.529   1.706  71.469  1.00  0.00    -0.185 C  
HETATM    9  N   UNL     1      -9.233   3.074  69.530  1.00  0.00    -0.136 NA 
HETATM   10  C   UNL     1     -10.677   4.040  72.774  1.00  0.00    -0.095 C  
HETATM   11  C   UNL     1     -10.802   2.643  73.358  1.00  0.00    -0.293 C  
HETATM   12  C   UNL     1      -9.661   3.030  70.747  1.00  0.00    -0.133 C  
ENDROOT
BRANCH   3  13
HETATM   13  C   UNL     1     -10.063   6.717  68.675  1.00  0.00    -0.169 C  
BRANCH  13  14
HETATM   14  C   UNL     1     -10.567   7.844  69.620  1.00  0.00    -0.234 C  
BRANCH  14  15
HETATM   15  N   UNL     1      -9.883   9.141  69.476  1.00  0.00    -0.172 NA 
HETATM   16  C   UNL     1     -11.499  11.175  67.957  1.00  0.00    -0.366 C  
HETATM   17  C   UNL     1     -10.883   9.915  67.335  1.00  0.00    -0.293 C  
HETATM   18  C   UNL     1      -9.615   9.530  68.093  1.00  0.00    -0.137 C  
HETATM   19  C   UNL     1     -11.724  10.934  69.457  1.00  0.00    -0.400 C  
HETATM   20  C   UNL     1     -10.557  10.242  70.192  1.00  0.00    -0.246 C  
BRANCH  16  21
HETATM   21  C   UNL     1     -10.661  12.364  67.555  1.00  0.00    -0.219 A  
HETATM   22  N   UNL     1      -9.804  12.330  66.526  1.00  0.00    -0.224 NA 
HETATM   23  O   UNL     1      -9.509  13.656  66.236  1.00  0.00    -0.260 OA 
HETATM   24  C   UNL     1     -10.162  14.471  67.107  1.00  0.00    -0.260 A  
HETATM   25  C   UNL     1     -10.847  13.697  68.027  1.00  0.00    -0.261 A  
HETATM   26  C   UNL     1     -11.589  14.334  69.038  1.00  0.00    -0.342 A  
HETATM   27  C   UNL     1     -11.620  15.734  69.057  1.00  0.00    -0.406 A  
HETATM   28  C   UNL     1     -10.944  16.469  68.084  1.00  0.00    -0.336 A  
HETATM   29  C   UNL     1     -10.189  15.863  67.082  1.00  0.00    -0.278 A  
HETATM   30  F   UNL     1     -11.036  17.806  68.110  1.00  0.00    -0.356 F  
ENDBRANCH  16  21
ENDBRANCH  14  15
ENDBRANCH  13  14
ENDBRANCH   3  13
TORSDOF 4
ENDMDL
MODEL      170
REMARK 921   NORMALIZED FREE ENERGY PREDICTED BY IDOCK:   -4.26 KCAL/MOL
REMARK 922        TOTAL FREE ENERGY PREDICTED BY IDOCK:   -5.99 KCAL/MOL
REMARK 923 INTER-LIGAND FREE ENERGY PREDICTED BY IDOCK:   -5.92 KCAL/MOL
REMARK 924 INTRA-LIGAND FREE ENERGY PREDICTED BY IDOCK:   -0.07 KCAL/MOL
REMARK 927      BINDING AFFINITY PREDICTED BY RF-SCORE:    0.00 PKD
ROOT
HETATM    1  C   UNL     1     -10.734   9.283  70.804  1.00  0.00    -0.350 C  
HETATM    2  C   UNL     1      -9.879   8.548  69.804  1.00  0.00    -0.186 C  
HETATM    3  C   UNL     1      -8.579   8.802  69.559  1.00  0.00    -0.130 C  
HETATM    4  C   UNL     1     -10.252   5.254  66.326  1.00  0.00    -0.263 C  
HETATM    5  C   UNL     1      -7.907   7.924  68.561  1.00  0.00    -0.119 C  
HETATM    6  N   UNL     1      -8.666   6.914  68.004  1.00  0.00    -0.126 N  
HETATM    7  O   UNL     1      -6.727   8.110  68.273  1.00  0.00    -0.061 OA 
HETATM    8  C   UNL     1     -10.834   5.749  67.634  1.00  0.00    -0.264 C  
HETATM    9  N   UNL     1     -10.595   7.572  69.162  1.00  0.00    -0.217 NA 
HETATM   10  C   UNL     1      -8.026   6.115  66.968  1.00  0.00    -0.102 C  
HETATM   11  C   UNL     1      -8.801   4.877  66.551  1.00  0.00    -0.112 C  
HETATM   12  C   UNL     1      -9.999   6.824  68.296  1.00  0.00    -0.146 C  
ENDROOT
BRANCH   3  13
HETATM   13  C   UNL     1      -7.671   9.817  70.210  1.00  0.00    -0.187 C  
BRANCH  13  14
HETATM   14  C   UNL     1      -7.590  11.184  69.474  1.00  0.00     0.067 C  
BRANCH  14  15
HETATM   15  N   UNL     1      -8.630  11.416  68.457  1.00  0.00    -0.155 NA 
HETATM   16  C   UNL     1      -8.481  14.149  67.206  1.00  0.00    -0.228 C  
HETATM   17  C   UNL     1      -8.884  13.881  68.662  1.00  0.00    -0.076 C  
HETATM   18  C   UNL     1      -9.546  12.511  68.773  1.00  0.00     0.091 C  
HETATM   19  C   UNL     1      -7.599  12.993  66.710  1.00  0.00     0.451 C  
HETATM   20  C   UNL     1      -8.091  11.583  67.093  1.00  0.00    -0.159 C  
BRANCH  16  21
HETATM   21  C   UNL     1      -9.727  14.469  66.417  1.00  0.00    -0.296 A  
HETATM   22  N   UNL     1     -10.104  15.724  66.139  1.00  0.00    -0.295 NA 
HETATM   23  O   UNL     1     -11.043  15.620  65.122  1.00  0.00    -0.371 OA 
HETATM   24  C   UNL     1     -11.247  14.309  64.818  1.00  0.00    -0.385 A  
HETATM   25  C   UNL     1     -10.494  13.524  65.674  1.00  0.00    -0.296 A  
HETATM   26  C   UNL     1     -10.558  12.124  65.549  1.00  0.00    -0.314 A  
HETATM   27  C   UNL     1     -11.371  11.583  64.545  1.00  0.00    -0.250 A  
HETATM   28  C   UNL     1     -12.079  12.419  63.683  1.00  0.00    -0.556 A  
HETATM   29  C   UNL     1     -12.046  13.808  63.795  1.00  0.00    -0.385 A  
HETATM   30  F   UNL     1     -12.810  11.863  62.706  1.00  0.00    -0.500 F  
ENDBRANCH  16  21
ENDBRANCH  14  15
ENDBRANCH  13  14
ENDBRANCH   3  13
TORSDOF 4
ENDMDL
MODEL      171
REMARK 921   NORMALIZED FREE ENERGY PREDICTED BY IDOCK:   -4.24 KCAL/MOL
REMARK 922        TOTAL FREE ENERGY PREDICTED BY IDOCK:   -5.96 KCAL/MOL
REMARK 923 INTER-LIGAND FREE ENERGY PREDICTED BY IDOCK:   -5.27 KCAL/MOL
REMARK 924 INTRA-LIGAND FREE ENERGY PREDICTED BY IDOCK:   -0.69 KCAL/MOL
REMARK 927      BINDING AFFINITY PREDICTED BY RF-SCORE:    0.00 PKD
ROOT
HETATM    1  C   UNL     1      -9.645  15.101  68.053  1.00  0.00    -0.204 C  
HETATM    2  C   UNL     1      -8.586  16.172  68.005  1.00  0.00    -0.171 C  
HETATM    3  C   UNL     1      -7.274  15.978  68.245  1.00  0.00    -0.132 C  
HETATM    4  C   UNL     1      -8.154  20.934  67.537  1.00  0.00    -0.125 C  
HETATM    5  C   UNL     1      -6.389  17.167  68.099  1.00  0.00    -0.146 C  
HETATM    6  N   UNL     1      -6.986  18.346  67.700  1.00  0.00    -0.206 N  
HETATM    7  O   UNL     1      -5.184  17.068  68.320  1.00  0.00    -0.116 OA 
HETATM    8  C   UNL     1      -8.995  19.723  67.185  1.00  0.00    -0.405 C  
HETATM    9  N   UNL     1      -9.125  17.388  67.682  1.00  0.00    -0.232 NA 
HETATM   10  C   UNL     1      -6.128  19.522  67.642  1.00  0.00    -0.198 C  
HETATM   11  C   UNL     1      -6.758  20.735  66.980  1.00  0.00    -0.375 C  
HETATM   12  C   UNL     1      -8.346  18.410  67.564  1.00  0.00    -0.252 C  
ENDROOT
BRANCH   3  13
HETATM   13  C   UNL     1      -6.549  14.696  68.577  1.00  0.00    -0.095 C  
BRANCH  13  14
HETATM   14  C   UNL     1      -6.596  13.615  67.461  1.00  0.00    -0.107 C  
BRANCH  14  15
HETATM   15  N   UNL     1      -6.433  12.225  67.922  1.00  0.00    -0.077 NA 
HETATM   16  C   UNL     1      -8.862  10.518  67.432  1.00  0.00    -0.132 C  
HETATM   17  C   UNL     1      -8.800  11.669  68.444  1.00  0.00    -0.161 C  
HETATM   18  C   UNL     1      -7.374  11.823  68.966  1.00  0.00    -0.055 C  
HETATM   19  C   UNL     1      -7.823  10.764  66.328  1.00  0.00    -0.156 C  
HETATM   20  C   UNL     1      -6.441  11.238  66.824  1.00  0.00    -0.136 C  
BRANCH  16  21
HETATM   21  C   UNL     1      -8.788   9.213  68.187  1.00  0.00    -0.129 A  
HETATM   22  N   UNL     1      -7.711   8.416  68.148  1.00  0.00    -0.101 NA 
HETATM   23  O   UNL     1      -7.853   7.538  69.214  1.00  0.00    -0.113 OA 
HETATM   24  C   UNL     1      -9.021   7.791  69.864  1.00  0.00    -0.146 A  
HETATM   25  C   UNL     1      -9.701   8.796  69.199  1.00  0.00    -0.175 A  
HETATM   26  C   UNL     1     -10.951   9.216  69.691  1.00  0.00    -0.168 A  
HETATM   27  C   UNL     1     -11.445   8.609  70.852  1.00  0.00    -0.315 A  
HETATM   28  C   UNL     1     -10.703   7.627  71.508  1.00  0.00    -0.221 A  
HETATM   29  C   UNL     1      -9.471   7.182  71.032  1.00  0.00    -0.159 A  
HETATM   30  F   UNL     1     -11.191   7.103  72.640  1.00  0.00    -0.261 F  
ENDBRANCH  16  21
ENDBRANCH  14  15
ENDBRANCH  13  14
ENDBRANCH   3  13
TORSDOF 4
ENDMDL
MODEL      172
REMARK 921   NORMALIZED FREE ENERGY PREDICTED BY IDOCK:   -4.21 KCAL/MOL
REMARK 922        TOTAL FREE ENERGY PREDICTED BY IDOCK:   -5.94 KCAL/MOL
REMARK 923 INTER-LIGAND FREE ENERGY PREDICTED BY IDOCK:   -6.47 KCAL/MOL
REMARK 924 INTRA-LIGAND FREE ENERGY PREDICTED BY IDOCK:    0.53 KCAL/MOL
REMARK 927      BINDING AFFINITY PREDICTED BY RF-SCORE:    0.00 PKD
ROOT
HETATM    1  C   UNL     1     -10.696  12.600  67.700  1.00  0.00    -0.239 C  
HETATM    2  C   UNL     1     -11.334  12.081  68.962  1.00  0.00    -0.275 C  
HETATM    3  C   UNL     1     -12.041  12.823  69.837  1.00  0.00    -0.329 C  
HETATM    4  C   UNL     1     -11.534   8.098  71.641  1.00  0.00    -0.323 C  
HETATM    5  C   UNL     1     -12.627  12.100  71.000  1.00  0.00    -0.263 C  
HETATM    6  N   UNL     1     -12.421  10.736  71.057  1.00  0.00    -0.384 N  
HETATM    7  O   UNL     1     -13.269  12.716  71.848  1.00  0.00    -0.450 OA 
HETATM    8  C   UNL     1     -11.350   8.643  70.239  1.00  0.00    -0.146 C  
HETATM    9  N   UNL     1     -11.107  10.739  69.116  1.00  0.00    -0.229 NA 
HETATM   10  C   UNL     1     -12.925  10.051  72.240  1.00  0.00    -0.265 C  
HETATM   11  C   UNL     1     -12.890   8.535  72.159  1.00  0.00    -0.413 C  
HETATM   12  C   UNL     1     -11.617  10.129  70.132  1.00  0.00    -0.277 C  
ENDROOT
BRANCH   3  13
HETATM   13  C   UNL     1     -12.391  14.290  69.773  1.00  0.00    -0.342 C  
BRANCH  13  14
HETATM   14  C   UNL     1     -11.748  15.060  68.585  1.00  0.00    -0.337 C  
BRANCH  14  15
HETATM   15  N   UNL     1     -10.363  15.512  68.802  1.00  0.00    -0.211 NA 
HETATM   16  C   UNL     1      -9.956  18.431  68.190  1.00  0.00    -0.388 C  
HETATM   17  C   UNL     1     -10.251  17.355  67.136  1.00  0.00    -0.323 C  
HETATM   18  C   UNL     1      -9.697  16.011  67.600  1.00  0.00    -0.224 C  
HETATM   19  C   UNL     1     -10.510  17.968  69.546  1.00  0.00     0.437 C  
HETATM   20  C   UNL     1     -10.231  16.493  69.898  1.00  0.00     0.016 C  
BRANCH  16  21
HETATM   21  C   UNL     1      -8.491  18.785  68.114  1.00  0.00    -0.306 A  
HETATM   22  N   UNL     1      -7.559  18.168  68.853  1.00  0.00    -0.254 NA 
HETATM   23  O   UNL     1      -6.342  18.483  68.265  1.00  0.00    -0.196 OA 
HETATM   24  C   UNL     1      -6.546  19.308  67.202  1.00  0.00    -0.192 A  
HETATM   25  C   UNL     1      -7.894  19.603  67.111  1.00  0.00    -0.300 A  
HETATM   26  C   UNL     1      -8.338  20.456  66.083  1.00  0.00    -0.039 A  
HETATM   27  C   UNL     1      -7.391  20.956  65.180  1.00  0.00     0.427 A  
HETATM   28  C   UNL     1      -6.049  20.597  65.292  1.00  0.00    -0.246 A  
HETATM   29  C   UNL     1      -5.581  19.767  66.310  1.00  0.00    -0.173 A  
HETATM   30  F   UNL     1      -5.182  21.060  64.381  1.00  0.00    -0.220 F  
ENDBRANCH  16  21
ENDBRANCH  14  15
ENDBRANCH  13  14
ENDBRANCH   3  13
TORSDOF 4
ENDMDL
MODEL      173
REMARK 921   NORMALIZED FREE ENERGY PREDICTED BY IDOCK:   -4.18 KCAL/MOL
REMARK 922        TOTAL FREE ENERGY PREDICTED BY IDOCK:   -5.90 KCAL/MOL
REMARK 923 INTER-LIGAND FREE ENERGY PREDICTED BY IDOCK:   -6.24 KCAL/MOL
REMARK 924 INTRA-LIGAND FREE ENERGY PREDICTED BY IDOCK:    0.35 KCAL/MOL
REMARK 927      BINDING AFFINITY PREDICTED BY RF-SCORE:    0.00 PKD
ROOT
HETATM    1  C   UNL     1     -11.673  14.723  64.220  1.00  0.00    -0.272 C  
HETATM    2  C   UNL     1     -10.670  13.669  64.613  1.00  0.00    -0.421 C  
HETATM    3  C   UNL     1      -9.815  13.759  65.650  1.00  0.00    -0.216 C  
HETATM    4  C   UNL     1      -8.874   9.499  63.041  1.00  0.00    -0.242 C  
HETATM    5  C   UNL     1      -8.937  12.580  65.892  1.00  0.00     0.258 C  
HETATM    6  N   UNL     1      -9.101  11.495  65.054  1.00  0.00    -0.025 N  
HETATM    7  O   UNL     1      -8.119  12.599  66.809  1.00  0.00    -0.069 OA 
HETATM    8  C   UNL     1     -10.090  10.403  63.048  1.00  0.00     0.102 C  
HETATM    9  N   UNL     1     -10.733  12.588  63.774  1.00  0.00    -0.434 NA 
HETATM   10  C   UNL     1      -8.182  10.382  65.244  1.00  0.00    -0.162 C  
HETATM   11  C   UNL     1      -8.540   9.123  64.472  1.00  0.00    -0.198 C  
HETATM   12  C   UNL     1      -9.962  11.577  63.994  1.00  0.00    -0.303 C  
ENDROOT
BRANCH   3  13
HETATM   13  C   UNL     1      -9.663  14.869  66.663  1.00  0.00    -0.276 C  
BRANCH  13  14
HETATM   14  C   UNL     1     -11.002  15.489  67.152  1.00  0.00    -0.295 C  
BRANCH  14  15
HETATM   15  N   UNL     1     -11.435  15.075  68.497  1.00  0.00    -0.303 NA 
HETATM   16  C   UNL     1     -11.067  12.132  69.009  1.00  0.00    -0.290 C  
HETATM   17  C   UNL     1     -12.088  12.722  68.028  1.00  0.00    -0.174 C  
HETATM   18  C   UNL     1     -12.527  14.103  68.504  1.00  0.00     0.235 C  
HETATM   19  C   UNL     1      -9.907  13.125  69.182  1.00  0.00     0.410 C  
HETATM   20  C   UNL     1     -10.327  14.599  69.350  1.00  0.00    -0.122 C  
BRANCH  16  21
HETATM   21  C   UNL     1     -11.800  11.687  70.251  1.00  0.00    -0.326 A  
HETATM   22  N   UNL     1     -12.561  12.516  70.978  1.00  0.00    -0.326 NA 
HETATM   23  O   UNL     1     -13.341  11.701  71.788  1.00  0.00    -0.399 OA 
HETATM   24  C   UNL     1     -13.024  10.397  71.566  1.00  0.00    -0.458 A  
HETATM   25  C   UNL     1     -11.984  10.332  70.655  1.00  0.00    -0.436 A  
HETATM   26  C   UNL     1     -11.480   9.072  70.283  1.00  0.00    -0.147 A  
HETATM   27  C   UNL     1     -12.071   7.930  70.840  1.00  0.00    -0.181 A  
HETATM   28  C   UNL     1     -13.142   8.048  71.724  1.00  0.00    -0.336 A  
HETATM   29  C   UNL     1     -13.649   9.285  72.121  1.00  0.00    -0.536 A  
HETATM   30  F   UNL     1     -13.709   6.931  72.199  1.00  0.00    -0.302 F  
ENDBRANCH  16  21
ENDBRANCH  14  15
ENDBRANCH  13  14
ENDBRANCH   3  13
TORSDOF 4
ENDMDL
MODEL      174
REMARK 921   NORMALIZED FREE ENERGY PREDICTED BY IDOCK:   -4.14 KCAL/MOL
REMARK 922        TOTAL FREE ENERGY PREDICTED BY IDOCK:   -5.85 KCAL/MOL
REMARK 923 INTER-LIGAND FREE ENERGY PREDICTED BY IDOCK:   -5.61 KCAL/MOL
REMARK 924 INTRA-LIGAND FREE ENERGY PREDICTED BY IDOCK:   -0.24 KCAL/MOL
REMARK 927      BINDING AFFINITY PREDICTED BY RF-SCORE:    0.00 PKD
ROOT
HETATM    1  C   UNL     1      -6.066   6.295  69.154  1.00  0.00    -0.029 C  
HETATM    2  C   UNL     1      -7.242   5.838  69.977  1.00  0.00    -0.069 C  
HETATM    3  C   UNL     1      -8.297   6.604  70.316  1.00  0.00    -0.134 C  
HETATM    4  C   UNL     1      -8.708   2.062  72.561  1.00  0.00    -0.073 C  
HETATM    5  C   UNL     1      -9.377   5.940  71.098  1.00  0.00    -0.153 C  
HETATM    6  N   UNL     1      -9.213   4.597  71.375  1.00  0.00    -0.137 N  
HETATM    7  O   UNL     1     -10.361   6.582  71.458  1.00  0.00    -0.208 OA 
HETATM    8  C   UNL     1      -7.857   2.510  71.390  1.00  0.00    -0.044 C  
HETATM    9  N   UNL     1      -7.108   4.526  70.346  1.00  0.00    -0.044 NA 
HETATM   10  C   UNL     1     -10.231   3.977  72.212  1.00  0.00    -0.157 C  
HETATM   11  C   UNL     1     -10.146   2.463  72.298  1.00  0.00    -0.225 C  
HETATM   12  C   UNL     1      -8.050   3.967  71.029  1.00  0.00    -0.067 C  
ENDROOT
BRANCH   3  13
HETATM   13  C   UNL     1      -8.583   8.042  69.952  1.00  0.00    -0.135 C  
BRANCH  13  14
HETATM   14  C   UNL     1      -9.459   8.229  68.682  1.00  0.00    -0.147 C  
BRANCH  14  15
HETATM   15  N   UNL     1     -10.479   9.289  68.770  1.00  0.00    -0.211 NA 
HETATM   16  C   UNL     1      -9.733  11.782  67.258  1.00  0.00    -0.188 C  
HETATM   17  C   UNL     1      -9.028  11.295  68.531  1.00  0.00    -0.166 C  
HETATM   18  C   UNL     1     -10.012  10.521  69.403  1.00  0.00    -0.196 C  
HETATM   19  C   UNL     1     -10.375  10.580  66.549  1.00  0.00    -0.294 C  
HETATM   20  C   UNL     1     -11.119   9.595  67.475  1.00  0.00     0.035 C  
BRANCH  16  21
HETATM   21  C   UNL     1     -10.627  12.942  67.621  1.00  0.00    -0.223 A  
HETATM   22  N   UNL     1     -11.648  12.826  68.480  1.00  0.00    -0.299 NA 
HETATM   23  O   UNL     1     -11.989  14.124  68.839  1.00  0.00    -0.333 OA 
HETATM   24  C   UNL     1     -11.196  15.006  68.174  1.00  0.00    -0.308 A  
HETATM   25  C   UNL     1     -10.363  14.310  67.316  1.00  0.00    -0.260 A  
HETATM   26  C   UNL     1      -9.458  15.026  66.511  1.00  0.00    -0.306 A  
HETATM   27  C   UNL     1      -9.425  16.421  66.630  1.00  0.00    -0.277 A  
HETATM   28  C   UNL     1     -10.258  17.073  67.539  1.00  0.00    -0.323 A  
HETATM   29  C   UNL     1     -11.174  16.388  68.335  1.00  0.00    -0.324 A  
HETATM   30  F   UNL     1     -10.164  18.405  67.655  1.00  0.00    -0.315 F  
ENDBRANCH  16  21
ENDBRANCH  14  15
ENDBRANCH  13  14
ENDBRANCH   3  13
TORSDOF 4
ENDMDL
MODEL      175
REMARK 921   NORMALIZED FREE ENERGY PREDICTED BY IDOCK:   -4.14 KCAL/MOL
REMARK 922        TOTAL FREE ENERGY PREDICTED BY IDOCK:   -5.85 KCAL/MOL
REMARK 923 INTER-LIGAND FREE ENERGY PREDICTED BY IDOCK:   -5.36 KCAL/MOL
REMARK 924 INTRA-LIGAND FREE ENERGY PREDICTED BY IDOCK:   -0.48 KCAL/MOL
REMARK 927      BINDING AFFINITY PREDICTED BY RF-SCORE:    0.00 PKD
ROOT
HETATM    1  C   UNL     1      -6.889   9.582  70.424  1.00  0.00    -0.101 C  
HETATM    2  C   UNL     1      -8.293   9.963  70.030  1.00  0.00    -0.168 C  
HETATM    3  C   UNL     1      -9.413   9.552  70.657  1.00  0.00    -0.277 C  
HETATM    4  C   UNL     1     -10.668  12.259  66.541  1.00  0.00    -0.279 C  
HETATM    5  C   UNL     1     -10.701  10.085  70.133  1.00  0.00    -0.307 C  
HETATM    6  N   UNL     1     -10.628  10.973  69.077  1.00  0.00    -0.216 N  
HETATM    7  O   UNL     1     -11.764   9.740  70.643  1.00  0.00    -0.272 OA 
HETATM    8  C   UNL     1      -9.360  12.168  67.301  1.00  0.00    -0.183 C  
HETATM    9  N   UNL     1      -8.295  10.792  68.940  1.00  0.00    -0.146 NA 
HETATM   10  C   UNL     1     -11.895  11.422  68.517  1.00  0.00    -0.294 C  
HETATM   11  C   UNL     1     -11.780  12.567  67.524  1.00  0.00    -0.439 C  
HETATM   12  C   UNL     1      -9.420  11.240  68.494  1.00  0.00    -0.191 C  
ENDROOT
BRANCH   3  13
HETATM   13  C   UNL     1      -9.551   8.673  71.877  1.00  0.00    -0.377 C  
BRANCH  13  14
HETATM   14  C   UNL     1      -9.732   7.160  71.571  1.00  0.00    -0.164 C  
BRANCH  14  15
HETATM   15  N   UNL     1      -8.862   6.623  70.510  1.00  0.00    -0.150 NA 
HETATM   16  C   UNL     1      -9.841   4.011  69.380  1.00  0.00    -0.115 C  
HETATM   17  C   UNL     1      -9.289   4.191  70.800  1.00  0.00    -0.223 C  
HETATM   18  C   UNL     1      -8.267   5.324  70.820  1.00  0.00    -0.110 C  
HETATM   19  C   UNL     1     -10.398   5.354  68.885  1.00  0.00    -0.260 C  
HETATM   20  C   UNL     1      -9.511   6.580  69.184  1.00  0.00    -0.135 C  
BRANCH  16  21
HETATM   21  C   UNL     1      -8.784   3.337  68.539  1.00  0.00    -0.103 A  
HETATM   22  N   UNL     1      -7.890   2.481  69.051  1.00  0.00    -0.049 NA 
HETATM   23  O   UNL     1      -7.349   1.806  67.964  1.00  0.00    -0.049 OA 
HETATM   24  C   UNL     1      -7.895   2.279  66.812  1.00  0.00    -0.071 A  
HETATM   25  C   UNL     1      -8.757   3.319  67.113  1.00  0.00    -0.134 A  
HETATM   26  C   UNL     1      -9.431   3.973  66.065  1.00  0.00    -0.186 A  
HETATM   27  C   UNL     1      -9.214   3.526  64.756  1.00  0.00    -0.142 A  
HETATM   28  C   UNL     1      -8.365   2.448  64.508  1.00  0.00    -0.087 A  
HETATM   29  C   UNL     1      -7.674   1.793  65.527  1.00  0.00    -0.071 A  
HETATM   30  F   UNL     1      -8.220   2.021  63.246  1.00  0.00    -0.068 F  
ENDBRANCH  16  21
ENDBRANCH  14  15
ENDBRANCH  13  14
ENDBRANCH   3  13
TORSDOF 4
ENDMDL
MODEL      176
REMARK 921   NORMALIZED FREE ENERGY PREDICTED BY IDOCK:   -4.13 KCAL/MOL
REMARK 922        TOTAL FREE ENERGY PREDICTED BY IDOCK:   -5.83 KCAL/MOL
REMARK 923 INTER-LIGAND FREE ENERGY PREDICTED BY IDOCK:   -5.47 KCAL/MOL
REMARK 924 INTRA-LIGAND FREE ENERGY PREDICTED BY IDOCK:   -0.36 KCAL/MOL
REMARK 927      BINDING AFFINITY PREDICTED BY RF-SCORE:    0.00 PKD
ROOT
HETATM    1  C   UNL     1     -11.586   9.389  69.840  1.00  0.00     0.028 C  
HETATM    2  C   UNL     1     -10.095   9.252  69.669  1.00  0.00    -0.197 C  
HETATM    3  C   UNL     1      -9.441   9.297  68.492  1.00  0.00    -0.150 C  
HETATM    4  C   UNL     1      -6.156   8.210  72.216  1.00  0.00    -0.050 C  
HETATM    5  C   UNL     1      -7.957   9.187  68.551  1.00  0.00    -0.102 C  
HETATM    6  N   UNL     1      -7.387   9.081  69.805  1.00  0.00    -0.055 N  
HETATM    7  O   UNL     1      -7.296   9.202  67.515  1.00  0.00    -0.083 OA 
HETATM    8  C   UNL     1      -7.551   8.800  72.272  1.00  0.00     0.037 C  
HETATM    9  N   UNL     1      -9.472   9.074  70.876  1.00  0.00    -0.244 NA 
HETATM   10  C   UNL     1      -5.944   8.889  69.849  1.00  0.00    -0.031 C  
HETATM   11  C   UNL     1      -5.329   9.014  71.232  1.00  0.00    -0.040 C  
HETATM   12  C   UNL     1      -8.186   8.974  70.910  1.00  0.00    -0.185 C  
ENDROOT
BRANCH   3  13
HETATM   13  C   UNL     1      -9.996   9.518  67.105  1.00  0.00    -0.261 C  
BRANCH  13  14
HETATM   14  C   UNL     1      -9.760  10.942  66.529  1.00  0.00    -0.198 C  
BRANCH  14  15
HETATM   15  N   UNL     1     -10.286  12.049  67.348  1.00  0.00    -0.206 NA 
HETATM   16  C   UNL     1      -9.759  14.762  66.157  1.00  0.00    -0.338 C  
HETATM   17  C   UNL     1      -8.675  13.839  66.729  1.00  0.00    -0.108 C  
HETATM   18  C   UNL     1      -9.265  12.972  67.838  1.00  0.00    -0.208 C  
HETATM   19  C   UNL     1     -10.956  13.910  65.706  1.00  0.00    -0.285 C  
HETATM   20  C   UNL     1     -11.375  12.799  66.690  1.00  0.00    -0.316 C  
BRANCH  16  21
HETATM   21  C   UNL     1     -10.020  15.867  67.152  1.00  0.00    -0.240 A  
HETATM   22  N   UNL     1     -10.524  15.637  68.372  1.00  0.00    -0.237 NA 
HETATM   23  O   UNL     1     -10.279  16.791  69.104  1.00  0.00    -0.284 OA 
HETATM   24  C   UNL     1      -9.662  17.712  68.317  1.00  0.00    -0.315 A  
HETATM   25  C   UNL     1      -9.547  17.207  67.034  1.00  0.00    -0.262 A  
HETATM   26  C   UNL     1      -8.945  17.999  66.039  1.00  0.00     0.001 A  
HETATM   27  C   UNL     1      -8.467  19.266  66.398  1.00  0.00    -0.342 A  
HETATM   28  C   UNL     1      -8.571  19.713  67.714  1.00  0.00    -0.322 A  
HETATM   29  C   UNL     1      -9.178  18.955  68.715  1.00  0.00    -0.359 A  
HETATM   30  F   UNL     1      -8.061  20.912  68.028  1.00  0.00    -0.117 F  
ENDBRANCH  16  21
ENDBRANCH  14  15
ENDBRANCH  13  14
ENDBRANCH   3  13
TORSDOF 4
ENDMDL
MODEL      177
REMARK 921   NORMALIZED FREE ENERGY PREDICTED BY IDOCK:   -4.12 KCAL/MOL
REMARK 922        TOTAL FREE ENERGY PREDICTED BY IDOCK:   -5.82 KCAL/MOL
REMARK 923 INTER-LIGAND FREE ENERGY PREDICTED BY IDOCK:   -5.35 KCAL/MOL
REMARK 924 INTRA-LIGAND FREE ENERGY PREDICTED BY IDOCK:   -0.46 KCAL/MOL
REMARK 927      BINDING AFFINITY PREDICTED BY RF-SCORE:    0.00 PKD
ROOT
HETATM    1  C   UNL     1     -10.140   7.731  71.156  1.00  0.00    -0.206 C  
HETATM    2  C   UNL     1      -9.318   6.469  71.200  1.00  0.00    -0.163 C  
HETATM    3  C   UNL     1      -8.134   6.292  70.581  1.00  0.00    -0.113 C  
HETATM    4  C   UNL     1      -9.578   1.934  72.764  1.00  0.00    -0.136 C  
HETATM    5  C   UNL     1      -7.464   4.979  70.793  1.00  0.00    -0.069 C  
HETATM    6  N   UNL     1      -8.098   4.080  71.629  1.00  0.00    -0.076 N  
HETATM    7  O   UNL     1      -6.391   4.740  70.245  1.00  0.00    -0.024 OA 
HETATM    8  C   UNL     1     -10.047   3.356  72.997  1.00  0.00    -0.221 C  
HETATM    9  N   UNL     1      -9.927   5.507  71.960  1.00  0.00    -0.176 NA 
HETATM   10  C   UNL     1      -7.477   2.770  71.764  1.00  0.00    -0.041 C  
HETATM   11  C   UNL     1      -8.065   1.899  72.861  1.00  0.00    -0.053 C  
HETATM   12  C   UNL     1      -9.336   4.373  72.130  1.00  0.00    -0.130 C  
ENDROOT
BRANCH   3  13
HETATM   13  C   UNL     1      -7.343   7.270  69.747  1.00  0.00    -0.084 C  
BRANCH  13  14
HETATM   14  C   UNL     1      -7.787   7.364  68.260  1.00  0.00    -0.122 C  
BRANCH  14  15
HETATM   15  N   UNL     1      -9.035   8.109  68.020  1.00  0.00    -0.134 NA 
HETATM   16  C   UNL     1      -8.610  10.697  66.544  1.00  0.00    -0.143 C  
HETATM   17  C   UNL     1      -8.146  10.430  67.981  1.00  0.00    -0.110 C  
HETATM   18  C   UNL     1      -9.080   9.427  68.650  1.00  0.00    -0.132 C  
HETATM   19  C   UNL     1      -8.719   9.359  65.796  1.00  0.00    -0.183 C  
HETATM   20  C   UNL     1      -9.388   8.218  66.590  1.00  0.00    -0.192 C  
BRANCH  16  21
HETATM   21  C   UNL     1      -9.838  11.574  66.593  1.00  0.00    -0.202 A  
HETATM   22  N   UNL     1     -11.052  11.140  66.229  1.00  0.00    -0.179 NA 
HETATM   23  O   UNL     1     -11.953  12.062  66.744  1.00  0.00    -0.616 OA 
HETATM   24  C   UNL     1     -11.277  13.054  67.384  1.00  0.00    -0.288 A  
HETATM   25  C   UNL     1      -9.918  12.839  67.246  1.00  0.00    -0.219 A  
HETATM   26  C   UNL     1      -9.019  13.756  67.823  1.00  0.00    -0.194 A  
HETATM   27  C   UNL     1      -9.544  14.842  68.534  1.00  0.00    -0.218 A  
HETATM   28  C   UNL     1     -10.922  14.993  68.678  1.00  0.00    -0.257 A  
HETATM   29  C   UNL     1     -11.834  14.108  68.103  1.00  0.00    -0.387 A  
HETATM   30  F   UNL     1     -11.384  16.020  69.404  1.00  0.00    -0.284 F  
ENDBRANCH  16  21
ENDBRANCH  14  15
ENDBRANCH  13  14
ENDBRANCH   3  13
TORSDOF 4
ENDMDL
MODEL      178
REMARK 921   NORMALIZED FREE ENERGY PREDICTED BY IDOCK:   -4.08 KCAL/MOL
REMARK 922        TOTAL FREE ENERGY PREDICTED BY IDOCK:   -5.77 KCAL/MOL
REMARK 923 INTER-LIGAND FREE ENERGY PREDICTED BY IDOCK:   -6.62 KCAL/MOL
REMARK 924 INTRA-LIGAND FREE ENERGY PREDICTED BY IDOCK:    0.85 KCAL/MOL
REMARK 927      BINDING AFFINITY PREDICTED BY RF-SCORE:    0.00 PKD
ROOT
HETATM    1  C   UNL     1     -10.445   9.430  69.608  1.00  0.00    -0.236 C  
HETATM    2  C   UNL     1     -11.037  10.809  69.743  1.00  0.00    -0.281 C  
HETATM    3  C   UNL     1     -10.749  11.860  68.950  1.00  0.00    -0.236 C  
HETATM    4  C   UNL     1     -13.840  13.362  72.695  1.00  0.00    -0.448 C  
HETATM    5  C   UNL     1     -11.484  13.124  69.229  1.00  0.00    -0.291 C  
HETATM    6  N   UNL     1     -12.413  13.096  70.249  1.00  0.00    -0.217 N  
HETATM    7  O   UNL     1     -11.258  14.129  68.557  1.00  0.00    -0.238 OA 
HETATM    8  C   UNL     1     -13.526  11.975  72.173  1.00  0.00    -0.338 C  
HETATM    9  N   UNL     1     -11.921  10.869  70.787  1.00  0.00    -0.344 NA 
HETATM   10  C   UNL     1     -13.065  14.359  70.570  1.00  0.00    -0.145 C  
HETATM   11  C   UNL     1     -14.239  14.242  71.527  1.00  0.00    -0.386 C  
HETATM   12  C   UNL     1     -12.546  11.974  71.019  1.00  0.00    -0.273 C  
ENDROOT
BRANCH   3  13
HETATM   13  C   UNL     1      -9.827  11.923  67.756  1.00  0.00    -0.187 C  
BRANCH  13  14
HETATM   14  C   UNL     1      -8.460  12.613  68.026  1.00  0.00    -0.177 C  
BRANCH  14  15
HETATM   15  N   UNL     1      -8.505  14.083  68.124  1.00  0.00    -0.164 NA 
HETATM   16  C   UNL     1      -5.860  15.302  68.881  1.00  0.00    -0.097 C  
HETATM   17  C   UNL     1      -6.723  14.449  69.819  1.00  0.00    -0.124 C  
HETATM   18  C   UNL     1      -8.196  14.606  69.454  1.00  0.00     0.060 C  
HETATM   19  C   UNL     1      -6.180  14.927  67.426  1.00  0.00     0.101 C  
HETATM   20  C   UNL     1      -7.680  14.764  67.107  1.00  0.00    -0.116 C  
BRANCH  16  21
HETATM   21  C   UNL     1      -6.008  16.751  69.280  1.00  0.00    -0.180 A  
HETATM   22  N   UNL     1      -5.127  17.376  70.072  1.00  0.00    -0.175 NA 
HETATM   23  O   UNL     1      -5.376  18.733  69.917  1.00  0.00    -0.203 OA 
HETATM   24  C   UNL     1      -6.419  18.912  69.062  1.00  0.00    -0.276 A  
HETATM   25  C   UNL     1      -6.917  17.677  68.690  1.00  0.00    -0.237 A  
HETATM   26  C   UNL     1      -8.015  17.620  67.811  1.00  0.00    -0.218 A  
HETATM   27  C   UNL     1      -8.546  18.824  67.333  1.00  0.00    -0.289 A  
HETATM   28  C   UNL     1      -7.983  20.043  67.708  1.00  0.00    -0.289 A  
HETATM   29  C   UNL     1      -6.905  20.128  68.589  1.00  0.00    -0.301 A  
HETATM   30  F   UNL     1      -8.491  21.171  67.193  1.00  0.00    -0.321 F  
ENDBRANCH  16  21
ENDBRANCH  14  15
ENDBRANCH  13  14
ENDBRANCH   3  13
TORSDOF 4
ENDMDL
MODEL      179
REMARK 921   NORMALIZED FREE ENERGY PREDICTED BY IDOCK:   -4.08 KCAL/MOL
REMARK 922        TOTAL FREE ENERGY PREDICTED BY IDOCK:   -5.77 KCAL/MOL
REMARK 923 INTER-LIGAND FREE ENERGY PREDICTED BY IDOCK:   -5.65 KCAL/MOL
REMARK 924 INTRA-LIGAND FREE ENERGY PREDICTED BY IDOCK:   -0.13 KCAL/MOL
REMARK 927      BINDING AFFINITY PREDICTED BY RF-SCORE:    0.00 PKD
ROOT
HETATM    1  C   UNL     1      -9.230   2.009  65.651  1.00  0.00    -0.006 C  
HETATM    2  C   UNL     1      -8.673   3.376  65.347  1.00  0.00    -0.122 C  
HETATM    3  C   UNL     1      -9.247   4.544  65.697  1.00  0.00    -0.149 C  
HETATM    4  C   UNL     1      -5.128   5.459  62.862  1.00  0.00    -0.009 C  
HETATM    5  C   UNL     1      -8.503   5.783  65.337  1.00  0.00    -0.151 C  
HETATM    6  N   UNL     1      -7.284   5.621  64.709  1.00  0.00    -0.063 N  
HETATM    7  O   UNL     1      -8.975   6.885  65.609  1.00  0.00    -0.079 OA 
HETATM    8  C   UNL     1      -5.553   4.211  63.609  1.00  0.00    -0.013 C  
HETATM    9  N   UNL     1      -7.492   3.287  64.660  1.00  0.00    -0.074 NA 
HETATM   10  C   UNL     1      -6.605   6.838  64.285  1.00  0.00    -0.042 C  
HETATM   11  C   UNL     1      -5.174   6.636  63.816  1.00  0.00    -0.026 C  
HETATM   12  C   UNL     1      -6.863   4.371  64.350  1.00  0.00    -0.045 C  
ENDROOT
BRANCH   3  13
HETATM   13  C   UNL     1     -10.518   4.781  66.476  1.00  0.00    -0.251 C  
BRANCH  13  14
HETATM   14  C   UNL     1     -10.313   5.434  67.872  1.00  0.00    -0.160 C  
BRANCH  14  15
HETATM   15  N   UNL     1     -11.348   6.401  68.275  1.00  0.00    -0.178 NA 
HETATM   16  C   UNL     1     -10.323   8.532  70.136  1.00  0.00    -0.214 C  
HETATM   17  C   UNL     1     -10.475   7.052  70.510  1.00  0.00    -0.227 C  
HETATM   18  C   UNL     1     -11.617   6.430  69.712  1.00  0.00    -0.327 C  
HETATM   19  C   UNL     1     -10.149   8.649  68.614  1.00  0.00    -0.207 C  
HETATM   20  C   UNL     1     -11.100   7.768  67.777  1.00  0.00     0.257 C  
BRANCH  16  21
HETATM   21  C   UNL     1     -11.453   9.305  70.773  1.00  0.00    -0.292 A  
HETATM   22  N   UNL     1     -12.124   8.854  71.841  1.00  0.00    -0.348 NA 
HETATM   23  O   UNL     1     -12.802   9.953  72.352  1.00  0.00    -0.318 OA 
HETATM   24  C   UNL     1     -12.560  11.043  71.576  1.00  0.00    -0.356 A  
HETATM   25  C   UNL     1     -11.771  10.668  70.502  1.00  0.00    -0.451 A  
HETATM   26  C   UNL     1     -11.403  11.640  69.554  1.00  0.00    -0.328 A  
HETATM   27  C   UNL     1     -11.836  12.957  69.750  1.00  0.00    -0.380 A  
HETATM   28  C   UNL     1     -12.597  13.291  70.869  1.00  0.00    -0.306 A  
HETATM   29  C   UNL     1     -12.989  12.345  71.815  1.00  0.00    -0.422 A  
HETATM   30  F   UNL     1     -12.954  14.571  71.045  1.00  0.00    -0.358 F  
ENDBRANCH  16  21
ENDBRANCH  14  15
ENDBRANCH  13  14
ENDBRANCH   3  13
TORSDOF 4
ENDMDL
MODEL      180
REMARK 921   NORMALIZED FREE ENERGY PREDICTED BY IDOCK:   -4.04 KCAL/MOL
REMARK 922        TOTAL FREE ENERGY PREDICTED BY IDOCK:   -5.72 KCAL/MOL
REMARK 923 INTER-LIGAND FREE ENERGY PREDICTED BY IDOCK:   -5.22 KCAL/MOL
REMARK 924 INTRA-LIGAND FREE ENERGY PREDICTED BY IDOCK:   -0.49 KCAL/MOL
REMARK 927      BINDING AFFINITY PREDICTED BY RF-SCORE:    0.00 PKD
ROOT
HETATM    1  C   UNL     1     -10.821  15.484  66.997  1.00  0.00    -0.314 C  
HETATM    2  C   UNL     1      -9.438  15.951  67.371  1.00  0.00    -0.219 C  
HETATM    3  C   UNL     1      -8.354  15.159  67.481  1.00  0.00    -0.188 C  
HETATM    4  C   UNL     1      -7.147  19.891  68.893  1.00  0.00    -0.325 C  
HETATM    5  C   UNL     1      -7.069  15.833  67.817  1.00  0.00    -0.151 C  
HETATM    6  N   UNL     1      -7.100  17.207  67.952  1.00  0.00    -0.159 N  
HETATM    7  O   UNL     1      -6.043  15.171  67.951  1.00  0.00    -0.135 OA 
HETATM    8  C   UNL     1      -8.323  19.370  68.093  1.00  0.00    -0.363 C  
HETATM    9  N   UNL     1      -9.414  17.303  67.588  1.00  0.00    -0.244 NA 
HETATM   10  C   UNL     1      -5.859  17.848  68.364  1.00  0.00    -0.172 C  
HETATM   11  C   UNL     1      -5.867  19.365  68.273  1.00  0.00    -0.234 C  
HETATM   12  C   UNL     1      -8.294  17.872  67.884  1.00  0.00    -0.247 C  
ENDROOT
BRANCH   3  13
HETATM   13  C   UNL     1      -8.235  13.673  67.240  1.00  0.00    -0.164 C  
BRANCH  13  14
HETATM   14  C   UNL     1      -8.765  12.783  68.399  1.00  0.00    -0.119 C  
BRANCH  14  15
HETATM   15  N   UNL     1      -9.157  11.416  68.016  1.00  0.00    -0.164 NA 
HETATM   16  C   UNL     1      -7.325   9.300  69.123  1.00  0.00    -0.071 C  
HETATM   17  C   UNL     1      -6.929  10.311  68.039  1.00  0.00    -0.082 C  
HETATM   18  C   UNL     1      -8.157  10.703  67.222  1.00  0.00    -0.116 C  
HETATM   19  C   UNL     1      -8.467   9.889  69.965  1.00  0.00    -0.191 C  
HETATM   20  C   UNL     1      -9.583  10.585  69.160  1.00  0.00    -0.199 C  
BRANCH  16  21
HETATM   21  C   UNL     1      -7.558   7.961  68.465  1.00  0.00    -0.105 A  
HETATM   22  N   UNL     1      -6.805   7.513  67.452  1.00  0.00    -0.069 NA 
HETATM   23  O   UNL     1      -7.062   6.151  67.363  1.00  0.00    -0.067 OA 
HETATM   24  C   UNL     1      -7.986   5.798  68.297  1.00  0.00    -0.104 A  
HETATM   25  C   UNL     1      -8.402   6.931  68.974  1.00  0.00    -0.125 A  
HETATM   26  C   UNL     1      -9.372   6.804  69.986  1.00  0.00    -0.158 A  
HETATM   27  C   UNL     1      -9.862   5.526  70.279  1.00  0.00    -0.260 A  
HETATM   28  C   UNL     1      -9.381   4.410  69.595  1.00  0.00    -0.158 A  
HETATM   29  C   UNL     1      -8.433   4.510  68.578  1.00  0.00    -0.096 A  
HETATM   30  F   UNL     1      -9.842   3.199  69.937  1.00  0.00    -0.224 F  
ENDBRANCH  16  21
ENDBRANCH  14  15
ENDBRANCH  13  14
ENDBRANCH   3  13
TORSDOF 4
ENDMDL
MODEL      181
REMARK 921   NORMALIZED FREE ENERGY PREDICTED BY IDOCK:   -4.03 KCAL/MOL
REMARK 922        TOTAL FREE ENERGY PREDICTED BY IDOCK:   -5.71 KCAL/MOL
REMARK 923 INTER-LIGAND FREE ENERGY PREDICTED BY IDOCK:   -5.59 KCAL/MOL
REMARK 924 INTRA-LIGAND FREE ENERGY PREDICTED BY IDOCK:   -0.12 KCAL/MOL
REMARK 927      BINDING AFFINITY PREDICTED BY RF-SCORE:    0.00 PKD
ROOT
HETATM    1  C   UNL     1     -12.938  11.861  71.221  1.00  0.00    -0.334 C  
HETATM    2  C   UNL     1     -11.937  12.269  70.171  1.00  0.00    -0.298 C  
HETATM    3  C   UNL     1     -10.922  11.502  69.725  1.00  0.00    -0.055 C  
HETATM    4  C   UNL     1     -10.621  16.113  67.605  1.00  0.00    -0.315 C  
HETATM    5  C   UNL     1     -10.075  12.083  68.647  1.00  0.00    -0.160 C  
HETATM    6  N   UNL     1     -10.425  13.335  68.181  1.00  0.00    -0.238 N  
HETATM    7  O   UNL     1      -9.121  11.447  68.204  1.00  0.00    -0.160 OA 
HETATM    8  C   UNL     1     -11.775  15.422  68.304  1.00  0.00    -0.313 C  
HETATM    9  N   UNL     1     -12.186  13.536  69.714  1.00  0.00    -0.301 NA 
HETATM   10  C   UNL     1      -9.542  13.929  67.187  1.00  0.00    -0.247 C  
HETATM   11  C   UNL     1     -10.080  15.189  66.532  1.00  0.00    -0.279 C  
HETATM   12  C   UNL     1     -11.440  14.027  68.783  1.00  0.00    -0.292 C  
ENDROOT
BRANCH   3  13
HETATM   13  C   UNL     1     -10.557  10.091  70.116  1.00  0.00    -0.350 C  
BRANCH  13  14
HETATM   14  C   UNL     1     -10.614   9.059  68.954  1.00  0.00    -0.180 C  
BRANCH  14  15
HETATM   15  N   UNL     1      -9.531   8.061  68.942  1.00  0.00    -0.151 NA 
HETATM   16  C   UNL     1     -10.302   5.487  67.588  1.00  0.00    -0.256 C  
HETATM   17  C   UNL     1     -10.877   5.971  68.926  1.00  0.00    -0.400 C  
HETATM   18  C   UNL     1      -9.844   6.824  69.656  1.00  0.00    -0.165 C  
HETATM   19  C   UNL     1      -9.821   6.702  66.781  1.00  0.00    -0.227 C  
HETATM   20  C   UNL     1      -9.032   7.753  67.587  1.00  0.00    -0.127 C  
BRANCH  16  21
HETATM   21  C   UNL     1      -9.303   4.390  67.867  1.00  0.00    -0.149 A  
HETATM   22  N   UNL     1      -9.481   3.478  68.832  1.00  0.00    -0.164 NA 
HETATM   23  O   UNL     1      -8.586   2.454  68.554  1.00  0.00    -0.065 OA 
HETATM   24  C   UNL     1      -7.858   2.769  67.450  1.00  0.00    -0.069 A  
HETATM   25  C   UNL     1      -8.215   4.034  67.018  1.00  0.00    -0.100 A  
HETATM   26  C   UNL     1      -7.576   4.575  65.886  1.00  0.00    -0.086 A  
HETATM   27  C   UNL     1      -6.615   3.796  65.231  1.00  0.00    -0.044 A  
HETATM   28  C   UNL     1      -6.319   2.510  65.683  1.00  0.00    -0.024 A  
HETATM   29  C   UNL     1      -6.925   1.957  66.810  1.00  0.00    -0.043 A  
HETATM   30  F   UNL     1      -5.426   1.779  65.001  1.00  0.00    -0.004 F  
ENDBRANCH  16  21
ENDBRANCH  14  15
ENDBRANCH  13  14
ENDBRANCH   3  13
TORSDOF 4
ENDMDL
MODEL      182
REMARK 921   NORMALIZED FREE ENERGY PREDICTED BY IDOCK:   -4.03 KCAL/MOL
REMARK 922        TOTAL FREE ENERGY PREDICTED BY IDOCK:   -5.70 KCAL/MOL
REMARK 923 INTER-LIGAND FREE ENERGY PREDICTED BY IDOCK:   -5.31 KCAL/MOL
REMARK 924 INTRA-LIGAND FREE ENERGY PREDICTED BY IDOCK:   -0.39 KCAL/MOL
REMARK 927      BINDING AFFINITY PREDICTED BY RF-SCORE:    0.00 PKD
ROOT
HETATM    1  C   UNL     1      -5.644   6.133  64.231  1.00  0.00    -0.021 C  
HETATM    2  C   UNL     1      -6.793   7.091  64.408  1.00  0.00    -0.047 C  
HETATM    3  C   UNL     1      -7.791   6.951  65.303  1.00  0.00    -0.118 C  
HETATM    4  C   UNL     1      -8.710  10.992  62.360  1.00  0.00    -0.356 C  
HETATM    5  C   UNL     1      -8.805   8.040  65.343  1.00  0.00    -0.014 C  
HETATM    6  N   UNL     1      -8.615   9.105  64.485  1.00  0.00    -0.181 N  
HETATM    7  O   UNL     1      -9.753   7.970  66.122  1.00  0.00    -0.164 OA 
HETATM    8  C   UNL     1      -7.429  10.220  62.603  1.00  0.00    -0.148 C  
HETATM    9  N   UNL     1      -6.702   8.142  63.534  1.00  0.00    -0.075 NA 
HETATM   10  C   UNL     1      -9.656  10.123  64.472  1.00  0.00    -0.311 C  
HETATM   11  C   UNL     1      -9.302  11.383  63.700  1.00  0.00    -0.146 C  
HETATM   12  C   UNL     1      -7.592   9.074  63.578  1.00  0.00    -0.111 C  
ENDROOT
BRANCH   3  13
HETATM   13  C   UNL     1      -7.994   5.869  66.337  1.00  0.00    -0.102 C  
BRANCH  13  14
HETATM   14  C   UNL     1      -7.059   5.970  67.575  1.00  0.00    -0.074 C  
BRANCH  14  15
HETATM   15  N   UNL     1      -7.482   6.931  68.608  1.00  0.00    -0.097 NA 
HETATM   16  C   UNL     1      -8.761   5.622  70.997  1.00  0.00    -0.136 C  
HETATM   17  C   UNL     1      -9.389   5.680  69.598  1.00  0.00    -0.171 C  
HETATM   18  C   UNL     1      -8.920   6.937  68.872  1.00  0.00    -0.131 C  
HETATM   19  C   UNL     1      -7.234   5.727  70.865  1.00  0.00    -0.080 C  
HETATM   20  C   UNL     1      -6.735   6.798  69.875  1.00  0.00    -0.049 C  
BRANCH  16  21
HETATM   21  C   UNL     1      -9.460   6.630  71.877  1.00  0.00    -0.150 A  
HETATM   22  N   UNL     1      -8.795   7.484  72.666  1.00  0.00    -0.131 NA 
HETATM   23  O   UNL     1      -9.713   8.464  73.020  1.00  0.00    -0.241 OA 
HETATM   24  C   UNL     1     -10.924   8.178  72.470  1.00  0.00    -0.369 A  
HETATM   25  C   UNL     1     -10.842   6.971  71.798  1.00  0.00    -0.250 A  
HETATM   26  C   UNL     1     -11.989   6.467  71.157  1.00  0.00    -0.365 A  
HETATM   27  C   UNL     1     -13.166   7.225  71.210  1.00  0.00    -0.352 A  
HETATM   28  C   UNL     1     -13.186   8.455  71.866  1.00  0.00    -0.357 A  
HETATM   29  C   UNL     1     -12.068   8.968  72.523  1.00  0.00    -0.183 A  
HETATM   30  F   UNL     1     -14.319   9.171  71.855  1.00  0.00    -0.381 F  
ENDBRANCH  16  21
ENDBRANCH  14  15
ENDBRANCH  13  14
ENDBRANCH   3  13
TORSDOF 4
ENDMDL
MODEL      183
REMARK 921   NORMALIZED FREE ENERGY PREDICTED BY IDOCK:   -4.02 KCAL/MOL
REMARK 922        TOTAL FREE ENERGY PREDICTED BY IDOCK:   -5.70 KCAL/MOL
REMARK 923 INTER-LIGAND FREE ENERGY PREDICTED BY IDOCK:   -4.90 KCAL/MOL
REMARK 924 INTRA-LIGAND FREE ENERGY PREDICTED BY IDOCK:   -0.81 KCAL/MOL
REMARK 927      BINDING AFFINITY PREDICTED BY RF-SCORE:    0.00 PKD
ROOT
HETATM    1  C   UNL     1      -8.018   8.967  67.396  1.00  0.00    -0.101 C  
HETATM    2  C   UNL     1      -8.768   9.682  66.302  1.00  0.00    -0.142 C  
HETATM    3  C   UNL     1      -8.529   9.550  64.983  1.00  0.00    -0.165 C  
HETATM    4  C   UNL     1     -12.085  13.108  65.717  1.00  0.00    -0.502 C  
HETATM    5  C   UNL     1      -9.421  10.314  64.067  1.00  0.00    -0.300 C  
HETATM    6  N   UNL     1     -10.428  11.058  64.650  1.00  0.00    -0.336 N  
HETATM    7  O   UNL     1      -9.249  10.258  62.851  1.00  0.00    -0.246 OA 
HETATM    8  C   UNL     1     -11.574  12.020  66.639  1.00  0.00    -0.389 C  
HETATM    9  N   UNL     1      -9.742  10.494  66.819  1.00  0.00    -0.174 NA 
HETATM   10  C   UNL     1     -11.241  11.868  63.752  1.00  0.00    -0.440 C  
HETATM   11  C   UNL     1     -12.474  12.481  64.393  1.00  0.00    -0.530 C  
HETATM   12  C   UNL     1     -10.503  11.154  66.012  1.00  0.00    -0.256 C  
ENDROOT
BRANCH   3  13
HETATM   13  C   UNL     1      -7.518   8.674  64.284  1.00  0.00    -0.109 C  
BRANCH  13  14
HETATM   14  C   UNL     1      -8.073   7.308  63.791  1.00  0.00    -0.011 C  
BRANCH  14  15
HETATM   15  N   UNL     1      -7.304   6.125  64.215  1.00  0.00    -0.065 NA 
HETATM   16  C   UNL     1      -9.022   3.944  65.376  1.00  0.00    -0.132 C  
HETATM   17  C   UNL     1      -8.767   5.300  66.048  1.00  0.00    -0.137 C  
HETATM   18  C   UNL     1      -7.394   5.828  65.643  1.00  0.00    -0.076 C  
HETATM   19  C   UNL     1      -8.840   4.095  63.858  1.00  0.00    -0.127 C  
HETATM   20  C   UNL     1      -7.607   4.914  63.425  1.00  0.00    -0.061 C  
BRANCH  16  21
HETATM   21  C   UNL     1      -8.193   2.898  66.082  1.00  0.00    -0.085 A  
HETATM   22  N   UNL     1      -7.229   2.202  65.463  1.00  0.00    -0.056 NA 
HETATM   23  O   UNL     1      -6.467   1.633  66.475  1.00  0.00    -0.023 OA 
HETATM   24  C   UNL     1      -6.991   1.963  67.686  1.00  0.00    -0.039 A  
HETATM   25  C   UNL     1      -8.146   2.701  67.493  1.00  0.00    -0.071 A  
HETATM   26  C   UNL     1      -8.869   3.144  68.616  1.00  0.00    -0.166 A  
HETATM   27  C   UNL     1      -8.373   2.834  69.889  1.00  0.00    -0.077 A  
HETATM   28  C   UNL     1      -7.183   2.121  70.030  1.00  0.00    -0.033 A  
HETATM   29  C   UNL     1      -6.457   1.657  68.934  1.00  0.00    -0.029 A  
HETATM   30  F   UNL     1      -6.718   1.884  71.264  1.00  0.00    -0.021 F  
ENDBRANCH  16  21
ENDBRANCH  14  15
ENDBRANCH  13  14
ENDBRANCH   3  13
TORSDOF 4
ENDMDL
MODEL      184
REMARK 921   NORMALIZED FREE ENERGY PREDICTED BY IDOCK:   -3.97 KCAL/MOL
REMARK 922        TOTAL FREE ENERGY PREDICTED BY IDOCK:   -5.63 KCAL/MOL
REMARK 923 INTER-LIGAND FREE ENERGY PREDICTED BY IDOCK:   -6.28 KCAL/MOL
REMARK 924 INTRA-LIGAND FREE ENERGY PREDICTED BY IDOCK:    0.64 KCAL/MOL
REMARK 927      BINDING AFFINITY PREDICTED BY RF-SCORE:    0.00 PKD
ROOT
HETATM    1  C   UNL     1      -5.126   9.434  72.143  1.00  0.00    -0.074 C  
HETATM    2  C   UNL     1      -5.606  10.420  71.109  1.00  0.00    -0.050 C  
HETATM    3  C   UNL     1      -6.267  10.100  69.979  1.00  0.00    -0.076 C  
HETATM    4  C   UNL     1      -5.308  15.092  70.029  1.00  0.00    -0.113 C  
HETATM    5  C   UNL     1      -6.692  11.236  69.115  1.00  0.00    -0.099 C  
HETATM    6  N   UNL     1      -6.401  12.509  69.565  1.00  0.00    -0.121 N  
HETATM    7  O   UNL     1      -7.283  11.019  68.059  1.00  0.00    -0.082 OA 
HETATM    8  C   UNL     1      -5.294  14.075  71.152  1.00  0.00    -0.170 C  
HETATM    9  N   UNL     1      -5.286  11.704  71.463  1.00  0.00    -0.358 NA 
HETATM   10  C   UNL     1      -6.746  13.608  68.674  1.00  0.00    -0.100 C  
HETATM   11  C   UNL     1      -6.630  14.989  69.296  1.00  0.00    -0.131 C  
HETATM   12  C   UNL     1      -5.657  12.676  70.700  1.00  0.00    -0.177 C  
ENDROOT
BRANCH   3  13
HETATM   13  C   UNL     1      -6.707   8.742  69.488  1.00  0.00    -0.047 C  
BRANCH  13  14
HETATM   14  C   UNL     1      -7.355   7.838  70.574  1.00  0.00    -0.072 C  
BRANCH  14  15
HETATM   15  N   UNL     1      -8.412   8.476  71.378  1.00  0.00    -0.156 NA 
HETATM   16  C   UNL     1     -11.180   7.993  70.299  1.00  0.00    -0.192 C  
HETATM   17  C   UNL     1     -10.118   8.860  69.610  1.00  0.00    -0.202 C  
HETATM   18  C   UNL     1      -9.195   9.478  70.655  1.00  0.00    -0.180 C  
HETATM   19  C   UNL     1     -10.479   6.959  71.193  1.00  0.00    -0.234 C  
HETATM   20  C   UNL     1      -9.312   7.509  72.038  1.00  0.00    -0.133 C  
BRANCH  16  21
HETATM   21  C   UNL     1     -12.196   8.905  70.944  1.00  0.00    -0.137 A  
HETATM   22  N   UNL     1     -12.897   8.552  72.029  1.00  0.00    -0.354 NA 
HETATM   23  O   UNL     1     -13.428   9.731  72.535  1.00  0.00    -0.354 OA 
HETATM   24  C   UNL     1     -13.071  10.773  71.738  1.00  0.00    -0.468 A  
HETATM   25  C   UNL     1     -12.353  10.292  70.658  1.00  0.00    -0.416 A  
HETATM   26  C   UNL     1     -11.888  11.200  69.688  1.00  0.00    -0.419 A  
HETATM   27  C   UNL     1     -12.156  12.563  69.872  1.00  0.00    -0.322 A  
HETATM   28  C   UNL     1     -12.850  13.001  70.999  1.00  0.00    -0.198 A  
HETATM   29  C   UNL     1     -13.336  12.121  71.965  1.00  0.00    -0.470 A  
HETATM   30  F   UNL     1     -13.047  14.317  71.161  1.00  0.00    -0.369 F  
ENDBRANCH  16  21
ENDBRANCH  14  15
ENDBRANCH  13  14
ENDBRANCH   3  13
TORSDOF 4
ENDMDL
MODEL      185
REMARK 921   NORMALIZED FREE ENERGY PREDICTED BY IDOCK:   -3.96 KCAL/MOL
REMARK 922        TOTAL FREE ENERGY PREDICTED BY IDOCK:   -5.62 KCAL/MOL
REMARK 923 INTER-LIGAND FREE ENERGY PREDICTED BY IDOCK:   -6.65 KCAL/MOL
REMARK 924 INTRA-LIGAND FREE ENERGY PREDICTED BY IDOCK:    1.02 KCAL/MOL
REMARK 927      BINDING AFFINITY PREDICTED BY RF-SCORE:    0.00 PKD
ROOT
HETATM    1  C   UNL     1      -7.376   8.267  70.203  1.00  0.00    -0.056 C  
HETATM    2  C   UNL     1      -7.710   8.535  68.759  1.00  0.00    -0.102 C  
HETATM    3  C   UNL     1      -8.946   8.483  68.225  1.00  0.00    -0.139 C  
HETATM    4  C   UNL     1      -5.545   9.341  64.546  1.00  0.00    -0.063 C  
HETATM    5  C   UNL     1      -9.062   8.829  66.782  1.00  0.00    -0.146 C  
HETATM    6  N   UNL     1      -7.901   9.202  66.132  1.00  0.00    -0.102 N  
HETATM    7  O   UNL     1     -10.156   8.785  66.223  1.00  0.00    -0.291 OA 
HETATM    8  C   UNL     1      -5.431   9.492  66.049  1.00  0.00    -0.040 C  
HETATM    9  N   UNL     1      -6.587   8.845  68.040  1.00  0.00    -0.060 NA 
HETATM   10  C   UNL     1      -8.009   9.457  64.702  1.00  0.00    -0.124 C  
HETATM   11  C   UNL     1      -6.778  10.088  64.075  1.00  0.00    -0.128 C  
HETATM   12  C   UNL     1      -6.703   9.137  66.788  1.00  0.00    -0.076 C  
ENDROOT
BRANCH   3  13
HETATM   13  C   UNL     1     -10.262   8.188  68.904  1.00  0.00    -0.221 C  
BRANCH  13  14
HETATM   14  C   UNL     1     -10.173   8.014  70.447  1.00  0.00    -0.201 C  
BRANCH  14  15
HETATM   15  N   UNL     1     -10.434   9.231  71.235  1.00  0.00    -0.325 NA 
HETATM   16  C   UNL     1     -12.934  10.677  70.393  1.00  0.00    -0.210 C  
HETATM   17  C   UNL     1     -11.661  10.578  69.543  1.00  0.00    -0.332 C  
HETATM   18  C   UNL     1     -10.440  10.465  70.452  1.00  0.00     0.048 C  
HETATM   19  C   UNL     1     -12.989   9.482  71.356  1.00  0.00    -0.450 C  
HETATM   20  C   UNL     1     -11.657   9.146  72.057  1.00  0.00    -0.301 C  
BRANCH  16  21
HETATM   21  C   UNL     1     -13.004  12.062  70.989  1.00  0.00    -0.084 A  
HETATM   22  N   UNL     1     -13.343  12.283  72.267  1.00  0.00    -0.431 NA 
HETATM   23  O   UNL     1     -12.948  13.585  72.543  1.00  0.00    -0.350 OA 
HETATM   24  C   UNL     1     -12.407  14.146  71.428  1.00  0.00    -0.344 A  
HETATM   25  C   UNL     1     -12.494  13.246  70.380  1.00  0.00    -0.295 A  
HETATM   26  C   UNL     1     -12.003  13.621  69.116  1.00  0.00    -0.394 A  
HETATM   27  C   UNL     1     -11.423  14.888  68.977  1.00  0.00    -0.322 A  
HETATM   28  C   UNL     1     -11.323  15.743  70.074  1.00  0.00    -0.351 A  
HETATM   29  C   UNL     1     -11.817  15.403  71.333  1.00  0.00    -0.443 A  
HETATM   30  F   UNL     1     -10.722  16.929  69.911  1.00  0.00    -0.313 F  
ENDBRANCH  16  21
ENDBRANCH  14  15
ENDBRANCH  13  14
ENDBRANCH   3  13
TORSDOF 4
ENDMDL
MODEL      186
REMARK 921   NORMALIZED FREE ENERGY PREDICTED BY IDOCK:   -3.93 KCAL/MOL
REMARK 922        TOTAL FREE ENERGY PREDICTED BY IDOCK:   -5.59 KCAL/MOL
REMARK 923 INTER-LIGAND FREE ENERGY PREDICTED BY IDOCK:   -7.27 KCAL/MOL
REMARK 924 INTRA-LIGAND FREE ENERGY PREDICTED BY IDOCK:    1.68 KCAL/MOL
REMARK 927      BINDING AFFINITY PREDICTED BY RF-SCORE:    0.00 PKD
ROOT
HETATM    1  C   UNL     1     -12.709  11.112  71.344  1.00  0.00    -0.524 C  
HETATM    2  C   UNL     1     -11.594  10.281  70.763  1.00  0.00    -0.355 C  
HETATM    3  C   UNL     1     -11.248  10.247  69.461  1.00  0.00    -0.314 C  
HETATM    4  C   UNL     1      -8.471   6.861  72.044  1.00  0.00    -0.110 C  
HETATM    5  C   UNL     1     -10.082   9.391  69.106  1.00  0.00    -0.195 C  
HETATM    6  N   UNL     1      -9.444   8.740  70.144  1.00  0.00    -0.163 N  
HETATM    7  O   UNL     1      -9.721   9.296  67.935  1.00  0.00    -0.146 OA 
HETATM    8  C   UNL     1      -9.282   8.046  72.528  1.00  0.00    -0.280 C  
HETATM    9  N   UNL     1     -10.960   9.553  71.735  1.00  0.00    -0.245 NA 
HETATM   10  C   UNL     1      -8.359   7.840  69.777  1.00  0.00    -0.131 C  
HETATM   11  C   UNL     1      -7.536   7.329  70.947  1.00  0.00    -0.075 C  
HETATM   12  C   UNL     1      -9.956   8.812  71.410  1.00  0.00    -0.283 C  
ENDROOT
BRANCH   3  13
HETATM   13  C   UNL     1     -11.835  11.015  68.302  1.00  0.00    -0.221 C  
BRANCH  13  14
HETATM   14  C   UNL     1     -10.792  11.545  67.278  1.00  0.00    -0.256 C  
BRANCH  14  15
HETATM   15  N   UNL     1      -9.975  12.680  67.740  1.00  0.00    -0.212 NA 
HETATM   16  C   UNL     1     -10.418  15.191  66.142  1.00  0.00    -0.320 C  
HETATM   17  C   UNL     1      -9.734  13.928  65.603  1.00  0.00    -0.157 C  
HETATM   18  C   UNL     1      -9.036  13.191  66.742  1.00  0.00    -0.209 C  
HETATM   19  C   UNL     1     -11.358  14.800  67.292  1.00  0.00    -0.366 C  
HETATM   20  C   UNL     1     -10.773  13.789  68.300  1.00  0.00    -0.253 C  
BRANCH  16  21
HETATM   21  C   UNL     1      -9.357  16.227  66.425  1.00  0.00    -0.292 A  
HETATM   22  N   UNL     1      -9.369  17.445  65.867  1.00  0.00    -0.520 NA 
HETATM   23  O   UNL     1      -8.491  18.213  66.620  1.00  0.00    -0.248 OA 
HETATM   24  C   UNL     1      -7.937  17.448  67.599  1.00  0.00    -0.193 A  
HETATM   25  C   UNL     1      -8.390  16.148  67.469  1.00  0.00    -0.175 A  
HETATM   26  C   UNL     1      -7.935  15.172  68.376  1.00  0.00    -0.136 A  
HETATM   27  C   UNL     1      -7.053  15.568  69.389  1.00  0.00    -0.194 A  
HETATM   28  C   UNL     1      -6.657  16.900  69.501  1.00  0.00    -0.203 A  
HETATM   29  C   UNL     1      -7.080  17.882  68.607  1.00  0.00    -0.266 A  
HETATM   30  F   UNL     1      -5.848  17.247  70.512  1.00  0.00    -0.228 F  
ENDBRANCH  16  21
ENDBRANCH  14  15
ENDBRANCH  13  14
ENDBRANCH   3  13
TORSDOF 4
ENDMDL
MODEL      187
REMARK 921   NORMALIZED FREE ENERGY PREDICTED BY IDOCK:   -3.93 KCAL/MOL
REMARK 922        TOTAL FREE ENERGY PREDICTED BY IDOCK:   -5.58 KCAL/MOL
REMARK 923 INTER-LIGAND FREE ENERGY PREDICTED BY IDOCK:   -6.04 KCAL/MOL
REMARK 924 INTRA-LIGAND FREE ENERGY PREDICTED BY IDOCK:    0.45 KCAL/MOL
REMARK 927      BINDING AFFINITY PREDICTED BY RF-SCORE:    0.00 PKD
ROOT
HETATM    1  C   UNL     1      -9.958  16.090  68.165  1.00  0.00    -0.228 C  
HETATM    2  C   UNL     1     -10.722  15.040  68.928  1.00  0.00    -0.240 C  
HETATM    3  C   UNL     1     -10.558  13.709  68.794  1.00  0.00    -0.247 C  
HETATM    4  C   UNL     1     -14.410  14.632  71.980  1.00  0.00    -0.642 C  
HETATM    5  C   UNL     1     -11.386  12.845  69.681  1.00  0.00    -0.096 C  
HETATM    6  N   UNL     1     -12.217  13.485  70.579  1.00  0.00    -0.362 N  
HETATM    7  O   UNL     1     -11.303  11.622  69.601  1.00  0.00    -0.264 OA 
HETATM    8  C   UNL     1     -13.292  15.533  71.499  1.00  0.00    -0.593 C  
HETATM    9  N   UNL     1     -11.619  15.610  69.792  1.00  0.00    -0.327 NA 
HETATM   10  C   UNL     1     -13.084  12.633  71.383  1.00  0.00    -0.216 C  
HETATM   11  C   UNL     1     -13.805  13.348  72.513  1.00  0.00    -0.595 C  
HETATM   12  C   UNL     1     -12.333  14.847  70.550  1.00  0.00    -0.342 C  
ENDROOT
BRANCH   3  13
HETATM   13  C   UNL     1      -9.593  12.956  67.912  1.00  0.00    -0.215 C  
BRANCH  13  14
HETATM   14  C   UNL     1     -10.208  11.737  67.168  1.00  0.00    -0.212 C  
BRANCH  14  15
HETATM   15  N   UNL     1      -9.245  10.706  66.742  1.00  0.00    -0.155 NA 
HETATM   16  C   UNL     1      -8.776   8.587  68.827  1.00  0.00    -0.139 C  
HETATM   17  C   UNL     1      -8.322  10.047  68.955  1.00  0.00    -0.134 C  
HETATM   18  C   UNL     1      -8.043  10.626  67.572  1.00  0.00    -0.111 C  
HETATM   19  C   UNL     1      -9.978   8.518  67.874  1.00  0.00    -0.225 C  
HETATM   20  C   UNL     1      -9.848   9.366  66.592  1.00  0.00    -0.245 C  
BRANCH  16  21
HETATM   21  C   UNL     1      -7.570   7.739  68.498  1.00  0.00    -0.105 A  
HETATM   22  N   UNL     1      -6.513   8.216  67.827  1.00  0.00    -0.052 NA 
HETATM   23  O   UNL     1      -5.490   7.300  68.035  1.00  0.00    -0.023 OA 
HETATM   24  C   UNL     1      -5.945   6.271  68.799  1.00  0.00    -0.021 A  
HETATM   25  C   UNL     1      -7.292   6.456  69.054  1.00  0.00    -0.089 A  
HETATM   26  C   UNL     1      -7.980   5.499  69.823  1.00  0.00    -0.090 A  
HETATM   27  C   UNL     1      -7.261   4.404  70.317  1.00  0.00    -0.049 A  
HETATM   28  C   UNL     1      -5.895   4.283  70.065  1.00  0.00    -0.017 A  
HETATM   29  C   UNL     1      -5.194   5.208  69.293  1.00  0.00     0.000 A  
HETATM   30  F   UNL     1      -5.233   3.244  70.594  1.00  0.00    -0.003 F  
ENDBRANCH  16  21
ENDBRANCH  14  15
ENDBRANCH  13  14
ENDBRANCH   3  13
TORSDOF 4
ENDMDL
MODEL      188
REMARK 921   NORMALIZED FREE ENERGY PREDICTED BY IDOCK:   -3.91 KCAL/MOL
REMARK 922        TOTAL FREE ENERGY PREDICTED BY IDOCK:   -5.56 KCAL/MOL
REMARK 923 INTER-LIGAND FREE ENERGY PREDICTED BY IDOCK:   -5.29 KCAL/MOL
REMARK 924 INTRA-LIGAND FREE ENERGY PREDICTED BY IDOCK:   -0.26 KCAL/MOL
REMARK 927      BINDING AFFINITY PREDICTED BY RF-SCORE:    0.00 PKD
ROOT
HETATM    1  C   UNL     1     -10.005   7.832  70.969  1.00  0.00    -0.191 C  
HETATM    2  C   UNL     1      -9.058   6.716  70.611  1.00  0.00    -0.155 C  
HETATM    3  C   UNL     1      -7.798   6.881  70.163  1.00  0.00    -0.106 C  
HETATM    4  C   UNL     1      -8.990   1.939  70.096  1.00  0.00    -0.144 C  
HETATM    5  C   UNL     1      -7.015   5.639  69.912  1.00  0.00    -0.062 C  
HETATM    6  N   UNL     1      -7.637   4.439  70.193  1.00  0.00    -0.049 N  
HETATM    7  O   UNL     1      -5.865   5.713  69.484  1.00  0.00    -0.015 OA 
HETATM    8  C   UNL     1      -9.639   3.100  70.822  1.00  0.00    -0.219 C  
HETATM    9  N   UNL     1      -9.640   5.491  70.802  1.00  0.00    -0.165 NA 
HETATM   10  C   UNL     1      -6.894   3.230  69.865  1.00  0.00    -0.034 C  
HETATM   11  C   UNL     1      -7.505   1.945  70.400  1.00  0.00    -0.036 C  
HETATM   12  C   UNL     1      -8.950   4.425  70.575  1.00  0.00    -0.102 C  
ENDROOT
BRANCH   3  13
HETATM   13  C   UNL     1      -7.029   8.161  69.940  1.00  0.00    -0.048 C  
BRANCH  13  14
HETATM   14  C   UNL     1      -6.931   8.611  68.455  1.00  0.00    -0.065 C  
BRANCH  14  15
HETATM   15  N   UNL     1      -8.113   9.317  67.931  1.00  0.00    -0.104 NA 
HETATM   16  C   UNL     1      -7.534  12.156  67.116  1.00  0.00    -0.129 C  
HETATM   17  C   UNL     1      -7.529  11.650  68.564  1.00  0.00    -0.113 C  
HETATM   18  C   UNL     1      -8.508  10.489  68.711  1.00  0.00    -0.141 C  
HETATM   19  C   UNL     1      -7.243  10.978  66.173  1.00  0.00    -0.054 C  
HETATM   20  C   UNL     1      -7.997   9.674  66.503  1.00  0.00    -0.112 C  
BRANCH  16  21
HETATM   21  C   UNL     1      -8.804  12.939  66.887  1.00  0.00    -0.187 A  
HETATM   22  N   UNL     1      -9.066  14.091  67.520  1.00  0.00    -0.187 NA 
HETATM   23  O   UNL     1     -10.099  14.686  66.808  1.00  0.00    -0.256 OA 
HETATM   24  C   UNL     1     -10.470  13.879  65.777  1.00  0.00    -0.307 A  
HETATM   25  C   UNL     1      -9.733  12.709  65.830  1.00  0.00    -0.212 A  
HETATM   26  C   UNL     1      -9.959  11.715  64.860  1.00  0.00    -0.293 A  
HETATM   27  C   UNL     1     -10.912  11.964  63.865  1.00  0.00    -0.473 A  
HETATM   28  C   UNL     1     -11.601  13.176  63.832  1.00  0.00    -0.433 A  
HETATM   29  C   UNL     1     -11.407  14.170  64.790  1.00  0.00    -0.371 A  
HETATM   30  F   UNL     1     -12.471  13.394  62.837  1.00  0.00    -0.531 F  
ENDBRANCH  16  21
ENDBRANCH  14  15
ENDBRANCH  13  14
ENDBRANCH   3  13
TORSDOF 4
ENDMDL
MODEL      189
REMARK 921   NORMALIZED FREE ENERGY PREDICTED BY IDOCK:   -3.84 KCAL/MOL
REMARK 922        TOTAL FREE ENERGY PREDICTED BY IDOCK:   -5.48 KCAL/MOL
REMARK 923 INTER-LIGAND FREE ENERGY PREDICTED BY IDOCK:   -4.72 KCAL/MOL
REMARK 924 INTRA-LIGAND FREE ENERGY PREDICTED BY IDOCK:   -0.76 KCAL/MOL
REMARK 927      BINDING AFFINITY PREDICTED BY RF-SCORE:    0.00 PKD
ROOT
HETATM    1  C   UNL     1      -9.823  15.404  70.551  1.00  0.00     0.497 C  
HETATM    2  C   UNL     1      -9.168  15.793  69.251  1.00  0.00    -0.266 C  
HETATM    3  C   UNL     1      -9.578  15.405  68.028  1.00  0.00    -0.206 C  
HETATM    4  C   UNL     1      -5.265  18.063  67.607  1.00  0.00    -0.138 C  
HETATM    5  C   UNL     1      -8.813  15.944  66.869  1.00  0.00    -0.236 C  
HETATM    6  N   UNL     1      -7.779  16.814  67.151  1.00  0.00    -0.167 N  
HETATM    7  O   UNL     1      -9.119  15.618  65.724  1.00  0.00    -0.303 OA 
HETATM    8  C   UNL     1      -6.258  17.969  68.748  1.00  0.00    -0.210 C  
HETATM    9  N   UNL     1      -8.086  16.606  69.466  1.00  0.00     0.124 NA 
HETATM   10  C   UNL     1      -6.984  17.269  66.019  1.00  0.00    -0.131 C  
HETATM   11  C   UNL     1      -6.017  18.397  66.334  1.00  0.00    -0.195 C  
HETATM   12  C   UNL     1      -7.431  17.060  68.451  1.00  0.00    -0.213 C  
ENDROOT
BRANCH   3  13
HETATM   13  C   UNL     1     -10.761  14.546  67.651  1.00  0.00    -0.254 C  
BRANCH  13  14
HETATM   14  C   UNL     1     -10.437  13.036  67.472  1.00  0.00    -0.227 C  
BRANCH  14  15
HETATM   15  N   UNL     1      -9.570  12.449  68.508  1.00  0.00    -0.166 NA 
HETATM   16  C   UNL     1      -9.718   9.445  68.618  1.00  0.00    -0.160 C  
HETATM   17  C   UNL     1     -10.860  10.386  69.023  1.00  0.00    -0.273 C  
HETATM   18  C   UNL     1     -10.288  11.703  69.540  1.00  0.00     0.320 C  
HETATM   19  C   UNL     1      -8.809  10.164  67.609  1.00  0.00    -0.125 C  
HETATM   20  C   UNL     1      -8.472  11.628  67.959  1.00  0.00    -0.151 C  
BRANCH  16  21
HETATM   21  C   UNL     1      -9.079   8.902  69.874  1.00  0.00    -0.161 A  
HETATM   22  N   UNL     1      -7.965   9.426  70.403  1.00  0.00    -0.158 NA 
HETATM   23  O   UNL     1      -7.894   8.931  71.698  1.00  0.00    -0.270 OA 
HETATM   24  C   UNL     1      -8.941   8.094  71.927  1.00  0.00    -0.167 A  
HETATM   25  C   UNL     1      -9.685   7.971  70.767  1.00  0.00    -0.179 A  
HETATM   26  C   UNL     1     -10.818   7.137  70.768  1.00  0.00    -0.267 A  
HETATM   27  C   UNL     1     -11.159   6.480  71.957  1.00  0.00    -0.296 A  
HETATM   28  C   UNL     1     -10.399   6.668  73.111  1.00  0.00    -0.234 A  
HETATM   29  C   UNL     1      -9.262   7.475  73.132  1.00  0.00    -0.244 A  
HETATM   30  F   UNL     1     -10.783   6.058  74.240  1.00  0.00    -0.261 F  
ENDBRANCH  16  21
ENDBRANCH  14  15
ENDBRANCH  13  14
ENDBRANCH   3  13
TORSDOF 4
ENDMDL
MODEL      190
REMARK 921   NORMALIZED FREE ENERGY PREDICTED BY IDOCK:   -3.84 KCAL/MOL
REMARK 922        TOTAL FREE ENERGY PREDICTED BY IDOCK:   -5.48 KCAL/MOL
REMARK 923 INTER-LIGAND FREE ENERGY PREDICTED BY IDOCK:   -5.22 KCAL/MOL
REMARK 924 INTRA-LIGAND FREE ENERGY PREDICTED BY IDOCK:   -0.25 KCAL/MOL
REMARK 927      BINDING AFFINITY PREDICTED BY RF-SCORE:    0.00 PKD
ROOT
HETATM    1  C   UNL     1      -8.153   9.333  67.892  1.00  0.00    -0.104 C  
HETATM    2  C   UNL     1      -8.922   8.678  69.011  1.00  0.00    -0.142 C  
HETATM    3  C   UNL     1     -10.214   8.915  69.308  1.00  0.00    -0.214 C  
HETATM    4  C   UNL     1      -8.227   5.769  72.771  1.00  0.00    -0.112 C  
HETATM    5  C   UNL     1     -10.794   8.123  70.428  1.00  0.00    -0.236 C  
HETATM    6  N   UNL     1      -9.967   7.199  71.035  1.00  0.00    -0.188 N  
HETATM    7  O   UNL     1     -11.962   8.300  70.767  1.00  0.00    -0.236 OA 
HETATM    8  C   UNL     1      -7.740   6.145  71.386  1.00  0.00    -0.100 C  
HETATM    9  N   UNL     1      -8.135   7.795  69.701  1.00  0.00    -0.120 NA 
HETATM   10  C   UNL     1     -10.517   6.491  72.183  1.00  0.00    -0.205 C  
HETATM   11  C   UNL     1      -9.673   5.326  72.673  1.00  0.00    -0.175 C  
HETATM   12  C   UNL     1      -8.651   7.121  70.673  1.00  0.00    -0.143 C  
ENDROOT
BRANCH   3  13
HETATM   13  C   UNL     1     -11.196   9.829  68.615  1.00  0.00    -0.068 C  
BRANCH  13  14
HETATM   14  C   UNL     1     -11.921  10.835  69.553  1.00  0.00    -0.292 C  
BRANCH  14  15
HETATM   15  N   UNL     1     -11.134  12.020  69.937  1.00  0.00     0.065 NA 
HETATM   16  C   UNL     1     -12.060  14.547  68.589  1.00  0.00    -0.253 C  
HETATM   17  C   UNL     1     -11.376  13.378  67.868  1.00  0.00    -0.322 C  
HETATM   18  C   UNL     1     -10.431  12.660  68.826  1.00  0.00    -0.143 C  
HETATM   19  C   UNL     1     -12.749  14.019  69.857  1.00  0.00    -0.059 C  
HETATM   20  C   UNL     1     -11.914  13.024  70.689  1.00  0.00    -0.138 C  
BRANCH  16  21
HETATM   21  C   UNL     1     -11.057  15.663  68.749  1.00  0.00    -0.307 A  
HETATM   22  N   UNL     1     -10.626  16.081  69.947  1.00  0.00    -0.310 NA 
HETATM   23  O   UNL     1      -9.481  16.827  69.697  1.00  0.00     0.050 OA 
HETATM   24  C   UNL     1      -9.250  16.877  68.357  1.00  0.00    -0.253 A  
HETATM   25  C   UNL     1     -10.274  16.221  67.696  1.00  0.00    -0.272 A  
HETATM   26  C   UNL     1     -10.249  16.158  66.291  1.00  0.00    -0.333 A  
HETATM   27  C   UNL     1      -9.170  16.747  65.619  1.00  0.00     0.203 A  
HETATM   28  C   UNL     1      -8.143  17.362  66.333  1.00  0.00    -0.280 A  
HETATM   29  C   UNL     1      -8.153  17.453  67.725  1.00  0.00    -0.216 A  
HETATM   30  F   UNL     1      -7.106  17.874  65.656  1.00  0.00    -0.321 F  
ENDBRANCH  16  21
ENDBRANCH  14  15
ENDBRANCH  13  14
ENDBRANCH   3  13
TORSDOF 4
ENDMDL
MODEL      191
REMARK 921   NORMALIZED FREE ENERGY PREDICTED BY IDOCK:   -3.82 KCAL/MOL
REMARK 922        TOTAL FREE ENERGY PREDICTED BY IDOCK:   -5.45 KCAL/MOL
REMARK 923 INTER-LIGAND FREE ENERGY PREDICTED BY IDOCK:   -6.17 KCAL/MOL
REMARK 924 INTRA-LIGAND FREE ENERGY PREDICTED BY IDOCK:    0.71 KCAL/MOL
REMARK 927      BINDING AFFINITY PREDICTED BY RF-SCORE:    0.00 PKD
ROOT
HETATM    1  C   UNL     1      -9.712   9.726  66.350  1.00  0.00    -0.275 C  
HETATM    2  C   UNL     1     -10.333   9.378  67.679  1.00  0.00    -0.246 C  
HETATM    3  C   UNL     1     -11.198  10.156  68.359  1.00  0.00    -0.238 C  
HETATM    4  C   UNL     1     -10.054   6.057  71.140  1.00  0.00    -0.241 C  
HETATM    5  C   UNL     1     -11.729   9.600  69.634  1.00  0.00     0.173 C  
HETATM    6  N   UNL     1     -11.313   8.331  69.986  1.00  0.00    -0.085 N  
HETATM    7  O   UNL     1     -12.508  10.262  70.317  1.00  0.00    -0.252 OA 
HETATM    8  C   UNL     1      -9.878   6.324  69.658  1.00  0.00    -0.192 C  
HETATM    9  N   UNL     1      -9.905   8.154  68.120  1.00  0.00    -0.162 NA 
HETATM   10  C   UNL     1     -11.770   7.831  71.275  1.00  0.00    -0.288 C  
HETATM   11  C   UNL     1     -11.490   6.358  71.520  1.00  0.00    -0.360 C  
HETATM   12  C   UNL     1     -10.370   7.690  69.231  1.00  0.00    -0.217 C  
ENDROOT
BRANCH   3  13
HETATM   13  C   UNL     1     -11.772  11.499  67.975  1.00  0.00    -0.343 C  
BRANCH  13  14
HETATM   14  C   UNL     1     -10.910  12.309  66.966  1.00  0.00    -0.250 C  
BRANCH  14  15
HETATM   15  N   UNL     1     -10.719  13.731  67.300  1.00  0.00    -0.281 NA 
HETATM   16  C   UNL     1      -7.880  14.409  68.034  1.00  0.00    -0.141 C  
HETATM   17  C   UNL     1      -8.815  13.544  68.889  1.00  0.00     0.223 C  
HETATM   18  C   UNL     1     -10.263  13.972  68.668  1.00  0.00    -0.233 C  
HETATM   19  C   UNL     1      -8.330  14.334  66.567  1.00  0.00     0.355 C  
HETATM   20  C   UNL     1      -9.852  14.447  66.343  1.00  0.00    -0.295 C  
BRANCH  16  21
HETATM   21  C   UNL     1      -7.779  15.775  68.668  1.00  0.00    -0.153 A  
HETATM   22  N   UNL     1      -6.819  16.095  69.546  1.00  0.00    -0.205 NA 
HETATM   23  O   UNL     1      -6.822  17.482  69.619  1.00  0.00    -0.142 OA 
HETATM   24  C   UNL     1      -7.798  17.981  68.814  1.00  0.00    -0.258 A  
HETATM   25  C   UNL     1      -8.498  16.931  68.246  1.00  0.00    -0.229 A  
HETATM   26  C   UNL     1      -9.570  17.215  67.379  1.00  0.00    -0.247 A  
HETATM   27  C   UNL     1      -9.869  18.556  67.111  1.00  0.00    -0.335 A  
HETATM   28  C   UNL     1      -9.108  19.578  67.677  1.00  0.00    -0.316 A  
HETATM   29  C   UNL     1      -8.052  19.324  68.552  1.00  0.00    -0.401 A  
HETATM   30  F   UNL     1      -9.398  20.847  67.360  1.00  0.00    -0.531 F  
ENDBRANCH  16  21
ENDBRANCH  14  15
ENDBRANCH  13  14
ENDBRANCH   3  13
TORSDOF 4
ENDMDL
MODEL      192
REMARK 921   NORMALIZED FREE ENERGY PREDICTED BY IDOCK:   -3.73 KCAL/MOL
REMARK 922        TOTAL FREE ENERGY PREDICTED BY IDOCK:   -5.34 KCAL/MOL
REMARK 923 INTER-LIGAND FREE ENERGY PREDICTED BY IDOCK:   -5.08 KCAL/MOL
REMARK 924 INTRA-LIGAND FREE ENERGY PREDICTED BY IDOCK:   -0.26 KCAL/MOL
REMARK 927      BINDING AFFINITY PREDICTED BY RF-SCORE:    0.00 PKD
ROOT
HETATM    1  C   UNL     1     -11.670  15.249  66.837  1.00  0.00     0.010 C  
HETATM    2  C   UNL     1     -10.522  16.097  67.322  1.00  0.00    -0.309 C  
HETATM    3  C   UNL     1      -9.516  15.667  68.108  1.00  0.00    -0.195 C  
HETATM    4  C   UNL     1      -9.053  20.672  67.349  1.00  0.00    -0.392 C  
HETATM    5  C   UNL     1      -8.455  16.660  68.433  1.00  0.00    -0.216 C  
HETATM    6  N   UNL     1      -8.582  17.917  67.875  1.00  0.00    -0.247 N  
HETATM    7  O   UNL     1      -7.516  16.343  69.160  1.00  0.00    -0.222 OA 
HETATM    8  C   UNL     1      -9.857  19.631  66.597  1.00  0.00    -0.518 C  
HETATM    9  N   UNL     1     -10.625  17.382  66.858  1.00  0.00    -0.267 NA 
HETATM   10  C   UNL     1      -7.587  18.905  68.266  1.00  0.00    -0.287 C  
HETATM   11  C   UNL     1      -7.619  20.192  67.459  1.00  0.00    -0.333 C  
HETATM   12  C   UNL     1      -9.701  18.232  67.154  1.00  0.00    -0.304 C  
ENDROOT
BRANCH   3  13
HETATM   13  C   UNL     1      -9.266  14.283  68.658  1.00  0.00    -0.167 C  
BRANCH  13  14
HETATM   14  C   UNL     1      -9.000  13.194  67.581  1.00  0.00    -0.192 C  
BRANCH  14  15
HETATM   15  N   UNL     1      -8.876  11.818  68.092  1.00  0.00    -0.164 NA 
HETATM   16  C   UNL     1      -6.572  10.306  66.883  1.00  0.00    -0.076 C  
HETATM   17  C   UNL     1      -7.834  10.723  66.118  1.00  0.00    -0.155 C  
HETATM   18  C   UNL     1      -9.023  10.781  67.072  1.00  0.00    -0.141 C  
HETATM   19  C   UNL     1      -6.367  11.260  68.070  1.00  0.00    -0.053 C  
HETATM   20  C   UNL     1      -7.642  11.591  68.871  1.00  0.00    -0.102 C  
BRANCH  16  21
HETATM   21  C   UNL     1      -6.659   8.828  67.180  1.00  0.00    -0.062 A  
HETATM   22  N   UNL     1      -6.384   8.315  68.387  1.00  0.00    -0.053 NA 
HETATM   23  O   UNL     1      -6.916   7.032  68.381  1.00  0.00    -0.071 OA 
HETATM   24  C   UNL     1      -7.475   6.773  67.169  1.00  0.00    -0.091 A  
HETATM   25  C   UNL     1      -7.265   7.855  66.332  1.00  0.00    -0.082 A  
HETATM   26  C   UNL     1      -7.751   7.802  65.013  1.00  0.00    -0.107 A  
HETATM   27  C   UNL     1      -8.449   6.657  64.608  1.00  0.00     0.113 A  
HETATM   28  C   UNL     1      -8.668   5.610  65.501  1.00  0.00    -0.150 A  
HETATM   29  C   UNL     1      -8.183   5.630  66.809  1.00  0.00    -0.105 A  
HETATM   30  F   UNL     1      -9.380   4.551  65.089  1.00  0.00    -0.139 F  
ENDBRANCH  16  21
ENDBRANCH  14  15
ENDBRANCH  13  14
ENDBRANCH   3  13
TORSDOF 4
ENDMDL
MODEL      193
REMARK 921   NORMALIZED FREE ENERGY PREDICTED BY IDOCK:   -3.64 KCAL/MOL
REMARK 922        TOTAL FREE ENERGY PREDICTED BY IDOCK:   -5.23 KCAL/MOL
REMARK 923 INTER-LIGAND FREE ENERGY PREDICTED BY IDOCK:   -4.69 KCAL/MOL
REMARK 924 INTRA-LIGAND FREE ENERGY PREDICTED BY IDOCK:   -0.54 KCAL/MOL
REMARK 927      BINDING AFFINITY PREDICTED BY RF-SCORE:    0.00 PKD
ROOT
HETATM    1  C   UNL     1     -11.085   8.814  70.185  1.00  0.00    -0.214 C  
HETATM    2  C   UNL     1     -10.039   8.088  69.379  1.00  0.00    -0.197 C  
HETATM    3  C   UNL     1      -8.710   8.288  69.472  1.00  0.00    -0.138 C  
HETATM    4  C   UNL     1      -9.671   4.996  65.720  1.00  0.00    -0.158 C  
HETATM    5  C   UNL     1      -7.847   7.429  68.615  1.00  0.00    -0.122 C  
HETATM    6  N   UNL     1      -8.484   6.487  67.831  1.00  0.00    -0.119 N  
HETATM    7  O   UNL     1      -6.626   7.568  68.634  1.00  0.00    -0.049 OA 
HETATM    8  C   UNL     1     -10.537   5.453  66.877  1.00  0.00    -0.320 C  
HETATM    9  N   UNL     1     -10.611   7.183  68.525  1.00  0.00    -0.202 NA 
HETATM   10  C   UNL     1      -7.639   5.710  66.934  1.00  0.00    -0.096 C  
HETATM   11  C   UNL     1      -8.334   4.535  66.267  1.00  0.00    -0.110 C  
HETATM   12  C   UNL     1      -9.850   6.450  67.785  1.00  0.00    -0.123 C  
ENDROOT
BRANCH   3  13
HETATM   13  C   UNL     1      -7.952   9.222  70.385  1.00  0.00    -0.171 C  
BRANCH  13  14
HETATM   14  C   UNL     1      -7.503  10.555  69.723  1.00  0.00    -0.119 C  
BRANCH  14  15
HETATM   15  N   UNL     1      -8.342  11.017  68.604  1.00  0.00    -0.147 NA 
HETATM   16  C   UNL     1      -7.673  13.806  67.691  1.00  0.00    -0.187 C  
HETATM   17  C   UNL     1      -8.322  13.466  69.039  1.00  0.00     0.347 C  
HETATM   18  C   UNL     1      -9.155  12.194  68.907  1.00  0.00     0.243 C  
HETATM   19  C   UNL     1      -6.873  12.591  67.199  1.00  0.00    -0.058 C  
HETATM   20  C   UNL     1      -7.586  11.232  67.354  1.00  0.00    -0.120 C  
BRANCH  16  21
HETATM   21  C   UNL     1      -8.737  14.363  66.776  1.00  0.00    -0.159 A  
HETATM   22  N   UNL     1      -9.691  13.599  66.229  1.00  0.00    -0.294 NA 
HETATM   23  O   UNL     1     -10.666  14.479  65.776  1.00  0.00    -0.293 OA 
HETATM   24  C   UNL     1     -10.279  15.759  66.025  1.00  0.00    -0.333 A  
HETATM   25  C   UNL     1      -9.014  15.749  66.587  1.00  0.00    -0.313 A  
HETATM   26  C   UNL     1      -8.405  16.973  66.919  1.00  0.00    -0.247 A  
HETATM   27  C   UNL     1      -9.118  18.155  66.684  1.00  0.00    -0.290 A  
HETATM   28  C   UNL     1     -10.406  18.109  66.152  1.00  0.00    -0.385 A  
HETATM   29  C   UNL     1     -11.026  16.911  65.799  1.00  0.00     0.068 A  
HETATM   30  F   UNL     1     -11.073  19.259  65.984  1.00  0.00    -0.384 F  
ENDBRANCH  16  21
ENDBRANCH  14  15
ENDBRANCH  13  14
ENDBRANCH   3  13
TORSDOF 4
ENDMDL
MODEL      194
REMARK 921   NORMALIZED FREE ENERGY PREDICTED BY IDOCK:   -3.64 KCAL/MOL
REMARK 922        TOTAL FREE ENERGY PREDICTED BY IDOCK:   -5.22 KCAL/MOL
REMARK 923 INTER-LIGAND FREE ENERGY PREDICTED BY IDOCK:   -4.64 KCAL/MOL
REMARK 924 INTRA-LIGAND FREE ENERGY PREDICTED BY IDOCK:   -0.58 KCAL/MOL
REMARK 927      BINDING AFFINITY PREDICTED BY RF-SCORE:    0.00 PKD
ROOT
HETATM    1  C   UNL     1     -12.739   6.709  71.114  1.00  0.00    -0.138 C  
HETATM    2  C   UNL     1     -11.271   6.412  71.281  1.00  0.00    -0.292 C  
HETATM    3  C   UNL     1     -10.323   7.322  71.581  1.00  0.00    -0.214 C  
HETATM    4  C   UNL     1      -8.134   2.815  70.723  1.00  0.00    -0.061 C  
HETATM    5  C   UNL     1      -8.936   6.807  71.747  1.00  0.00    -0.139 C  
HETATM    6  N   UNL     1      -8.754   5.445  71.611  1.00  0.00    -0.134 N  
HETATM    7  O   UNL     1      -8.018   7.582  72.003  1.00  0.00    -0.090 OA 
HETATM    8  C   UNL     1      -9.575   3.169  71.028  1.00  0.00    -0.228 C  
HETATM    9  N   UNL     1     -11.009   5.081  71.090  1.00  0.00     0.094 NA 
HETATM   10  C   UNL     1      -7.382   4.961  71.691  1.00  0.00    -0.074 C  
HETATM   11  C   UNL     1      -7.245   3.451  71.773  1.00  0.00    -0.043 C  
HETATM   12  C   UNL     1      -9.801   4.652  71.231  1.00  0.00    -0.190 C  
ENDROOT
BRANCH   3  13
HETATM   13  C   UNL     1     -10.477   8.800  71.847  1.00  0.00    -0.423 C  
BRANCH  13  14
HETATM   14  C   UNL     1     -10.758   9.662  70.584  1.00  0.00    -0.322 C  
BRANCH  14  15
HETATM   15  N   UNL     1      -9.603   9.874  69.696  1.00  0.00    -0.216 NA 
HETATM   16  C   UNL     1     -10.234   9.393  66.793  1.00  0.00    -0.320 C  
HETATM   17  C   UNL     1     -10.181   8.295  67.863  1.00  0.00    -0.276 C  
HETATM   18  C   UNL     1      -9.188   8.684  68.955  1.00  0.00    -0.145 C  
HETATM   19  C   UNL     1     -10.550  10.736  67.467  1.00  0.00    -0.280 C  
HETATM   20  C   UNL     1      -9.774  11.012  68.771  1.00  0.00    -0.191 C  
BRANCH  16  21
HETATM   21  C   UNL     1      -8.980   9.306  65.957  1.00  0.00    -0.176 A  
HETATM   22  N   UNL     1      -8.257  10.384  65.624  1.00  0.00    -0.154 NA 
HETATM   23  O   UNL     1      -7.029   9.897  65.195  1.00  0.00    -0.114 OA 
HETATM   24  C   UNL     1      -7.033   8.538  65.243  1.00  0.00    -0.078 A  
HETATM   25  C   UNL     1      -8.284   8.102  65.642  1.00  0.00    -0.133 A  
HETATM   26  C   UNL     1      -8.523   6.719  65.750  1.00  0.00    -0.150 A  
HETATM   27  C   UNL     1      -7.471   5.840  65.467  1.00  0.00    -0.077 A  
HETATM   28  C   UNL     1      -6.216   6.330  65.107  1.00  0.00    -0.030 A  
HETATM   29  C   UNL     1      -5.958   7.694  64.977  1.00  0.00    -0.038 A  
HETATM   30  F   UNL     1      -5.223   5.458  64.889  1.00  0.00    -0.009 F  
ENDBRANCH  16  21
ENDBRANCH  14  15
ENDBRANCH  13  14
ENDBRANCH   3  13
TORSDOF 4
ENDMDL
MODEL      195
REMARK 921   NORMALIZED FREE ENERGY PREDICTED BY IDOCK:   -3.61 KCAL/MOL
REMARK 922        TOTAL FREE ENERGY PREDICTED BY IDOCK:   -5.19 KCAL/MOL
REMARK 923 INTER-LIGAND FREE ENERGY PREDICTED BY IDOCK:   -4.54 KCAL/MOL
REMARK 924 INTRA-LIGAND FREE ENERGY PREDICTED BY IDOCK:   -0.64 KCAL/MOL
REMARK 927      BINDING AFFINITY PREDICTED BY RF-SCORE:    0.00 PKD
ROOT
HETATM    1  C   UNL     1     -10.689   5.025  66.444  1.00  0.00    -0.242 C  
HETATM    2  C   UNL     1      -9.222   4.868  66.137  1.00  0.00    -0.146 C  
HETATM    3  C   UNL     1      -8.234   4.853  67.054  1.00  0.00    -0.107 C  
HETATM    4  C   UNL     1      -6.222   4.689  62.388  1.00  0.00    -0.017 C  
HETATM    5  C   UNL     1      -6.853   4.639  66.538  1.00  0.00    -0.058 C  
HETATM    6  N   UNL     1      -6.715   4.445  65.178  1.00  0.00    -0.047 N  
HETATM    7  O   UNL     1      -5.900   4.632  67.315  1.00  0.00    -0.021 OA 
HETATM    8  C   UNL     1      -7.632   4.404  62.864  1.00  0.00    -0.057 C  
HETATM    9  N   UNL     1      -9.008   4.739  64.791  1.00  0.00    -0.153 NA 
HETATM   10  C   UNL     1      -5.355   4.321  64.674  1.00  0.00    -0.013 C  
HETATM   11  C   UNL     1      -5.253   3.876  63.224  1.00  0.00    -0.005 C  
HETATM   12  C   UNL     1      -7.805   4.561  64.360  1.00  0.00    -0.086 C  
ENDROOT
BRANCH   3  13
HETATM   13  C   UNL     1      -8.332   4.952  68.557  1.00  0.00    -0.083 C  
BRANCH  13  14
HETATM   14  C   UNL     1      -8.831   6.325  69.087  1.00  0.00    -0.128 C  
BRANCH  14  15
HETATM   15  N   UNL     1      -8.211   7.506  68.461  1.00  0.00    -0.124 NA 
HETATM   16  C   UNL     1      -9.406  10.107  69.391  1.00  0.00    -0.235 C  
HETATM   17  C   UNL     1     -10.137   9.078  68.519  1.00  0.00    -0.211 C  
HETATM   18  C   UNL     1      -9.130   8.316  67.663  1.00  0.00    -0.131 C  
HETATM   19  C   UNL     1      -8.318   9.391  70.205  1.00  0.00    -0.217 C  
HETATM   20  C   UNL     1      -7.482   8.362  69.418  1.00  0.00    -0.089 C  
BRANCH  16  21
HETATM   21  C   UNL     1      -8.981  11.260  68.514  1.00  0.00    -0.166 A  
HETATM   22  N   UNL     1      -7.892  11.212  67.735  1.00  0.00    -0.111 NA 
HETATM   23  O   UNL     1      -8.027  12.260  66.833  1.00  0.00    -0.152 OA 
HETATM   24  C   UNL     1      -9.173  12.945  67.094  1.00  0.00    -0.225 A  
HETATM   25  C   UNL     1      -9.780  12.402  68.213  1.00  0.00    -0.218 A  
HETATM   26  C   UNL     1     -10.984  12.964  68.677  1.00  0.00    -0.295 A  
HETATM   27  C   UNL     1     -11.529  14.043  67.970  1.00  0.00    -0.342 A  
HETATM   28  C   UNL     1     -10.898  14.529  66.825  1.00  0.00    -0.305 A  
HETATM   29  C   UNL     1      -9.697  14.000  66.354  1.00  0.00    -0.309 A  
HETATM   30  F   UNL     1     -11.475  15.533  66.150  1.00  0.00    -0.250 F  
ENDBRANCH  16  21
ENDBRANCH  14  15
ENDBRANCH  13  14
ENDBRANCH   3  13
TORSDOF 4
ENDMDL
MODEL      196
REMARK 921   NORMALIZED FREE ENERGY PREDICTED BY IDOCK:   -3.57 KCAL/MOL
REMARK 922        TOTAL FREE ENERGY PREDICTED BY IDOCK:   -5.15 KCAL/MOL
REMARK 923 INTER-LIGAND FREE ENERGY PREDICTED BY IDOCK:   -5.91 KCAL/MOL
REMARK 924 INTRA-LIGAND FREE ENERGY PREDICTED BY IDOCK:    0.77 KCAL/MOL
REMARK 927      BINDING AFFINITY PREDICTED BY RF-SCORE:    0.00 PKD
ROOT
HETATM    1  C   UNL     1     -11.994  13.440  66.731  1.00  0.00    -0.447 C  
HETATM    2  C   UNL     1     -10.896  14.355  67.209  1.00  0.00    -0.290 C  
HETATM    3  C   UNL     1      -9.840  13.977  67.955  1.00  0.00    -0.228 C  
HETATM    4  C   UNL     1      -9.757  19.021  67.329  1.00  0.00    -0.368 C  
HETATM    5  C   UNL     1      -8.844  15.035  68.280  1.00  0.00    -0.172 C  
HETATM    6  N   UNL     1      -9.076  16.294  67.763  1.00  0.00    -0.194 N  
HETATM    7  O   UNL     1      -7.864  14.768  68.972  1.00  0.00    -0.141 OA 
HETATM    8  C   UNL     1     -10.506  17.946  66.569  1.00  0.00    -0.315 C  
HETATM    9  N   UNL     1     -11.104  15.641  66.786  1.00  0.00    -0.235 NA 
HETATM   10  C   UNL     1      -8.143  17.341  68.155  1.00  0.00    -0.229 C  
HETATM   11  C   UNL     1      -8.290  18.644  67.387  1.00  0.00    -0.272 C  
HETATM   12  C   UNL     1     -10.234  16.547  67.081  1.00  0.00    -0.284 C  
ENDROOT
BRANCH   3  13
HETATM   13  C   UNL     1      -9.476  12.601  68.458  1.00  0.00    -0.094 C  
BRANCH  13  14
HETATM   14  C   UNL     1      -8.200  11.990  67.814  1.00  0.00    -0.151 C  
BRANCH  14  15
HETATM   15  N   UNL     1      -8.177  10.519  67.732  1.00  0.00    -0.107 NA 
HETATM   16  C   UNL     1      -9.324   9.176  70.169  1.00  0.00    -0.235 C  
HETATM   17  C   UNL     1      -8.006   9.960  70.149  1.00  0.00    -0.181 C  
HETATM   18  C   UNL     1      -7.370   9.871  68.765  1.00  0.00    -0.078 C  
HETATM   19  C   UNL     1     -10.229   9.688  69.038  1.00  0.00    -0.209 C  
HETATM   20  C   UNL     1      -9.524   9.913  67.686  1.00  0.00    -0.147 C  
BRANCH  16  21
HETATM   21  C   UNL     1      -9.002   7.701  70.195  1.00  0.00    -0.146 A  
HETATM   22  N   UNL     1      -8.787   7.028  71.334  1.00  0.00    -0.129 NA 
HETATM   23  O   UNL     1      -8.891   5.684  71.003  1.00  0.00    -0.134 OA 
HETATM   24  C   UNL     1      -9.135   5.557  69.671  1.00  0.00    -0.128 A  
HETATM   25  C   UNL     1      -9.132   6.812  69.088  1.00  0.00    -0.138 A  
HETATM   26  C   UNL     1      -9.354   6.922  67.703  1.00  0.00    -0.124 A  
HETATM   27  C   UNL     1      -9.590   5.750  66.974  1.00  0.00    -0.145 A  
HETATM   28  C   UNL     1      -9.623   4.512  67.615  1.00  0.00    -0.165 A  
HETATM   29  C   UNL     1      -9.390   4.374  68.983  1.00  0.00    -0.219 A  
HETATM   30  F   UNL     1      -9.897   3.420  66.889  1.00  0.00    -0.207 F  
ENDBRANCH  16  21
ENDBRANCH  14  15
ENDBRANCH  13  14
ENDBRANCH   3  13
TORSDOF 4
ENDMDL
MODEL      197
REMARK 921   NORMALIZED FREE ENERGY PREDICTED BY IDOCK:   -3.56 KCAL/MOL
REMARK 922        TOTAL FREE ENERGY PREDICTED BY IDOCK:   -5.12 KCAL/MOL
REMARK 923 INTER-LIGAND FREE ENERGY PREDICTED BY IDOCK:   -5.41 KCAL/MOL
REMARK 924 INTRA-LIGAND FREE ENERGY PREDICTED BY IDOCK:    0.28 KCAL/MOL
REMARK 927      BINDING AFFINITY PREDICTED BY RF-SCORE:    0.00 PKD
ROOT
HETATM    1  C   UNL     1     -12.564  13.845  66.760  1.00  0.00    -0.103 C  
HETATM    2  C   UNL     1     -11.302  14.451  67.317  1.00  0.00    -0.342 C  
HETATM    3  C   UNL     1     -10.306  13.763  67.909  1.00  0.00    -0.244 C  
HETATM    4  C   UNL     1      -9.330  18.744  68.191  1.00  0.00    -0.352 C  
HETATM    5  C   UNL     1      -9.123  14.554  68.348  1.00  0.00    -0.191 C  
HETATM    6  N   UNL     1      -9.141  15.909  68.081  1.00  0.00    -0.181 N  
HETATM    7  O   UNL     1      -8.184  13.996  68.912  1.00  0.00    -0.094 OA 
HETATM    8  C   UNL     1     -10.288  17.976  67.304  1.00  0.00    -0.387 C  
HETATM    9  N   UNL     1     -11.288  15.810  67.146  1.00  0.00    -0.115 NA 
HETATM   10  C   UNL     1      -8.019  16.686  68.590  1.00  0.00    -0.236 C  
HETATM   11  C   UNL     1      -7.955  18.115  68.079  1.00  0.00    -0.269 C  
HETATM   12  C   UNL     1     -10.258  16.481  67.537  1.00  0.00    -0.283 C  
ENDROOT
BRANCH   3  13
HETATM   13  C   UNL     1     -10.181  12.275  68.131  1.00  0.00    -0.212 C  
BRANCH  13  14
HETATM   14  C   UNL     1      -9.251  11.543  67.123  1.00  0.00    -0.169 C  
BRANCH  14  15
HETATM   15  N   UNL     1      -9.508  10.102  66.960  1.00  0.00    -0.164 NA 
HETATM   16  C   UNL     1      -7.635   8.774  65.014  1.00  0.00    -0.100 C  
HETATM   17  C   UNL     1      -8.716   9.790  64.624  1.00  0.00    -0.218 C  
HETATM   18  C   UNL     1      -9.883   9.707  65.603  1.00  0.00    -0.299 C  
HETATM   19  C   UNL     1      -7.231   9.010  66.478  1.00  0.00    -0.085 C  
HETATM   20  C   UNL     1      -8.404   9.250  67.449  1.00  0.00    -0.122 C  
BRANCH  16  21
HETATM   21  C   UNL     1      -8.114   7.395  64.632  1.00  0.00    -0.092 A  
HETATM   22  N   UNL     1      -7.927   6.877  63.411  1.00  0.00    -0.104 NA 
HETATM   23  O   UNL     1      -8.153   5.513  63.540  1.00  0.00    -0.106 OA 
HETATM   24  C   UNL     1      -8.502   5.226  64.823  1.00  0.00    -0.149 A  
HETATM   25  C   UNL     1      -8.576   6.403  65.546  1.00  0.00    -0.115 A  
HETATM   26  C   UNL     1      -8.936   6.348  66.906  1.00  0.00    -0.126 A  
HETATM   27  C   UNL     1      -9.184   5.093  67.476  1.00  0.00    -0.124 A  
HETATM   28  C   UNL     1      -9.058   3.932  66.714  1.00  0.00    -0.150 A  
HETATM   29  C   UNL     1      -8.719   3.961  65.362  1.00  0.00    -0.116 A  
HETATM   30  F   UNL     1      -9.259   2.748  67.308  1.00  0.00    -0.161 F  
ENDBRANCH  16  21
ENDBRANCH  14  15
ENDBRANCH  13  14
ENDBRANCH   3  13
TORSDOF 4
ENDMDL
MODEL      198
REMARK 921   NORMALIZED FREE ENERGY PREDICTED BY IDOCK:   -3.50 KCAL/MOL
REMARK 922        TOTAL FREE ENERGY PREDICTED BY IDOCK:   -5.05 KCAL/MOL
REMARK 923 INTER-LIGAND FREE ENERGY PREDICTED BY IDOCK:   -4.58 KCAL/MOL
REMARK 924 INTRA-LIGAND FREE ENERGY PREDICTED BY IDOCK:   -0.47 KCAL/MOL
REMARK 927      BINDING AFFINITY PREDICTED BY RF-SCORE:    0.00 PKD
ROOT
HETATM    1  C   UNL     1      -6.578   7.416  67.359  1.00  0.00    -0.061 C  
HETATM    2  C   UNL     1      -7.427   6.224  67.719  1.00  0.00    -0.093 C  
HETATM    3  C   UNL     1      -8.376   6.207  68.676  1.00  0.00    -0.114 C  
HETATM    4  C   UNL     1      -7.834   1.538  66.740  1.00  0.00    -0.066 C  
HETATM    5  C   UNL     1      -9.132   4.935  68.838  1.00  0.00    -0.112 C  
HETATM    6  N   UNL     1      -8.816   3.904  67.975  1.00  0.00    -0.103 N  
HETATM    7  O   UNL     1     -10.001   4.840  69.703  1.00  0.00    -0.210 OA 
HETATM    8  C   UNL     1      -7.399   2.886  66.201  1.00  0.00    -0.071 C  
HETATM    9  N   UNL     1      -7.113   5.140  66.943  1.00  0.00    -0.071 NA 
HETATM   10  C   UNL     1      -9.501   2.637  68.196  1.00  0.00    -0.158 C  
HETATM   11  C   UNL     1      -9.306   1.609  67.095  1.00  0.00    -0.008 C  
HETATM   12  C   UNL     1      -7.774   4.043  67.100  1.00  0.00    -0.084 C  
ENDROOT
BRANCH   3  13
HETATM   13  C   UNL     1      -8.840   7.329  69.573  1.00  0.00    -0.137 C  
BRANCH  13  14
HETATM   14  C   UNL     1      -9.694   8.417  68.864  1.00  0.00    -0.167 C  
BRANCH  14  15
HETATM   15  N   UNL     1      -9.097   9.764  68.829  1.00  0.00    -0.132 NA 
HETATM   16  C   UNL     1     -11.077  11.923  68.140  1.00  0.00    -0.294 C  
HETATM   17  C   UNL     1     -10.590  10.847  67.161  1.00  0.00    -0.302 C  
HETATM   18  C   UNL     1      -9.171  10.420  67.525  1.00  0.00    -0.145 C  
HETATM   19  C   UNL     1     -10.940  11.393  69.575  1.00  0.00    -0.226 C  
HETATM   20  C   UNL     1      -9.616  10.663  69.879  1.00  0.00     0.343 C  
BRANCH  16  21
HETATM   21  C   UNL     1     -10.389  13.223  67.803  1.00  0.00    -0.233 A  
HETATM   22  N   UNL     1      -9.802  13.445  66.619  1.00  0.00    -0.271 NA 
HETATM   23  O   UNL     1      -9.617  14.819  66.541  1.00  0.00    -0.255 OA 
HETATM   24  C   UNL     1     -10.062  15.407  67.683  1.00  0.00    -0.236 A  
HETATM   25  C   UNL     1     -10.489  14.426  68.561  1.00  0.00    -0.254 A  
HETATM   26  C   UNL     1     -10.984  14.808  69.822  1.00  0.00    -0.261 A  
HETATM   27  C   UNL     1     -11.043  16.173  70.127  1.00  0.00    -0.373 A  
HETATM   28  C   UNL     1     -10.637  17.124  69.192  1.00  0.00    -0.259 A  
HETATM   29  C   UNL     1     -10.128  16.773  67.943  1.00  0.00    -0.284 A  
HETATM   30  F   UNL     1     -10.752  18.423  69.505  1.00  0.00     0.059 F  
ENDBRANCH  16  21
ENDBRANCH  14  15
ENDBRANCH  13  14
ENDBRANCH   3  13
TORSDOF 4
ENDMDL
MODEL      199
REMARK 921   NORMALIZED FREE ENERGY PREDICTED BY IDOCK:   -3.47 KCAL/MOL
REMARK 922        TOTAL FREE ENERGY PREDICTED BY IDOCK:   -5.02 KCAL/MOL
REMARK 923 INTER-LIGAND FREE ENERGY PREDICTED BY IDOCK:   -5.48 KCAL/MOL
REMARK 924 INTRA-LIGAND FREE ENERGY PREDICTED BY IDOCK:    0.46 KCAL/MOL
REMARK 927      BINDING AFFINITY PREDICTED BY RF-SCORE:    0.00 PKD
ROOT
HETATM    1  C   UNL     1      -7.199  13.911  68.829  1.00  0.00    -0.106 C  
HETATM    2  C   UNL     1      -8.373  13.538  67.960  1.00  0.00    -0.168 C  
HETATM    3  C   UNL     1      -8.922  12.310  67.882  1.00  0.00    -0.186 C  
HETATM    4  C   UNL     1     -11.166  15.388  64.517  1.00  0.00    -0.310 C  
HETATM    5  C   UNL     1     -10.108  12.168  66.994  1.00  0.00    -0.204 C  
HETATM    6  N   UNL     1     -10.556  13.310  66.359  1.00  0.00    -0.281 N  
HETATM    7  O   UNL     1     -10.650  11.073  66.859  1.00  0.00    -0.235 OA 
HETATM    8  C   UNL     1     -10.316  15.706  65.730  1.00  0.00    -0.386 C  
HETATM    9  N   UNL     1      -8.824  14.616  67.247  1.00  0.00    -0.195 NA 
HETATM   10  C   UNL     1     -11.663  13.145  65.428  1.00  0.00    -0.350 C  
HETATM   11  C   UNL     1     -12.276  14.445  64.934  1.00  0.00    -0.440 C  
HETATM   12  C   UNL     1      -9.850  14.476  66.478  1.00  0.00    -0.285 C  
ENDROOT
BRANCH   3  13
HETATM   13  C   UNL     1      -8.547  11.053  68.630  1.00  0.00    -0.157 C  
BRANCH  13  14
HETATM   14  C   UNL     1      -7.365  10.256  68.009  1.00  0.00    -0.086 C  
BRANCH  14  15
HETATM   15  N   UNL     1      -7.362   8.810  68.291  1.00  0.00    -0.086 NA 
HETATM   16  C   UNL     1      -9.148   8.045  70.590  1.00  0.00    -0.154 C  
HETATM   17  C   UNL     1      -7.850   8.851  70.729  1.00  0.00    -0.135 C  
HETATM   18  C   UNL     1      -6.875   8.458  69.624  1.00  0.00    -0.044 C  
HETATM   19  C   UNL     1      -9.708   8.238  69.172  1.00  0.00    -0.171 C  
HETATM   20  C   UNL     1      -8.664   8.160  68.040  1.00  0.00    -0.128 C  
BRANCH  16  21
HETATM   21  C   UNL     1      -8.885   6.632  71.053  1.00  0.00    -0.142 A  
HETATM   22  N   UNL     1      -8.709   6.316  72.343  1.00  0.00    -0.122 NA 
HETATM   23  O   UNL     1      -8.863   4.938  72.418  1.00  0.00    -0.122 OA 
HETATM   24  C   UNL     1      -9.099   4.435  71.177  1.00  0.00    -0.126 A  
HETATM   25  C   UNL     1      -9.039   5.463  70.252  1.00  0.00    -0.166 A  
HETATM   26  C   UNL     1      -9.241   5.170  68.891  1.00  0.00    -0.154 A  
HETATM   27  C   UNL     1      -9.517   3.845  68.531  1.00  0.00    -0.213 A  
HETATM   28  C   UNL     1      -9.605   2.852  69.505  1.00  0.00     0.007 A  
HETATM   29  C   UNL     1      -9.393   3.112  70.858  1.00  0.00    -0.221 A  
HETATM   30  F   UNL     1      -9.916   1.604  69.125  1.00  0.00    -0.121 F  
ENDBRANCH  16  21
ENDBRANCH  14  15
ENDBRANCH  13  14
ENDBRANCH   3  13
TORSDOF 4
ENDMDL
MODEL      200
REMARK 921   NORMALIZED FREE ENERGY PREDICTED BY IDOCK:   -3.47 KCAL/MOL
REMARK 922        TOTAL FREE ENERGY PREDICTED BY IDOCK:   -5.02 KCAL/MOL
REMARK 923 INTER-LIGAND FREE ENERGY PREDICTED BY IDOCK:   -5.16 KCAL/MOL
REMARK 924 INTRA-LIGAND FREE ENERGY PREDICTED BY IDOCK:    0.14 KCAL/MOL
REMARK 927      BINDING AFFINITY PREDICTED BY RF-SCORE:    0.00 PKD
ROOT
HETATM    1  C   UNL     1      -7.212  13.913  68.831  1.00  0.00    -0.103 C  
HETATM    2  C   UNL     1      -8.410  13.573  67.983  1.00  0.00    -0.168 C  
HETATM    3  C   UNL     1      -9.011  12.368  67.934  1.00  0.00    -0.184 C  
HETATM    4  C   UNL     1     -11.164  15.475  64.535  1.00  0.00    -0.327 C  
HETATM    5  C   UNL     1     -10.213  12.260  67.062  1.00  0.00    -0.215 C  
HETATM    6  N   UNL     1     -10.620  13.408  66.411  1.00  0.00    -0.283 N  
HETATM    7  O   UNL     1     -10.801  11.186  66.955  1.00  0.00    -0.262 OA 
HETATM    8  C   UNL     1     -10.288  15.780  65.733  1.00  0.00    -0.390 C  
HETATM    9  N   UNL     1      -8.824  14.657  67.254  1.00  0.00    -0.195 NA 
HETATM   10  C   UNL     1     -11.745  13.272  65.496  1.00  0.00    -0.346 C  
HETATM   11  C   UNL     1     -12.308  14.587  64.984  1.00  0.00    -0.353 C  
HETATM   12  C   UNL     1      -9.864  14.545  66.499  1.00  0.00    -0.285 C  
ENDROOT
BRANCH   3  13
HETATM   13  C   UNL     1      -8.680  11.111  68.702  1.00  0.00    -0.153 C  
BRANCH  13  14
HETATM   14  C   UNL     1      -7.544  10.250  68.080  1.00  0.00    -0.088 C  
BRANCH  14  15
HETATM   15  N   UNL     1      -7.610   8.809  68.379  1.00  0.00    -0.094 NA 
HETATM   16  C   UNL     1      -9.414   8.158  70.698  1.00  0.00    -0.174 C  
HETATM   17  C   UNL     1      -8.078   8.902  70.819  1.00  0.00    -0.179 C  
HETATM   18  C   UNL     1      -7.130   8.449  69.713  1.00  0.00    -0.051 C  
HETATM   19  C   UNL     1      -9.974   8.362  69.282  1.00  0.00    -0.195 C  
HETATM   20  C   UNL     1      -8.944   8.221  68.144  1.00  0.00    -0.139 C  
BRANCH  16  21
HETATM   21  C   UNL     1      -9.217   6.740  71.176  1.00  0.00    -0.159 A  
HETATM   22  N   UNL     1      -9.662   5.678  70.491  1.00  0.00    -0.173 NA 
HETATM   23  O   UNL     1      -8.995   4.581  71.022  1.00  0.00    -0.114 OA 
HETATM   24  C   UNL     1      -8.183   4.984  72.035  1.00  0.00    -0.116 A  
HETATM   25  C   UNL     1      -8.348   6.343  72.235  1.00  0.00    -0.107 A  
HETATM   26  C   UNL     1      -7.609   6.979  73.250  1.00  0.00    -0.086 A  
HETATM   27  C   UNL     1      -6.718   6.207  74.005  1.00  0.00    -0.079 A  
HETATM   28  C   UNL     1      -6.559   4.848  73.739  1.00  0.00    -0.064 A  
HETATM   29  C   UNL     1      -7.290   4.191  72.750  1.00  0.00    -0.072 A  
HETATM   30  F   UNL     1      -5.663   4.153  74.454  1.00  0.00    -0.009 F  
ENDBRANCH  16  21
ENDBRANCH  14  15
ENDBRANCH  13  14
ENDBRANCH   3  13
TORSDOF 4
ENDMDL
MODEL      201
REMARK 921   NORMALIZED FREE ENERGY PREDICTED BY IDOCK:   -3.43 KCAL/MOL
REMARK 922        TOTAL FREE ENERGY PREDICTED BY IDOCK:   -4.97 KCAL/MOL
REMARK 923 INTER-LIGAND FREE ENERGY PREDICTED BY IDOCK:   -4.54 KCAL/MOL
REMARK 924 INTRA-LIGAND FREE ENERGY PREDICTED BY IDOCK:   -0.43 KCAL/MOL
REMARK 927      BINDING AFFINITY PREDICTED BY RF-SCORE:    0.00 PKD
ROOT
HETATM    1  C   UNL     1      -9.651  15.142  68.050  1.00  0.00    -0.204 C  
HETATM    2  C   UNL     1      -8.610  16.231  68.009  1.00  0.00    -0.176 C  
HETATM    3  C   UNL     1      -7.295  16.058  68.249  1.00  0.00    -0.129 C  
HETATM    4  C   UNL     1      -8.258  21.002  67.563  1.00  0.00     0.008 C  
HETATM    5  C   UNL     1      -6.430  17.262  68.109  1.00  0.00    -0.162 C  
HETATM    6  N   UNL     1      -7.047  18.433  67.716  1.00  0.00    -0.216 N  
HETATM    7  O   UNL     1      -5.224  17.183  68.331  1.00  0.00    -0.124 OA 
HETATM    8  C   UNL     1      -9.077  19.779  67.205  1.00  0.00    -0.418 C  
HETATM    9  N   UNL     1      -9.169  17.440  67.690  1.00  0.00    -0.232 NA 
HETATM   10  C   UNL     1      -6.208  19.623  67.664  1.00  0.00    -0.195 C  
HETATM   11  C   UNL     1      -6.858  20.829  67.007  1.00  0.00    -0.385 C  
HETATM   12  C   UNL     1      -8.407  18.474  67.579  1.00  0.00    -0.257 C  
ENDROOT
BRANCH   3  13
HETATM   13  C   UNL     1      -6.549  14.787  68.576  1.00  0.00    -0.094 C  
BRANCH  13  14
HETATM   14  C   UNL     1      -6.623  13.689  67.478  1.00  0.00    -0.107 C  
BRANCH  14  15
HETATM   15  N   UNL     1      -6.507  12.302  67.963  1.00  0.00    -0.068 NA 
HETATM   16  C   UNL     1      -8.965  10.649  67.432  1.00  0.00    -0.138 C  
HETATM   17  C   UNL     1      -8.901  11.813  68.429  1.00  0.00    -0.161 C  
HETATM   18  C   UNL     1      -7.486  11.940  68.987  1.00  0.00    -0.006 C  
HETATM   19  C   UNL     1      -7.890  10.853  66.353  1.00  0.00    -0.154 C  
HETATM   20  C   UNL     1      -6.511  11.299  66.879  1.00  0.00    -0.128 C  
BRANCH  16  21
HETATM   21  C   UNL     1      -8.944   9.354  68.207  1.00  0.00    -0.128 A  
HETATM   22  N   UNL     1      -9.652   9.172  69.330  1.00  0.00    -0.161 NA 
HETATM   23  O   UNL     1      -9.678   7.800  69.542  1.00  0.00    -0.164 OA 
HETATM   24  C   UNL     1      -8.963   7.173  68.569  1.00  0.00    -0.127 A  
HETATM   25  C   UNL     1      -8.400   8.123  67.736  1.00  0.00    -0.128 A  
HETATM   26  C   UNL     1      -7.602   7.699  66.658  1.00  0.00    -0.097 A  
HETATM   27  C   UNL     1      -7.429   6.323  66.461  1.00  0.00    -0.086 A  
HETATM   28  C   UNL     1      -8.050   5.404  67.305  1.00  0.00    -0.101 A  
HETATM   29  C   UNL     1      -8.832   5.799  68.390  1.00  0.00    -0.109 A  
HETATM   30  F   UNL     1      -7.897   4.097  67.056  1.00  0.00    -0.091 F  
ENDBRANCH  16  21
ENDBRANCH  14  15
ENDBRANCH  13  14
ENDBRANCH   3  13
TORSDOF 4
ENDMDL
MODEL      202
REMARK 921   NORMALIZED FREE ENERGY PREDICTED BY IDOCK:   -3.35 KCAL/MOL
REMARK 922        TOTAL FREE ENERGY PREDICTED BY IDOCK:   -4.87 KCAL/MOL
REMARK 923 INTER-LIGAND FREE ENERGY PREDICTED BY IDOCK:   -5.18 KCAL/MOL
REMARK 924 INTRA-LIGAND FREE ENERGY PREDICTED BY IDOCK:    0.31 KCAL/MOL
REMARK 927      BINDING AFFINITY PREDICTED BY RF-SCORE:    0.00 PKD
ROOT
HETATM    1  C   UNL     1      -6.909   8.687  67.259  1.00  0.00    -0.067 C  
HETATM    2  C   UNL     1      -7.893   7.576  66.995  1.00  0.00    -0.116 C  
HETATM    3  C   UNL     1      -9.205   7.611  67.301  1.00  0.00    -0.154 C  
HETATM    4  C   UNL     1      -8.010   3.019  65.476  1.00  0.00    -0.086 C  
HETATM    5  C   UNL     1     -10.010   6.421  66.910  1.00  0.00    -0.167 C  
HETATM    6  N   UNL     1      -9.348   5.408  66.243  1.00  0.00    -0.151 N  
HETATM    7  O   UNL     1     -11.209   6.375  67.173  1.00  0.00    -0.370 OA 
HETATM    8  C   UNL     1      -7.270   4.338  65.387  1.00  0.00    -0.071 C  
HETATM    9  N   UNL     1      -7.283   6.507  66.394  1.00  0.00    -0.071 NA 
HETATM   10  C   UNL     1     -10.124   4.214  65.940  1.00  0.00    -0.152 C  
HETATM   11  C   UNL     1      -9.437   3.230  65.009  1.00  0.00    -0.145 C  
HETATM   12  C   UNL     1      -7.994   5.481  66.067  1.00  0.00    -0.106 C  
ENDROOT
BRANCH   3  13
HETATM   13  C   UNL     1     -10.004   8.727  67.928  1.00  0.00    -0.231 C  
BRANCH  13  14
HETATM   14  C   UNL     1      -9.707  10.141  67.354  1.00  0.00    -0.161 C  
BRANCH  14  15
HETATM   15  N   UNL     1      -9.027  11.067  68.276  1.00  0.00    -0.148 NA 
HETATM   16  C   UNL     1      -9.618  13.962  67.704  1.00  0.00    -0.215 C  
HETATM   17  C   UNL     1      -8.789  13.048  66.792  1.00  0.00    -0.144 C  
HETATM   18  C   UNL     1      -8.088  11.981  67.627  1.00  0.00    -0.155 C  
HETATM   19  C   UNL     1     -10.578  13.100  68.538  1.00  0.00    -0.274 C  
HETATM   20  C   UNL     1      -9.956  11.823  69.140  1.00  0.00     0.177 C  
BRANCH  16  21
HETATM   21  C   UNL     1      -8.676  14.880  68.444  1.00  0.00    -0.172 A  
HETATM   22  N   UNL     1      -7.524  14.454  68.979  1.00  0.00    -0.129 NA 
HETATM   23  O   UNL     1      -6.781  15.598  69.235  1.00  0.00    -0.136 OA 
HETATM   24  C   UNL     1      -7.498  16.699  68.883  1.00  0.00    -0.232 A  
HETATM   25  C   UNL     1      -8.751  16.303  68.450  1.00  0.00    -0.205 A  
HETATM   26  C   UNL     1      -9.675  17.285  68.044  1.00  0.00    -0.277 A  
HETATM   27  C   UNL     1      -9.275  18.626  68.077  1.00  0.00    -0.329 A  
HETATM   28  C   UNL     1      -7.987  18.970  68.484  1.00  0.00    -0.346 A  
HETATM   29  C   UNL     1      -7.059  18.019  68.907  1.00  0.00    -0.268 A  
HETATM   30  F   UNL     1      -7.628  20.261  68.458  1.00  0.00    -0.288 F  
ENDBRANCH  16  21
ENDBRANCH  14  15
ENDBRANCH  13  14
ENDBRANCH   3  13
TORSDOF 4
ENDMDL
MODEL      203
REMARK 921   NORMALIZED FREE ENERGY PREDICTED BY IDOCK:   -3.33 KCAL/MOL
REMARK 922        TOTAL FREE ENERGY PREDICTED BY IDOCK:   -4.85 KCAL/MOL
REMARK 923 INTER-LIGAND FREE ENERGY PREDICTED BY IDOCK:   -5.33 KCAL/MOL
REMARK 924 INTRA-LIGAND FREE ENERGY PREDICTED BY IDOCK:    0.48 KCAL/MOL
REMARK 927      BINDING AFFINITY PREDICTED BY RF-SCORE:    0.00 PKD
ROOT
HETATM    1  C   UNL     1     -12.646  11.851  69.032  1.00  0.00     0.652 C  
HETATM    2  C   UNL     1     -11.285  11.259  68.769  1.00  0.00    -0.250 C  
HETATM    3  C   UNL     1     -10.138  11.960  68.680  1.00  0.00    -0.186 C  
HETATM    4  C   UNL     1      -9.229   7.074  67.612  1.00  0.00    -0.120 C  
HETATM    5  C   UNL     1      -8.894  11.172  68.460  1.00  0.00    -0.161 C  
HETATM    6  N   UNL     1      -9.025   9.799  68.401  1.00  0.00    -0.123 N  
HETATM    7  O   UNL     1      -7.812  11.746  68.350  1.00  0.00    -0.128 OA 
HETATM    8  C   UNL     1     -10.404   7.729  68.309  1.00  0.00    -0.239 C  
HETATM    9  N   UNL     1     -11.355   9.899  68.630  1.00  0.00    -0.067 NA 
HETATM   10  C   UNL     1      -7.816   9.043  68.102  1.00  0.00    -0.100 C  
HETATM   11  C   UNL     1      -7.948   7.539  68.277  1.00  0.00    -0.123 C  
HETATM   12  C   UNL     1     -10.268   9.231  68.434  1.00  0.00    -0.202 C  
ENDROOT
BRANCH   3  13
HETATM   13  C   UNL     1      -9.917  13.445  68.843  1.00  0.00     0.032 C  
BRANCH  13  14
HETATM   14  C   UNL     1     -10.996  14.340  68.172  1.00  0.00    -0.246 C  
BRANCH  14  15
HETATM   15  N   UNL     1     -10.653  15.769  68.065  1.00  0.00    -0.270 NA 
HETATM   16  C   UNL     1      -7.771  16.245  67.341  1.00  0.00    -0.187 C  
HETATM   17  C   UNL     1      -8.246  15.675  68.683  1.00  0.00    -0.168 C  
HETATM   18  C   UNL     1      -9.634  16.215  69.013  1.00  0.00    -0.251 C  
HETATM   19  C   UNL     1      -8.825  15.941  66.265  1.00  0.00    -0.386 C  
HETATM   20  C   UNL     1     -10.286  16.182  66.695  1.00  0.00    -0.296 C  
BRANCH  16  21
HETATM   21  C   UNL     1      -7.376  17.688  67.547  1.00  0.00    -0.189 A  
HETATM   22  N   UNL     1      -7.936  18.695  66.864  1.00  0.00    -0.235 NA 
HETATM   23  O   UNL     1      -7.608  19.851  67.560  1.00  0.00    -0.264 OA 
HETATM   24  C   UNL     1      -6.831  19.536  68.632  1.00  0.00    -0.308 A  
HETATM   25  C   UNL     1      -6.580  18.175  68.624  1.00  0.00    -0.233 A  
HETATM   26  C   UNL     1      -5.780  17.623  69.642  1.00  0.00    -0.231 A  
HETATM   27  C   UNL     1      -5.287  18.478  70.636  1.00  0.00    -0.257 A  
HETATM   28  C   UNL     1      -5.602  19.836  70.621  1.00  0.00    -0.263 A  
HETATM   29  C   UNL     1      -6.378  20.411  69.615  1.00  0.00    -0.256 A  
HETATM   30  F   UNL     1      -5.149  20.612  71.615  1.00  0.00    -0.273 F  
ENDBRANCH  16  21
ENDBRANCH  14  15
ENDBRANCH  13  14
ENDBRANCH   3  13
TORSDOF 4
ENDMDL
MODEL      204
REMARK 921   NORMALIZED FREE ENERGY PREDICTED BY IDOCK:   -3.21 KCAL/MOL
REMARK 922        TOTAL FREE ENERGY PREDICTED BY IDOCK:   -4.69 KCAL/MOL
REMARK 923 INTER-LIGAND FREE ENERGY PREDICTED BY IDOCK:   -4.19 KCAL/MOL
REMARK 924 INTRA-LIGAND FREE ENERGY PREDICTED BY IDOCK:   -0.51 KCAL/MOL
REMARK 927      BINDING AFFINITY PREDICTED BY RF-SCORE:    0.00 PKD
ROOT
HETATM    1  C   UNL     1     -11.806   8.715  71.699  1.00  0.00    -0.389 C  
HETATM    2  C   UNL     1     -10.373   9.035  71.358  1.00  0.00    -0.326 C  
HETATM    3  C   UNL     1      -9.305   8.714  72.115  1.00  0.00    -0.343 C  
HETATM    4  C   UNL     1      -7.795  11.499  68.139  1.00  0.00    -0.128 C  
HETATM    5  C   UNL     1      -7.970   9.085  71.569  1.00  0.00     0.016 C  
HETATM    6  N   UNL     1      -7.947   9.690  70.328  1.00  0.00    -0.173 N  
HETATM    7  O   UNL     1      -6.952   8.840  72.213  1.00  0.00    -0.246 OA 
HETATM    8  C   UNL     1      -9.083  10.737  68.376  1.00  0.00    -0.164 C  
HETATM    9  N   UNL     1     -10.285   9.701  70.165  1.00  0.00    -0.247 NA 
HETATM   10  C   UNL     1      -6.645  10.125  69.841  1.00  0.00    -0.100 C  
HETATM   11  C   UNL     1      -6.626  10.567  68.388  1.00  0.00    -0.055 C  
HETATM   12  C   UNL     1      -9.121  10.020  69.709  1.00  0.00    -0.193 C  
ENDROOT
BRANCH   3  13
HETATM   13  C   UNL     1      -9.259   7.961  73.422  1.00  0.00    -0.351 C  
BRANCH  13  14
HETATM   14  C   UNL     1      -8.514   6.597  73.360  1.00  0.00    -0.118 C  
BRANCH  14  15
HETATM   15  N   UNL     1      -9.144   5.572  72.510  1.00  0.00    -0.136 NA 
HETATM   16  C   UNL     1      -7.152   3.838  71.067  1.00  0.00    -0.033 C  
HETATM   17  C   UNL     1      -7.386   5.325  70.768  1.00  0.00    -0.073 C  
HETATM   18  C   UNL     1      -8.831   5.696  71.087  1.00  0.00    -0.135 C  
HETATM   19  C   UNL     1      -7.559   3.549  72.519  1.00  0.00    -0.055 C  
HETATM   20  C   UNL     1      -8.887   4.192  72.968  1.00  0.00    -0.099 C  
BRANCH  16  21
HETATM   21  C   UNL     1      -7.808   3.023  69.979  1.00  0.00    -0.043 A  
HETATM   22  N   UNL     1      -8.742   2.098  70.233  1.00  0.00    -0.058 NA 
HETATM   23  O   UNL     1      -9.357   1.837  69.015  1.00  0.00    -0.126 OA 
HETATM   24  C   UNL     1      -8.771   2.580  68.038  1.00  0.00    -0.106 A  
HETATM   25  C   UNL     1      -7.718   3.294  68.582  1.00  0.00    -0.055 A  
HETATM   26  C   UNL     1      -6.954   4.129  67.745  1.00  0.00    -0.056 A  
HETATM   27  C   UNL     1      -7.309   4.217  66.393  1.00  0.00    -0.080 A  
HETATM   28  C   UNL     1      -8.404   3.506  65.902  1.00  0.00    -0.106 A  
HETATM   29  C   UNL     1      -9.166   2.660  66.706  1.00  0.00    -0.106 A  
HETATM   30  F   UNL     1      -8.738   3.653  64.612  1.00  0.00    -0.105 F  
ENDBRANCH  16  21
ENDBRANCH  14  15
ENDBRANCH  13  14
ENDBRANCH   3  13
TORSDOF 4
ENDMDL
MODEL      205
REMARK 921   NORMALIZED FREE ENERGY PREDICTED BY IDOCK:   -2.85 KCAL/MOL
REMARK 922        TOTAL FREE ENERGY PREDICTED BY IDOCK:   -4.25 KCAL/MOL
REMARK 923 INTER-LIGAND FREE ENERGY PREDICTED BY IDOCK:   -4.77 KCAL/MOL
REMARK 924 INTRA-LIGAND FREE ENERGY PREDICTED BY IDOCK:    0.52 KCAL/MOL
REMARK 927      BINDING AFFINITY PREDICTED BY RF-SCORE:    0.00 PKD
ROOT
HETATM    1  C   UNL     1     -10.156   7.750  71.100  1.00  0.00    -0.206 C  
HETATM    2  C   UNL     1      -9.588   6.387  71.399  1.00  0.00    -0.162 C  
HETATM    3  C   UNL     1      -8.455   5.884  70.870  1.00  0.00    -0.127 C  
HETATM    4  C   UNL     1     -10.717   2.334  73.719  1.00  0.00    -0.251 C  
HETATM    5  C   UNL     1      -8.048   4.530  71.337  1.00  0.00    -0.095 C  
HETATM    6  N   UNL     1      -8.847   3.929  72.289  1.00  0.00    -0.104 N  
HETATM    7  O   UNL     1      -7.035   4.001  70.884  1.00  0.00    -0.032 OA 
HETATM    8  C   UNL     1     -10.909   3.836  73.680  1.00  0.00    -0.329 C  
HETATM    9  N   UNL     1     -10.375   5.706  72.289  1.00  0.00    -0.199 NA 
HETATM   10  C   UNL     1      -8.488   2.572  72.677  1.00  0.00    -0.067 C  
HETATM   11  C   UNL     1      -9.239   2.037  73.884  1.00  0.00    -0.079 C  
HETATM   12  C   UNL     1     -10.011   4.532  72.679  1.00  0.00    -0.165 C  
ENDROOT
BRANCH   3  13
HETATM   13  C   UNL     1      -7.486   6.533  69.911  1.00  0.00    -0.088 C  
BRANCH  13  14
HETATM   14  C   UNL     1      -7.776   6.259  68.409  1.00  0.00    -0.104 C  
BRANCH  14  15
HETATM   15  N   UNL     1      -8.671   7.227  67.752  1.00  0.00    -0.126 NA 
HETATM   16  C   UNL     1      -7.436   8.543  65.344  1.00  0.00    -0.086 C  
HETATM   17  C   UNL     1      -6.985   8.781  66.791  1.00  0.00    -0.080 C  
HETATM   18  C   UNL     1      -8.166   8.599  67.738  1.00  0.00    -0.118 C  
HETATM   19  C   UNL     1      -8.099   7.160  65.247  1.00  0.00    -0.134 C  
HETATM   20  C   UNL     1      -9.076   6.822  66.391  1.00  0.00    -0.152 C  
BRANCH  16  21
HETATM   21  C   UNL     1      -8.237   9.739  64.890  1.00  0.00    -0.142 A  
HETATM   22  N   UNL     1      -9.039   9.706  63.817  1.00  0.00    -0.226 NA 
HETATM   23  O   UNL     1      -9.863  10.819  63.927  1.00  0.00    -0.277 OA 
HETATM   24  C   UNL     1      -9.532  11.525  65.042  1.00  0.00    -0.152 A  
HETATM   25  C   UNL     1      -8.443  10.927  65.650  1.00  0.00    -0.139 A  
HETATM   26  C   UNL     1      -7.917  11.499  66.824  1.00  0.00    -0.152 A  
HETATM   27  C   UNL     1      -8.537  12.644  67.339  1.00  0.00    -0.189 A  
HETATM   28  C   UNL     1      -9.657  13.186  66.710  1.00  0.00    -0.249 A  
HETATM   29  C   UNL     1     -10.187  12.648  65.538  1.00  0.00    -0.298 A  
HETATM   30  F   UNL     1     -10.248  14.255  67.260  1.00  0.00    -0.245 F  
ENDBRANCH  16  21
ENDBRANCH  14  15
ENDBRANCH  13  14
ENDBRANCH   3  13
TORSDOF 4
ENDMDL
MODEL      206
REMARK 921   NORMALIZED FREE ENERGY PREDICTED BY IDOCK:   -2.84 KCAL/MOL
REMARK 922        TOTAL FREE ENERGY PREDICTED BY IDOCK:   -4.25 KCAL/MOL
REMARK 923 INTER-LIGAND FREE ENERGY PREDICTED BY IDOCK:   -5.73 KCAL/MOL
REMARK 924 INTRA-LIGAND FREE ENERGY PREDICTED BY IDOCK:    1.48 KCAL/MOL
REMARK 927      BINDING AFFINITY PREDICTED BY RF-SCORE:    0.00 PKD
ROOT
HETATM    1  C   UNL     1     -11.392  19.635  66.998  1.00  0.00     0.224 C  
HETATM    2  C   UNL     1      -9.961  19.181  67.128  1.00  0.00    -0.356 C  
HETATM    3  C   UNL     1      -9.522  18.232  67.977  1.00  0.00    -0.298 C  
HETATM    4  C   UNL     1      -5.562  20.308  65.559  1.00  0.00    -0.207 C  
HETATM    5  C   UNL     1      -8.071  17.901  67.911  1.00  0.00    -0.244 C  
HETATM    6  N   UNL     1      -7.319  18.571  66.967  1.00  0.00    -0.209 N  
HETATM    7  O   UNL     1      -7.596  17.058  68.670  1.00  0.00    -0.216 OA 
HETATM    8  C   UNL     1      -7.041  20.332  65.230  1.00  0.00    -0.222 C  
HETATM    9  N   UNL     1      -9.145  19.859  66.262  1.00  0.00    -0.374 NA 
HETATM   10  C   UNL     1      -5.887  18.303  66.966  1.00  0.00    -0.145 C  
HETATM   11  C   UNL     1      -5.135  18.870  65.774  1.00  0.00    -0.169 C  
HETATM   12  C   UNL     1      -7.890  19.565  66.221  1.00  0.00    -0.317 C  
ENDROOT
BRANCH   3  13
HETATM   13  C   UNL     1     -10.310  17.392  68.953  1.00  0.00    -0.340 C  
BRANCH  13  14
HETATM   14  C   UNL     1     -11.071  16.196  68.314  1.00  0.00    -0.348 C  
BRANCH  14  15
HETATM   15  N   UNL     1     -10.258  14.994  68.060  1.00  0.00    -0.226 NA 
HETATM   16  C   UNL     1     -11.893  12.610  67.223  1.00  0.00    -0.395 C  
HETATM   17  C   UNL     1     -11.918  13.231  68.626  1.00  0.00    -0.345 C  
HETATM   18  C   UNL     1     -10.565  13.865  68.936  1.00  0.00    -0.212 C  
HETATM   19  C   UNL     1     -11.464  13.681  66.209  1.00  0.00    -0.352 C  
HETATM   20  C   UNL     1     -10.277  14.561  66.648  1.00  0.00    -0.275 C  
BRANCH  16  21
HETATM   21  C   UNL     1     -11.087  11.335  67.280  1.00  0.00    -0.305 A  
HETATM   22  N   UNL     1     -11.352  10.277  66.501  1.00  0.00     0.239 NA 
HETATM   23  O   UNL     1     -10.223   9.472  66.560  1.00  0.00    -0.254 OA 
HETATM   24  C   UNL     1      -9.304  10.031  67.393  1.00  0.00    -0.148 A  
HETATM   25  C   UNL     1      -9.837  11.181  67.948  1.00  0.00    -0.187 A  
HETATM   26  C   UNL     1      -9.061  11.924  68.857  1.00  0.00     0.150 A  
HETATM   27  C   UNL     1      -7.767  11.474  69.146  1.00  0.00     0.030 A  
HETATM   28  C   UNL     1      -7.261  10.331  68.530  1.00  0.00    -0.080 A  
HETATM   29  C   UNL     1      -8.015   9.569  67.638  1.00  0.00    -0.106 A  
HETATM   30  F   UNL     1      -6.002   9.959  68.799  1.00  0.00    -0.039 F  
ENDBRANCH  16  21
ENDBRANCH  14  15
ENDBRANCH  13  14
ENDBRANCH   3  13
TORSDOF 4
ENDMDL
MODEL      207
REMARK 921   NORMALIZED FREE ENERGY PREDICTED BY IDOCK:   -2.82 KCAL/MOL
REMARK 922        TOTAL FREE ENERGY PREDICTED BY IDOCK:   -4.22 KCAL/MOL
REMARK 923 INTER-LIGAND FREE ENERGY PREDICTED BY IDOCK:   -4.58 KCAL/MOL
REMARK 924 INTRA-LIGAND FREE ENERGY PREDICTED BY IDOCK:    0.37 KCAL/MOL
REMARK 927      BINDING AFFINITY PREDICTED BY RF-SCORE:    0.00 PKD
ROOT
HETATM    1  C   UNL     1     -12.098   9.257  70.946  1.00  0.00    -0.297 C  
HETATM    2  C   UNL     1     -10.722   9.537  70.400  1.00  0.00    -0.284 C  
HETATM    3  C   UNL     1      -9.565   9.152  70.975  1.00  0.00    -0.350 C  
HETATM    4  C   UNL     1      -8.563  12.019  66.899  1.00  0.00    -0.189 C  
HETATM    5  C   UNL     1      -8.314   9.493  70.243  1.00  0.00    -0.195 C  
HETATM    6  N   UNL     1      -8.454  10.141  69.031  1.00  0.00    -0.140 N  
HETATM    7  O   UNL     1      -7.221   9.190  70.716  1.00  0.00    -0.085 OA 
HETATM    8  C   UNL     1      -9.829  11.296  67.308  1.00  0.00    -0.203 C  
HETATM    9  N   UNL     1     -10.788  10.242  69.228  1.00  0.00    -0.224 NA 
HETATM   10  C   UNL     1      -7.224  10.545  68.364  1.00  0.00    -0.080 C  
HETATM   11  C   UNL     1      -7.408  11.038  66.938  1.00  0.00    -0.133 C  
HETATM   12  C   UNL     1      -9.694  10.534  68.608  1.00  0.00    -0.173 C  
ENDROOT
BRANCH   3  13
HETATM   13  C   UNL     1      -9.353   8.352  72.237  1.00  0.00    -0.356 C  
BRANCH  13  14
HETATM   14  C   UNL     1      -9.036   6.847  72.006  1.00  0.00    -0.136 C  
BRANCH  14  15
HETATM   15  N   UNL     1      -9.533   6.285  70.739  1.00  0.00    -0.171 NA 
HETATM   16  C   UNL     1      -7.576   4.418  69.419  1.00  0.00    -0.055 C  
HETATM   17  C   UNL     1      -7.376   5.933  69.554  1.00  0.00    -0.075 C  
HETATM   18  C   UNL     1      -8.730   6.635  69.569  1.00  0.00    -0.135 C  
HETATM   19  C   UNL     1      -8.512   3.934  70.538  1.00  0.00    -0.099 C  
HETATM   20  C   UNL     1      -9.746   4.824  70.789  1.00  0.00    -0.197 C  
BRANCH  16  21
HETATM   21  C   UNL     1      -7.971   4.113  67.994  1.00  0.00    -0.085 A  
HETATM   22  N   UNL     1      -8.925   3.225  67.683  1.00  0.00    -0.134 NA 
HETATM   23  O   UNL     1      -9.259   3.479  66.359  1.00  0.00    -0.151 OA 
HETATM   24  C   UNL     1      -8.488   4.490  65.878  1.00  0.00    -0.114 A  
HETATM   25  C   UNL     1      -7.587   4.877  66.854  1.00  0.00    -0.088 A  
HETATM   26  C   UNL     1      -6.673   5.909  66.570  1.00  0.00    -0.057 A  
HETATM   27  C   UNL     1      -6.730   6.518  65.310  1.00  0.00    -0.043 A  
HETATM   28  C   UNL     1      -7.683   6.118  64.374  1.00  0.00    -0.106 A  
HETATM   29  C   UNL     1      -8.589   5.087  64.625  1.00  0.00    -0.150 A  
HETATM   30  F   UNL     1      -7.735   6.756  63.197  1.00  0.00    -0.078 F  
ENDBRANCH  16  21
ENDBRANCH  14  15
ENDBRANCH  13  14
ENDBRANCH   3  13
TORSDOF 4
ENDMDL
MODEL      208
REMARK 921   NORMALIZED FREE ENERGY PREDICTED BY IDOCK:   -2.80 KCAL/MOL
REMARK 922        TOTAL FREE ENERGY PREDICTED BY IDOCK:   -4.19 KCAL/MOL
REMARK 923 INTER-LIGAND FREE ENERGY PREDICTED BY IDOCK:   -5.17 KCAL/MOL
REMARK 924 INTRA-LIGAND FREE ENERGY PREDICTED BY IDOCK:    0.98 KCAL/MOL
REMARK 927      BINDING AFFINITY PREDICTED BY RF-SCORE:    0.00 PKD
ROOT
HETATM    1  C   UNL     1     -10.410  17.973  66.440  1.00  0.00    -0.382 C  
HETATM    2  C   UNL     1      -9.560  17.328  67.504  1.00  0.00    -0.259 C  
HETATM    3  C   UNL     1      -9.985  16.395  68.379  1.00  0.00    -0.238 C  
HETATM    4  C   UNL     1      -5.190  17.685  69.470  1.00  0.00    -0.178 C  
HETATM    5  C   UNL     1      -8.966  15.855  69.320  1.00  0.00    -0.251 C  
HETATM    6  N   UNL     1      -7.677  16.333  69.191  1.00  0.00    -0.235 N  
HETATM    7  O   UNL     1      -9.285  15.014  70.158  1.00  0.00     0.167 OA 
HETATM    8  C   UNL     1      -6.006  17.896  68.211  1.00  0.00    -0.172 C  
HETATM    9  N   UNL     1      -8.279  17.813  67.476  1.00  0.00    -0.223 NA 
HETATM   10  C   UNL     1      -6.707  15.862  70.170  1.00  0.00     0.172 C  
HETATM   11  C   UNL     1      -5.264  16.221  69.857  1.00  0.00    -0.137 C  
HETATM   12  C   UNL     1      -7.410  17.338  68.302  1.00  0.00    -0.214 C  
ENDROOT
BRANCH   3  13
HETATM   13  C   UNL     1     -11.347  15.756  68.498  1.00  0.00    -0.374 C  
BRANCH  13  14
HETATM   14  C   UNL     1     -11.326  14.234  68.811  1.00  0.00    -0.275 C  
BRANCH  14  15
HETATM   15  N   UNL     1     -10.393  13.435  67.997  1.00  0.00    -0.235 NA 
HETATM   16  C   UNL     1     -11.567  10.829  67.057  1.00  0.00     0.364 C  
HETATM   17  C   UNL     1     -11.223  11.150  68.517  1.00  0.00    -0.318 C  
HETATM   18  C   UNL     1     -10.058  12.133  68.571  1.00  0.00    -0.187 C  
HETATM   19  C   UNL     1     -11.830  12.142  66.304  1.00  0.00    -0.320 C  
HETATM   20  C   UNL     1     -10.826  13.276  66.595  1.00  0.00    -0.281 C  
BRANCH  16  21
HETATM   21  C   UNL     1     -10.507   9.906  66.507  1.00  0.00    -0.143 A  
HETATM   22  N   UNL     1      -9.972  10.063  65.289  1.00  0.00    -0.324 NA 
HETATM   23  O   UNL     1      -8.817   9.293  65.281  1.00  0.00    -0.174 OA 
HETATM   24  C   UNL     1      -8.681   8.658  66.477  1.00  0.00    -0.126 A  
HETATM   25  C   UNL     1      -9.778   8.946  67.269  1.00  0.00    -0.235 A  
HETATM   26  C   UNL     1      -9.857   8.382  68.556  1.00  0.00    -0.186 A  
HETATM   27  C   UNL     1      -8.806   7.565  68.989  1.00  0.00    -0.132 A  
HETATM   28  C   UNL     1      -7.703   7.337  68.167  1.00  0.00    -0.117 A  
HETATM   29  C   UNL     1      -7.608   7.871  66.882  1.00  0.00    -0.099 A  
HETATM   30  F   UNL     1      -6.696   6.587  68.635  1.00  0.00    -0.055 F  
ENDBRANCH  16  21
ENDBRANCH  14  15
ENDBRANCH  13  14
ENDBRANCH   3  13
TORSDOF 4
ENDMDL
MODEL      209
REMARK 921   NORMALIZED FREE ENERGY PREDICTED BY IDOCK:   -2.79 KCAL/MOL
REMARK 922        TOTAL FREE ENERGY PREDICTED BY IDOCK:   -4.18 KCAL/MOL
REMARK 923 INTER-LIGAND FREE ENERGY PREDICTED BY IDOCK:   -4.52 KCAL/MOL
REMARK 924 INTRA-LIGAND FREE ENERGY PREDICTED BY IDOCK:    0.34 KCAL/MOL
REMARK 927      BINDING AFFINITY PREDICTED BY RF-SCORE:    0.00 PKD
ROOT
HETATM    1  C   UNL     1     -10.252   9.531  71.068  1.00  0.00    -0.332 C  
HETATM    2  C   UNL     1      -9.314   8.467  71.577  1.00  0.00    -0.222 C  
HETATM    3  C   UNL     1      -7.992   8.409  71.320  1.00  0.00    -0.141 C  
HETATM    4  C   UNL     1      -9.393   4.288  73.947  1.00  0.00    -0.109 C  
HETATM    5  C   UNL     1      -7.239   7.296  71.962  1.00  0.00    -0.071 C  
HETATM    6  N   UNL     1      -7.954   6.449  72.785  1.00  0.00    -0.104 N  
HETATM    7  O   UNL     1      -6.034   7.169  71.757  1.00  0.00    -0.037 OA 
HETATM    8  C   UNL     1     -10.092   5.618  73.753  1.00  0.00    -0.220 C  
HETATM    9  N   UNL     1      -9.977   7.550  72.349  1.00  0.00    -0.175 NA 
HETATM   10  C   UNL     1      -7.228   5.316  73.341  1.00  0.00    -0.090 C  
HETATM   11  C   UNL     1      -7.975   4.548  74.418  1.00  0.00    -0.092 C  
HETATM   12  C   UNL     1      -9.311   6.589  72.894  1.00  0.00    -0.135 C  
ENDROOT
BRANCH   3  13
HETATM   13  C   UNL     1      -7.138   9.362  70.519  1.00  0.00    -0.113 C  
BRANCH  13  14
HETATM   14  C   UNL     1      -7.217   9.169  68.979  1.00  0.00    -0.072 C  
BRANCH  14  15
HETATM   15  N   UNL     1      -8.350   9.838  68.316  1.00  0.00    -0.106 NA 
HETATM   16  C   UNL     1      -7.563  12.362  66.879  1.00  0.00     0.037 C  
HETATM   17  C   UNL     1      -7.562  12.195  68.404  1.00  0.00    -0.128 C  
HETATM   18  C   UNL     1      -8.628  11.184  68.815  1.00  0.00    -0.132 C  
HETATM   19  C   UNL     1      -7.393  10.983  66.223  1.00  0.00    -0.097 C  
HETATM   20  C   UNL     1      -8.242   9.855  66.844  1.00  0.00    -0.120 C  
BRANCH  16  21
HETATM   21  C   UNL     1      -8.770  13.180  66.488  1.00  0.00     0.094 A  
HETATM   22  N   UNL     1      -8.737  14.516  66.390  1.00  0.00    -0.047 NA 
HETATM   23  O   UNL     1      -9.873  14.870  65.675  1.00  0.00    -0.328 OA 
HETATM   24  C   UNL     1     -10.593  13.756  65.376  1.00  0.00    -0.322 A  
HETATM   25  C   UNL     1      -9.979  12.654  65.945  1.00  0.00    -0.274 A  
HETATM   26  C   UNL     1     -10.560  11.384  65.775  1.00  0.00    -0.315 A  
HETATM   27  C   UNL     1     -11.732  11.287  65.014  1.00  0.00     0.338 A  
HETATM   28  C   UNL     1     -12.290  12.423  64.428  1.00  0.00    -0.447 A  
HETATM   29  C   UNL     1     -11.743  13.694  64.595  1.00  0.00    -0.414 A  
HETATM   30  F   UNL     1     -13.386  12.282  63.670  1.00  0.00    -0.340 F  
ENDBRANCH  16  21
ENDBRANCH  14  15
ENDBRANCH  13  14
ENDBRANCH   3  13
TORSDOF 4
ENDMDL
MODEL      210
REMARK 921   NORMALIZED FREE ENERGY PREDICTED BY IDOCK:   -2.71 KCAL/MOL
REMARK 922        TOTAL FREE ENERGY PREDICTED BY IDOCK:   -4.08 KCAL/MOL
REMARK 923 INTER-LIGAND FREE ENERGY PREDICTED BY IDOCK:   -5.20 KCAL/MOL
REMARK 924 INTRA-LIGAND FREE ENERGY PREDICTED BY IDOCK:    1.12 KCAL/MOL
REMARK 927      BINDING AFFINITY PREDICTED BY RF-SCORE:    0.00 PKD
ROOT
HETATM    1  C   UNL     1      -8.600  18.432  66.165  1.00  0.00    -0.136 C  
HETATM    2  C   UNL     1      -7.791  18.131  67.400  1.00  0.00    -0.218 C  
HETATM    3  C   UNL     1      -7.313  16.918  67.740  1.00  0.00    -0.169 C  
HETATM    4  C   UNL     1      -6.303  20.238  71.454  1.00  0.00    -0.053 C  
HETATM    5  C   UNL     1      -6.497  16.850  68.983  1.00  0.00    -0.202 C  
HETATM    6  N   UNL     1      -6.278  18.036  69.654  1.00  0.00    -0.234 N  
HETATM    7  O   UNL     1      -6.044  15.772  69.364  1.00  0.00    -0.123 OA 
HETATM    8  C   UNL     1      -6.691  20.465  70.007  1.00  0.00     0.057 C  
HETATM    9  N   UNL     1      -7.596  19.260  68.151  1.00  0.00    -0.279 NA 
HETATM   10  C   UNL     1      -5.550  17.947  70.913  1.00  0.00     0.017 C  
HETATM   11  C   UNL     1      -5.126  19.283  71.497  1.00  0.00    -0.338 C  
HETATM   12  C   UNL     1      -6.891  19.183  69.229  1.00  0.00    -0.301 C  
ENDROOT
BRANCH   3  13
HETATM   13  C   UNL     1      -7.428  15.610  66.994  1.00  0.00    -0.228 C  
BRANCH  13  14
HETATM   14  C   UNL     1      -6.785  14.392  67.716  1.00  0.00    -0.175 C  
BRANCH  14  15
HETATM   15  N   UNL     1      -7.610  13.172  67.751  1.00  0.00    -0.139 NA 
HETATM   16  C   UNL     1     -10.566  13.735  67.670  1.00  0.00    -0.244 C  
HETATM   17  C   UNL     1      -9.650  14.070  68.854  1.00  0.00    -0.016 C  
HETATM   18  C   UNL     1      -8.494  13.077  68.912  1.00  0.00     0.285 C  
HETATM   19  C   UNL     1      -9.726  13.688  66.384  1.00  0.00    -0.300 C  
HETATM   20  C   UNL     1      -8.379  12.948  66.510  1.00  0.00     0.282 C  
BRANCH  16  21
HETATM   21  C   UNL     1     -11.376  12.512  68.023  1.00  0.00    -0.289 A  
HETATM   22  N   UNL     1     -11.298  11.368  67.329  1.00  0.00    -0.425 NA 
HETATM   23  O   UNL     1     -11.873  10.396  68.137  1.00  0.00    -0.338 OA 
HETATM   24  C   UNL     1     -12.317  10.963  69.291  1.00  0.00    -0.037 A  
HETATM   25  C   UNL     1     -12.102  12.329  69.236  1.00  0.00    -0.219 A  
HETATM   26  C   UNL     1     -12.498  13.127  70.326  1.00  0.00    -0.233 A  
HETATM   27  C   UNL     1     -13.077  12.496  71.434  1.00  0.00    -0.303 A  
HETATM   28  C   UNL     1     -13.236  11.111  71.457  1.00  0.00    -0.279 A  
HETATM   29  C   UNL     1     -12.867  10.301  70.384  1.00  0.00    -0.202 A  
HETATM   30  F   UNL     1     -13.752  10.541  72.554  1.00  0.00    -0.362 F  
ENDBRANCH  16  21
ENDBRANCH  14  15
ENDBRANCH  13  14
ENDBRANCH   3  13
TORSDOF 4
ENDMDL
MODEL      211
REMARK 921   NORMALIZED FREE ENERGY PREDICTED BY IDOCK:   -2.60 KCAL/MOL
REMARK 922        TOTAL FREE ENERGY PREDICTED BY IDOCK:   -3.95 KCAL/MOL
REMARK 923 INTER-LIGAND FREE ENERGY PREDICTED BY IDOCK:   -5.24 KCAL/MOL
REMARK 924 INTRA-LIGAND FREE ENERGY PREDICTED BY IDOCK:    1.29 KCAL/MOL
REMARK 927      BINDING AFFINITY PREDICTED BY RF-SCORE:    0.00 PKD
ROOT
HETATM    1  C   UNL     1      -7.276   7.078  71.716  1.00  0.00    -0.078 C  
HETATM    2  C   UNL     1      -7.996   5.777  71.477  1.00  0.00    -0.113 C  
HETATM    3  C   UNL     1      -9.120   5.384  72.109  1.00  0.00    -0.147 C  
HETATM    4  C   UNL     1      -7.478   1.644  69.082  1.00  0.00    -0.043 C  
HETATM    5  C   UNL     1      -9.696   4.077  71.687  1.00  0.00    -0.172 C  
HETATM    6  N   UNL     1      -9.048   3.406  70.669  1.00  0.00    -0.102 N  
HETATM    7  O   UNL     1     -10.710   3.646  72.233  1.00  0.00     0.013 OA 
HETATM    8  C   UNL     1      -7.139   3.121  69.097  1.00  0.00    -0.045 C  
HETATM    9  N   UNL     1      -7.362   5.028  70.522  1.00  0.00    -0.060 NA 
HETATM   10  C   UNL     1      -9.569   2.091  70.322  1.00  0.00    -0.021 C  
HETATM   11  C   UNL     1      -8.986   1.491  69.054  1.00  0.00    -0.137 C  
HETATM   12  C   UNL     1      -7.871   3.895  70.172  1.00  0.00    -0.048 C  
ENDROOT
BRANCH   3  13
HETATM   13  C   UNL     1      -9.931   6.118  73.148  1.00  0.00    -0.187 C  
BRANCH  13  14
HETATM   14  C   UNL     1     -11.467   5.895  73.052  1.00  0.00    -0.107 C  
BRANCH  14  15
HETATM   15  N   UNL     1     -12.210   6.932  72.316  1.00  0.00    -0.197 NA 
HETATM   16  C   UNL     1     -10.527   8.391  70.294  1.00  0.00    -0.225 C  
HETATM   17  C   UNL     1     -10.355   8.509  71.814  1.00  0.00    -0.354 C  
HETATM   18  C   UNL     1     -11.697   8.288  72.505  1.00  0.00    -0.383 C  
HETATM   19  C   UNL     1     -11.175   7.038  69.966  1.00  0.00    -0.310 C  
HETATM   20  C   UNL     1     -12.355   6.640  70.876  1.00  0.00    -0.201 C  
BRANCH  16  21
HETATM   21  C   UNL     1     -11.214   9.638  69.792  1.00  0.00    -0.174 A  
HETATM   22  N   UNL     1     -12.291  10.162  70.394  1.00  0.00    -0.229 NA 
HETATM   23  O   UNL     1     -12.409  11.453  69.898  1.00  0.00    -0.273 OA 
HETATM   24  C   UNL     1     -11.428  11.686  68.985  1.00  0.00    -0.294 A  
HETATM   25  C   UNL     1     -10.686  10.531  68.814  1.00  0.00    -0.249 A  
HETATM   26  C   UNL     1      -9.616  10.536  67.899  1.00  0.00    -0.164 A  
HETATM   27  C   UNL     1      -9.335  11.724  67.213  1.00  0.00    -0.171 A  
HETATM   28  C   UNL     1     -10.089  12.872  67.450  1.00  0.00    -0.223 A  
HETATM   29  C   UNL     1     -11.164  12.890  68.339  1.00  0.00    -0.305 A  
HETATM   30  F   UNL     1      -9.760  14.001  66.807  1.00  0.00    -0.242 F  
ENDBRANCH  16  21
ENDBRANCH  14  15
ENDBRANCH  13  14
ENDBRANCH   3  13
TORSDOF 4
ENDMDL
MODEL      212
REMARK 921   NORMALIZED FREE ENERGY PREDICTED BY IDOCK:   -2.59 KCAL/MOL
REMARK 922        TOTAL FREE ENERGY PREDICTED BY IDOCK:   -3.94 KCAL/MOL
REMARK 923 INTER-LIGAND FREE ENERGY PREDICTED BY IDOCK:   -3.77 KCAL/MOL
REMARK 924 INTRA-LIGAND FREE ENERGY PREDICTED BY IDOCK:   -0.17 KCAL/MOL
REMARK 927      BINDING AFFINITY PREDICTED BY RF-SCORE:    0.00 PKD
ROOT
HETATM    1  C   UNL     1      -7.656   7.210  63.220  1.00  0.00    -0.109 C  
HETATM    2  C   UNL     1      -8.453   7.897  64.299  1.00  0.00     0.138 C  
HETATM    3  C   UNL     1      -8.802   7.344  65.477  1.00  0.00     0.002 C  
HETATM    4  C   UNL     1     -10.908  11.953  65.074  1.00  0.00    -0.351 C  
HETATM    5  C   UNL     1      -9.552   8.216  66.423  1.00  0.00    -0.216 C  
HETATM    6  N   UNL     1      -9.792   9.515  66.021  1.00  0.00    -0.272 N  
HETATM    7  O   UNL     1      -9.920   7.773  67.509  1.00  0.00    -0.158 OA 
HETATM    8  C   UNL     1      -9.760  11.324  64.312  1.00  0.00    -0.295 C  
HETATM    9  N   UNL     1      -8.784   9.174  63.933  1.00  0.00    -0.172 NA 
HETATM   10  C   UNL     1     -10.598  10.334  66.916  1.00  0.00    -0.217 C  
HETATM   11  C   UNL     1     -10.641  11.810  66.559  1.00  0.00    -0.289 C  
HETATM   12  C   UNL     1      -9.440   9.915  64.762  1.00  0.00    -0.291 C  
ENDROOT
BRANCH   3  13
HETATM   13  C   UNL     1      -8.478   5.971  66.015  1.00  0.00    -0.139 C  
BRANCH  13  14
HETATM   14  C   UNL     1      -7.023   5.805  66.537  1.00  0.00    -0.064 C  
BRANCH  14  15
HETATM   15  N   UNL     1      -6.852   5.972  67.991  1.00  0.00    -0.061 NA 
HETATM   16  C   UNL     1      -7.047   3.385  69.516  1.00  0.00    -0.042 C  
HETATM   17  C   UNL     1      -8.224   4.065  68.804  1.00  0.00    -0.082 C  
HETATM   18  C   UNL     1      -8.015   5.576  68.783  1.00  0.00    -0.095 C  
HETATM   19  C   UNL     1      -5.736   3.819  68.843  1.00  0.00    -0.022 C  
HETATM   20  C   UNL     1      -5.634   5.323  68.517  1.00  0.00    -0.015 C  
BRANCH  16  21
HETATM   21  C   UNL     1      -7.185   3.623  71.000  1.00  0.00    -0.033 A  
HETATM   22  N   UNL     1      -6.131   3.845  71.798  1.00  0.00    -0.013 NA 
HETATM   23  O   UNL     1      -6.652   4.372  72.972  1.00  0.00    -0.042 OA 
HETATM   24  C   UNL     1      -8.008   4.434  72.886  1.00  0.00    -0.091 A  
HETATM   25  C   UNL     1      -8.410   3.888  71.679  1.00  0.00    -0.085 A  
HETATM   26  C   UNL     1      -9.784   3.836  71.378  1.00  0.00    -0.242 A  
HETATM   27  C   UNL     1     -10.688   4.360  72.310  1.00  0.00    -0.070 A  
HETATM   28  C   UNL     1     -10.230   4.935  73.494  1.00  0.00    -0.184 A  
HETATM   29  C   UNL     1      -8.876   4.985  73.824  1.00  0.00    -0.115 A  
HETATM   30  F   UNL     1     -11.124   5.466  74.339  1.00  0.00    -0.146 F  
ENDBRANCH  16  21
ENDBRANCH  14  15
ENDBRANCH  13  14
ENDBRANCH   3  13
TORSDOF 4
ENDMDL
MODEL      213
REMARK 921   NORMALIZED FREE ENERGY PREDICTED BY IDOCK:   -2.48 KCAL/MOL
REMARK 922        TOTAL FREE ENERGY PREDICTED BY IDOCK:   -3.80 KCAL/MOL
REMARK 923 INTER-LIGAND FREE ENERGY PREDICTED BY IDOCK:   -3.59 KCAL/MOL
REMARK 924 INTRA-LIGAND FREE ENERGY PREDICTED BY IDOCK:   -0.22 KCAL/MOL
REMARK 927      BINDING AFFINITY PREDICTED BY RF-SCORE:    0.00 PKD
ROOT
HETATM    1  C   UNL     1      -7.845  14.381  68.090  1.00  0.00    -0.138 C  
HETATM    2  C   UNL     1      -8.760  13.825  67.030  1.00  0.00    -0.198 C  
HETATM    3  C   UNL     1      -8.840  12.527  66.675  1.00  0.00    -0.142 C  
HETATM    4  C   UNL     1     -11.815  15.304  63.629  1.00  0.00     0.762 C  
HETATM    5  C   UNL     1      -9.847  12.184  65.633  1.00  0.00    -0.237 C  
HETATM    6  N   UNL     1     -10.627  13.217  65.152  1.00  0.00    -0.307 N  
HETATM    7  O   UNL     1      -9.962  11.023  65.247  1.00  0.00    -0.234 OA 
HETATM    8  C   UNL     1     -11.204  15.631  64.976  1.00  0.00    -0.335 C  
HETATM    9  N   UNL     1      -9.517  14.814  66.460  1.00  0.00    -0.277 NA 
HETATM   10  C   UNL     1     -11.550  12.887  64.075  1.00  0.00    -0.426 C  
HETATM   11  C   UNL     1     -12.548  13.981  63.737  1.00  0.00     0.089 C  
HETATM   12  C   UNL     1     -10.382  14.500  65.555  1.00  0.00    -0.359 C  
ENDROOT
BRANCH   3  13
HETATM   13  C   UNL     1      -8.094  11.342  67.238  1.00  0.00    -0.140 C  
BRANCH  13  14
HETATM   14  C   UNL     1      -8.782  10.658  68.453  1.00  0.00    -0.141 C  
BRANCH  14  15
HETATM   15  N   UNL     1      -8.152   9.408  68.913  1.00  0.00    -0.101 NA 
HETATM   16  C   UNL     1      -7.262   7.626  66.658  1.00  0.00    -0.087 C  
HETATM   17  C   UNL     1      -8.727   7.916  67.009  1.00  0.00    -0.132 C  
HETATM   18  C   UNL     1      -8.856   8.194  68.504  1.00  0.00    -0.134 C  
HETATM   19  C   UNL     1      -6.389   8.791  67.148  1.00  0.00    -0.060 C  
HETATM   20  C   UNL     1      -6.721   9.308  68.562  1.00  0.00    -0.058 C  
BRANCH  16  21
HETATM   21  C   UNL     1      -6.919   6.239  67.146  1.00  0.00    -0.072 A  
HETATM   22  N   UNL     1      -5.883   5.995  67.960  1.00  0.00    -0.012 NA 
HETATM   23  O   UNL     1      -6.099   4.723  68.474  1.00  0.00    -0.028 OA 
HETATM   24  C   UNL     1      -7.238   4.202  67.946  1.00  0.00    -0.064 A  
HETATM   25  C   UNL     1      -7.760   5.094  67.025  1.00  0.00    -0.092 A  
HETATM   26  C   UNL     1      -8.941   4.755  66.340  1.00  0.00    -0.113 A  
HETATM   27  C   UNL     1      -9.554   3.532  66.637  1.00  0.00    -0.132 A  
HETATM   28  C   UNL     1      -9.010   2.685  67.602  1.00  0.00    -0.162 A  
HETATM   29  C   UNL     1      -7.832   2.990  68.283  1.00  0.00    -0.059 A  
HETATM   30  F   UNL     1      -9.650   1.544  67.891  1.00  0.00    -0.197 F  
ENDBRANCH  16  21
ENDBRANCH  14  15
ENDBRANCH  13  14
ENDBRANCH   3  13
TORSDOF 4
ENDMDL
MODEL      214
REMARK 921   NORMALIZED FREE ENERGY PREDICTED BY IDOCK:   -2.38 KCAL/MOL
REMARK 922        TOTAL FREE ENERGY PREDICTED BY IDOCK:   -3.67 KCAL/MOL
REMARK 923 INTER-LIGAND FREE ENERGY PREDICTED BY IDOCK:   -5.34 KCAL/MOL
REMARK 924 INTRA-LIGAND FREE ENERGY PREDICTED BY IDOCK:    1.67 KCAL/MOL
REMARK 927      BINDING AFFINITY PREDICTED BY RF-SCORE:    0.00 PKD
ROOT
HETATM    1  C   UNL     1      -6.236   7.766  68.868  1.00  0.00    -0.036 C  
HETATM    2  C   UNL     1      -6.020   9.242  68.653  1.00  0.00    -0.044 C  
HETATM    3  C   UNL     1      -5.894   9.841  67.452  1.00  0.00    -0.050 C  
HETATM    4  C   UNL     1      -5.147  13.258  71.140  1.00  0.00    -0.155 C  
HETATM    5  C   UNL     1      -5.733  11.321  67.462  1.00  0.00    -0.050 C  
HETATM    6  N   UNL     1      -5.761  11.946  68.694  1.00  0.00    -0.052 N  
HETATM    7  O   UNL     1      -5.594  11.933  66.405  1.00  0.00    -0.284 OA 
HETATM    8  C   UNL     1      -5.793  11.889  71.182  1.00  0.00     0.331 C  
HETATM    9  N   UNL     1      -5.968   9.915  69.844  1.00  0.00    -0.042 NA 
HETATM   10  C   UNL     1      -5.519  13.382  68.700  1.00  0.00    -0.074 C  
HETATM   11  C   UNL     1      -5.789  14.065  70.029  1.00  0.00    -0.133 C  
HETATM   12  C   UNL     1      -5.823  11.197  69.836  1.00  0.00    -0.099 C  
ENDROOT
BRANCH   3  13
HETATM   13  C   UNL     1      -5.963   9.229  66.074  1.00  0.00    -0.055 C  
BRANCH  13  14
HETATM   14  C   UNL     1      -7.271   9.536  65.291  1.00  0.00    -0.104 C  
BRANCH  14  15
HETATM   15  N   UNL     1      -8.499   9.570  66.104  1.00  0.00    -0.118 NA 
HETATM   16  C   UNL     1      -9.997  12.171  65.884  1.00  0.00    -0.267 C  
HETATM   17  C   UNL     1      -8.634  12.009  66.569  1.00  0.00    -0.100 C  
HETATM   18  C   UNL     1      -8.505  10.600  67.141  1.00  0.00    -0.128 C  
HETATM   19  C   UNL     1     -10.166  11.060  64.836  1.00  0.00    -0.373 C  
HETATM   20  C   UNL     1      -9.733   9.653  65.298  1.00  0.00    -0.260 C  
BRANCH  16  21
HETATM   21  C   UNL     1     -11.057  12.295  66.951  1.00  0.00    -0.290 A  
HETATM   22  N   UNL     1     -11.579  11.233  67.578  1.00  0.00    -0.559 NA 
HETATM   23  O   UNL     1     -12.215  11.735  68.706  1.00  0.00    -0.367 OA 
HETATM   24  C   UNL     1     -12.098  13.090  68.733  1.00  0.00    -0.162 A  
HETATM   25  C   UNL     1     -11.440  13.511  67.590  1.00  0.00    -0.351 A  
HETATM   26  C   UNL     1     -11.216  14.887  67.399  1.00  0.00    -0.343 A  
HETATM   27  C   UNL     1     -11.654  15.775  68.389  1.00  0.00    -0.343 A  
HETATM   28  C   UNL     1     -12.278  15.297  69.541  1.00  0.00    -0.239 A  
HETATM   29  C   UNL     1     -12.526  13.941  69.748  1.00  0.00    -0.240 A  
HETATM   30  F   UNL     1     -12.642  16.175  70.486  1.00  0.00    -0.352 F  
ENDBRANCH  16  21
ENDBRANCH  14  15
ENDBRANCH  13  14
ENDBRANCH   3  13
TORSDOF 4
ENDMDL
MODEL      215
REMARK 921   NORMALIZED FREE ENERGY PREDICTED BY IDOCK:   -2.36 KCAL/MOL
REMARK 922        TOTAL FREE ENERGY PREDICTED BY IDOCK:   -3.65 KCAL/MOL
REMARK 923 INTER-LIGAND FREE ENERGY PREDICTED BY IDOCK:   -4.48 KCAL/MOL
REMARK 924 INTRA-LIGAND FREE ENERGY PREDICTED BY IDOCK:    0.84 KCAL/MOL
REMARK 927      BINDING AFFINITY PREDICTED BY RF-SCORE:    0.00 PKD
ROOT
HETATM    1  C   UNL     1      -6.908   4.918  63.189  1.00  0.00    -0.038 C  
HETATM    2  C   UNL     1      -7.651   6.000  63.930  1.00  0.00    -0.088 C  
HETATM    3  C   UNL     1      -8.330   5.828  65.080  1.00  0.00    -0.146 C  
HETATM    4  C   UNL     1      -8.978  10.591  63.426  1.00  0.00    -0.232 C  
HETATM    5  C   UNL     1      -8.955   7.044  65.671  1.00  0.00     0.061 C  
HETATM    6  N   UNL     1      -8.754   8.237  65.006  1.00  0.00    -0.079 N  
HETATM    7  O   UNL     1      -9.605   6.958  66.711  1.00  0.00    -0.157 OA 
HETATM    8  C   UNL     1      -7.939   9.551  63.056  1.00  0.00    -0.135 C  
HETATM    9  N   UNL     1      -7.549   7.203  63.282  1.00  0.00    -0.103 NA 
HETATM   10  C   UNL     1      -9.439   9.404  65.545  1.00  0.00    -0.260 C  
HETATM   11  C   UNL     1      -9.011  10.728  64.935  1.00  0.00    -0.201 C  
HETATM   12  C   UNL     1      -8.101   8.246  63.805  1.00  0.00    -0.126 C  
ENDROOT
BRANCH   3  13
HETATM   13  C   UNL     1      -8.493   4.576  65.908  1.00  0.00    -0.114 C  
BRANCH  13  14
HETATM   14  C   UNL     1      -7.558   4.489  67.147  1.00  0.00    -0.086 C  
BRANCH  14  15
HETATM   15  N   UNL     1      -8.196   4.783  68.441  1.00  0.00    -0.084 NA 
HETATM   16  C   UNL     1      -8.606   2.336  70.146  1.00  0.00    -0.099 C  
HETATM   17  C   UNL     1      -9.361   2.622  68.841  1.00  0.00    -0.223 C  
HETATM   18  C   UNL     1      -9.489   4.129  68.636  1.00  0.00    -0.156 C  
HETATM   19  C   UNL     1      -7.259   3.074  70.117  1.00  0.00    -0.040 C  
HETATM   20  C   UNL     1      -7.318   4.526  69.600  1.00  0.00    -0.051 C  
BRANCH  16  21
HETATM   21  C   UNL     1      -9.533   2.614  71.305  1.00  0.00    -0.148 A  
HETATM   22  N   UNL     1      -9.957   1.653  72.137  1.00  0.00    -0.127 NA 
HETATM   23  O   UNL     1     -10.462   2.313  73.249  1.00  0.00    -0.115 OA 
HETATM   24  C   UNL     1     -10.368   3.658  73.066  1.00  0.00    -0.164 A  
HETATM   25  C   UNL     1      -9.859   3.909  71.804  1.00  0.00    -0.249 A  
HETATM   26  C   UNL     1      -9.685   5.243  71.390  1.00  0.00    -0.219 A  
HETATM   27  C   UNL     1     -10.018   6.265  72.288  1.00  0.00    -0.182 A  
HETATM   28  C   UNL     1     -10.491   5.959  73.564  1.00  0.00    -0.258 A  
HETATM   29  C   UNL     1     -10.687   4.647  73.992  1.00  0.00    -0.352 A  
HETATM   30  F   UNL     1     -10.755   6.965  74.409  1.00  0.00    -0.315 F  
ENDBRANCH  16  21
ENDBRANCH  14  15
ENDBRANCH  13  14
ENDBRANCH   3  13
TORSDOF 4
ENDMDL
MODEL      216
REMARK 921   NORMALIZED FREE ENERGY PREDICTED BY IDOCK:   -2.28 KCAL/MOL
REMARK 922        TOTAL FREE ENERGY PREDICTED BY IDOCK:   -3.55 KCAL/MOL
REMARK 923 INTER-LIGAND FREE ENERGY PREDICTED BY IDOCK:   -4.56 KCAL/MOL
REMARK 924 INTRA-LIGAND FREE ENERGY PREDICTED BY IDOCK:    1.01 KCAL/MOL
REMARK 927      BINDING AFFINITY PREDICTED BY RF-SCORE:    0.00 PKD
ROOT
HETATM    1  C   UNL     1     -11.842  10.085  71.418  1.00  0.00    -0.447 C  
HETATM    2  C   UNL     1     -11.149   9.107  70.504  1.00  0.00    -0.260 C  
HETATM    3  C   UNL     1     -11.040   9.237  69.167  1.00  0.00    -0.002 C  
HETATM    4  C   UNL     1      -9.095   4.764  70.601  1.00  0.00    -0.177 C  
HETATM    5  C   UNL     1     -10.272   8.177  68.457  1.00  0.00    -0.208 C  
HETATM    6  N   UNL     1      -9.716   7.180  69.234  1.00  0.00    -0.159 N  
HETATM    7  O   UNL     1     -10.147   8.220  67.235  1.00  0.00    -0.198 OA 
HETATM    8  C   UNL     1      -9.408   6.008  71.408  1.00  0.00    -0.159 C  
HETATM    9  N   UNL     1     -10.632   8.052  71.207  1.00  0.00    -0.207 NA 
HETATM   10  C   UNL     1      -9.039   6.103  68.524  1.00  0.00    -0.117 C  
HETATM   11  C   UNL     1      -8.244   5.159  69.410  1.00  0.00    -0.087 C  
HETATM   12  C   UNL     1      -9.974   7.139  70.577  1.00  0.00    -0.187 C  
ENDROOT
BRANCH   3  13
HETATM   13  C   UNL     1     -11.530  10.354  68.278  1.00  0.00    -0.218 C  
BRANCH  13  14
HETATM   14  C   UNL     1     -10.570  10.729  67.115  1.00  0.00    -0.256 C  
BRANCH  14  15
HETATM   15  N   UNL     1     -10.045  12.105  67.148  1.00  0.00    -0.206 NA 
HETATM   16  C   UNL     1      -7.045  12.227  67.349  1.00  0.00    -0.151 C  
HETATM   17  C   UNL     1      -7.972  11.738  68.470  1.00  0.00    -0.145 C  
HETATM   18  C   UNL     1      -9.321  12.443  68.372  1.00  0.00    -0.158 C  
HETATM   19  C   UNL     1      -7.748  12.033  65.997  1.00  0.00     0.771 C  
HETATM   20  C   UNL     1      -9.232  12.451  65.965  1.00  0.00    -0.050 C  
BRANCH  16  21
HETATM   21  C   UNL     1      -6.566  13.616  67.698  1.00  0.00    -0.165 A  
HETATM   22  N   UNL     1      -5.371  13.850  68.255  1.00  0.00    -0.103 NA 
HETATM   23  O   UNL     1      -5.135  15.208  68.088  1.00  0.00    -0.104 OA 
HETATM   24  C   UNL     1      -6.197  15.784  67.463  1.00  0.00    -0.143 A  
HETATM   25  C   UNL     1      -7.179  14.829  67.265  1.00  0.00    -0.114 A  
HETATM   26  C   UNL     1      -8.382  15.206  66.641  1.00  0.00    -0.162 A  
HETATM   27  C   UNL     1      -8.526  16.535  66.224  1.00  0.00    -0.363 A  
HETATM   28  C   UNL     1      -7.491  17.450  66.411  1.00  0.00    -0.305 A  
HETATM   29  C   UNL     1      -6.296  17.107  67.042  1.00  0.00    -0.220 A  
HETATM   30  F   UNL     1      -7.650  18.701  65.958  1.00  0.00    -0.264 F  
ENDBRANCH  16  21
ENDBRANCH  14  15
ENDBRANCH  13  14
ENDBRANCH   3  13
TORSDOF 4
ENDMDL
MODEL      217
REMARK 921   NORMALIZED FREE ENERGY PREDICTED BY IDOCK:   -2.15 KCAL/MOL
REMARK 922        TOTAL FREE ENERGY PREDICTED BY IDOCK:   -3.39 KCAL/MOL
REMARK 923 INTER-LIGAND FREE ENERGY PREDICTED BY IDOCK:   -6.36 KCAL/MOL
REMARK 924 INTRA-LIGAND FREE ENERGY PREDICTED BY IDOCK:    2.97 KCAL/MOL
REMARK 927      BINDING AFFINITY PREDICTED BY RF-SCORE:    0.00 PKD
ROOT
HETATM    1  C   UNL     1      -8.708   6.477  67.393  1.00  0.00    -0.117 C  
HETATM    2  C   UNL     1      -8.957   6.624  68.872  1.00  0.00    -0.130 C  
HETATM    3  C   UNL     1      -8.868   7.778  69.564  1.00  0.00    -0.139 C  
HETATM    4  C   UNL     1      -9.792   3.943  72.770  1.00  0.00    -0.199 C  
HETATM    5  C   UNL     1      -9.201   7.710  71.013  1.00  0.00    -0.148 C  
HETATM    6  N   UNL     1      -9.601   6.484  71.507  1.00  0.00    -0.161 N  
HETATM    7  O   UNL     1      -9.124   8.719  71.711  1.00  0.00    -0.234 OA 
HETATM    8  C   UNL     1      -9.956   4.032  71.267  1.00  0.00    -0.202 C  
HETATM    9  N   UNL     1      -9.292   5.424  69.440  1.00  0.00    -0.119 NA 
HETATM   10  C   UNL     1      -9.843   6.409  72.942  1.00  0.00    -0.167 C  
HETATM   11  C   UNL     1     -10.502   5.121  73.407  1.00  0.00    -0.275 C  
HETATM   12  C   UNL     1      -9.573   5.381  70.699  1.00  0.00    -0.172 C  
ENDROOT
BRANCH   3  13
HETATM   13  C   UNL     1      -8.543   9.163  69.061  1.00  0.00    -0.133 C  
BRANCH  13  14
HETATM   14  C   UNL     1      -7.814   9.203  67.688  1.00  0.00    -0.096 C  
BRANCH  14  15
HETATM   15  N   UNL     1      -8.228  10.290  66.785  1.00  0.00    -0.123 NA 
HETATM   16  C   UNL     1      -8.239  12.993  68.107  1.00  0.00    -0.157 C  
HETATM   17  C   UNL     1      -9.220  11.861  68.437  1.00  0.00    -0.173 C  
HETATM   18  C   UNL     1      -9.441  10.991  67.204  1.00  0.00    -0.164 C  
HETATM   19  C   UNL     1      -6.947  12.387  67.539  1.00  0.00    -0.142 C  
HETATM   20  C   UNL     1      -7.152  11.262  66.505  1.00  0.00    -0.097 C  
BRANCH  16  21
HETATM   21  C   UNL     1      -8.960  14.021  67.268  1.00  0.00    -0.218 A  
HETATM   22  N   UNL     1      -8.449  15.233  67.014  1.00  0.00    -0.211 NA 
HETATM   23  O   UNL     1      -9.184  15.736  65.949  1.00  0.00    -0.340 OA 
HETATM   24  C   UNL     1     -10.146  14.843  65.593  1.00  0.00    -0.359 A  
HETATM   25  C   UNL     1     -10.104  13.764  66.458  1.00  0.00    -0.286 A  
HETATM   26  C   UNL     1     -11.025  12.713  66.285  1.00  0.00    -0.314 A  
HETATM   27  C   UNL     1     -11.936  12.797  65.225  1.00  0.00    -0.473 A  
HETATM   28  C   UNL     1     -11.911  13.888  64.356  1.00  0.00    -0.450 A  
HETATM   29  C   UNL     1     -11.020  14.949  64.516  1.00  0.00    -0.216 A  
HETATM   30  F   UNL     1     -12.769  13.909  63.327  1.00  0.00    -0.346 F  
ENDBRANCH  16  21
ENDBRANCH  14  15
ENDBRANCH  13  14
ENDBRANCH   3  13
TORSDOF 4
ENDMDL
MODEL      218
REMARK 921   NORMALIZED FREE ENERGY PREDICTED BY IDOCK:   -2.15 KCAL/MOL
REMARK 922        TOTAL FREE ENERGY PREDICTED BY IDOCK:   -3.39 KCAL/MOL
REMARK 923 INTER-LIGAND FREE ENERGY PREDICTED BY IDOCK:   -4.38 KCAL/MOL
REMARK 924 INTRA-LIGAND FREE ENERGY PREDICTED BY IDOCK:    1.00 KCAL/MOL
REMARK 927      BINDING AFFINITY PREDICTED BY RF-SCORE:    0.00 PKD
ROOT
HETATM    1  C   UNL     1      -8.390   9.555  69.573  1.00  0.00    -0.145 C  
HETATM    2  C   UNL     1      -8.890  10.452  68.471  1.00  0.00    -0.142 C  
HETATM    3  C   UNL     1      -9.451  10.030  67.320  1.00  0.00    -0.179 C  
HETATM    4  C   UNL     1      -8.933  15.086  67.201  1.00  0.00    -0.235 C  
HETATM    5  C   UNL     1      -9.920  11.088  66.383  1.00  0.00    -0.222 C  
HETATM    6  N   UNL     1      -9.768  12.398  66.791  1.00  0.00    -0.218 N  
HETATM    7  O   UNL     1     -10.424  10.777  65.306  1.00  0.00    -0.270 OA 
HETATM    8  C   UNL     1      -8.900  14.118  68.367  1.00  0.00    -0.187 C  
HETATM    9  N   UNL     1      -8.705  11.772  68.784  1.00  0.00    -0.046 NA 
HETATM   10  C   UNL     1     -10.152  13.426  65.833  1.00  0.00    -0.293 C  
HETATM   11  C   UNL     1     -10.194  14.836  66.398  1.00  0.00    -0.299 C  
HETATM   12  C   UNL     1      -9.112  12.676  67.959  1.00  0.00    -0.207 C  
ENDROOT
BRANCH   3  13
HETATM   13  C   UNL     1      -9.741   8.620  66.866  1.00  0.00    -0.278 C  
BRANCH  13  14
HETATM   14  C   UNL     1     -10.124   7.636  68.007  1.00  0.00    -0.187 C  
BRANCH  14  15
HETATM   15  N   UNL     1      -8.994   6.935  68.642  1.00  0.00    -0.130 NA 
HETATM   16  C   UNL     1      -8.988   3.972  68.115  1.00  0.00    -0.156 C  
HETATM   17  C   UNL     1     -10.022   4.697  68.987  1.00  0.00    -0.186 C  
HETATM   18  C   UNL     1      -9.388   5.928  69.627  1.00  0.00    -0.140 C  
HETATM   19  C   UNL     1      -8.404   4.965  67.100  1.00  0.00    -0.106 C  
HETATM   20  C   UNL     1      -8.046   6.352  67.672  1.00  0.00    -0.114 C  
BRANCH  16  21
HETATM   21  C   UNL     1      -8.023   3.247  69.022  1.00  0.00    -0.053 A  
HETATM   22  N   UNL     1      -6.732   3.071  68.711  1.00  0.00    -0.037 NA 
HETATM   23  O   UNL     1      -6.103   2.714  69.896  1.00  0.00    -0.022 OA 
HETATM   24  C   UNL     1      -7.019   2.648  70.899  1.00  0.00    -0.033 A  
HETATM   25  C   UNL     1      -8.278   2.896  70.380  1.00  0.00    -0.068 A  
HETATM   26  C   UNL     1      -9.390   2.867  71.242  1.00  0.00    -0.208 A  
HETATM   27  C   UNL     1      -9.170   2.607  72.601  1.00  0.00    -0.126 A  
HETATM   28  C   UNL     1      -7.877   2.402  73.081  1.00  0.00    -0.047 A  
HETATM   29  C   UNL     1      -6.761   2.410  72.246  1.00  0.00    -0.015 A  
HETATM   30  F   UNL     1      -7.704   2.202  74.395  1.00  0.00    -0.037 F  
ENDBRANCH  16  21
ENDBRANCH  14  15
ENDBRANCH  13  14
ENDBRANCH   3  13
TORSDOF 4
ENDMDL
MODEL      219
REMARK 921   NORMALIZED FREE ENERGY PREDICTED BY IDOCK:   -2.04 KCAL/MOL
REMARK 922        TOTAL FREE ENERGY PREDICTED BY IDOCK:   -3.26 KCAL/MOL
REMARK 923 INTER-LIGAND FREE ENERGY PREDICTED BY IDOCK:   -3.31 KCAL/MOL
REMARK 924 INTRA-LIGAND FREE ENERGY PREDICTED BY IDOCK:    0.06 KCAL/MOL
REMARK 927      BINDING AFFINITY PREDICTED BY RF-SCORE:    0.00 PKD
ROOT
HETATM    1  C   UNL     1      -6.327   6.739  72.122  1.00  0.00    -0.049 C  
HETATM    2  C   UNL     1      -7.718   7.283  71.925  1.00  0.00    -0.090 C  
HETATM    3  C   UNL     1      -8.019   8.572  71.673  1.00  0.00    -0.183 C  
HETATM    4  C   UNL     1     -12.311   5.906  72.235  1.00  0.00     0.045 C  
HETATM    5  C   UNL     1      -9.459   8.889  71.465  1.00  0.00    -0.277 C  
HETATM    6  N   UNL     1     -10.347   7.832  71.515  1.00  0.00    -0.192 N  
HETATM    7  O   UNL     1      -9.810  10.047  71.249  1.00  0.00     0.317 OA 
HETATM    8  C   UNL     1     -10.892   5.446  71.964  1.00  0.00    -0.266 C  
HETATM    9  N   UNL     1      -8.657   6.292  72.032  1.00  0.00    -0.131 NA 
HETATM   10  C   UNL     1     -11.760   8.164  71.394  1.00  0.00    -0.285 C  
HETATM   11  C   UNL     1     -12.679   6.968  71.218  1.00  0.00    -0.400 C  
HETATM   12  C   UNL     1      -9.901   6.584  71.854  1.00  0.00    -0.157 C  
ENDROOT
BRANCH   3  13
HETATM   13  C   UNL     1      -7.089   9.748  71.500  1.00  0.00     0.656 C  
BRANCH  13  14
HETATM   14  C   UNL     1      -7.008  10.306  70.051  1.00  0.00    -0.151 C  
BRANCH  14  15
HETATM   15  N   UNL     1      -7.439  11.705  69.889  1.00  0.00     0.504 NA 
HETATM   16  C   UNL     1      -6.427  12.972  67.353  1.00  0.00    -0.107 C  
HETATM   17  C   UNL     1      -5.540  12.580  68.542  1.00  0.00    -0.055 C  
HETATM   18  C   UNL     1      -6.341  12.670  69.838  1.00  0.00    -0.031 C  
HETATM   19  C   UNL     1      -7.691  12.098  67.361  1.00  0.00    -0.165 C  
HETATM   20  C   UNL     1      -8.348  11.910  68.744  1.00  0.00     0.020 C  
BRANCH  16  21
HETATM   21  C   UNL     1      -6.611  14.470  67.367  1.00  0.00     0.058 A  
HETATM   22  N   UNL     1      -5.591  15.325  67.213  1.00  0.00    -0.295 NA 
HETATM   23  O   UNL     1      -6.168  16.552  66.915  1.00  0.00    -0.213 OA 
HETATM   24  C   UNL     1      -7.523  16.435  66.923  1.00  0.00    -0.234 A  
HETATM   25  C   UNL     1      -7.865  15.145  67.289  1.00  0.00    -0.241 A  
HETATM   26  C   UNL     1      -9.225  14.797  67.376  1.00  0.00    -0.200 A  
HETATM   27  C   UNL     1     -10.181  15.772  67.064  1.00  0.00    -0.280 A  
HETATM   28  C   UNL     1      -9.785  17.047  66.662  1.00  0.00    -0.277 A  
HETATM   29  C   UNL     1      -8.444  17.422  66.584  1.00  0.00    -0.291 A  
HETATM   30  F   UNL     1     -10.729  17.938  66.328  1.00  0.00    -0.340 F  
ENDBRANCH  16  21
ENDBRANCH  14  15
ENDBRANCH  13  14
ENDBRANCH   3  13
TORSDOF 4
ENDMDL
MODEL      220
REMARK 921   NORMALIZED FREE ENERGY PREDICTED BY IDOCK:   -1.81 KCAL/MOL
REMARK 922        TOTAL FREE ENERGY PREDICTED BY IDOCK:   -2.96 KCAL/MOL
REMARK 923 INTER-LIGAND FREE ENERGY PREDICTED BY IDOCK:   -5.12 KCAL/MOL
REMARK 924 INTRA-LIGAND FREE ENERGY PREDICTED BY IDOCK:    2.15 KCAL/MOL
REMARK 927      BINDING AFFINITY PREDICTED BY RF-SCORE:    0.00 PKD
ROOT
HETATM    1  C   UNL     1     -10.397  17.948  66.459  1.00  0.00    -0.362 C  
HETATM    2  C   UNL     1      -9.561  17.299  67.531  1.00  0.00    -0.259 C  
HETATM    3  C   UNL     1      -9.993  16.347  68.382  1.00  0.00    -0.238 C  
HETATM    4  C   UNL     1      -5.239  17.680  69.595  1.00  0.00    -0.187 C  
HETATM    5  C   UNL     1      -8.987  15.805  69.338  1.00  0.00    -0.247 C  
HETATM    6  N   UNL     1      -7.702  16.302  69.243  1.00  0.00    -0.225 N  
HETATM    7  O   UNL     1      -9.314  14.948  70.156  1.00  0.00     0.243 OA 
HETATM    8  C   UNL     1      -6.030  17.899  68.321  1.00  0.00    -0.172 C  
HETATM    9  N   UNL     1      -8.287  17.799  67.537  1.00  0.00    -0.224 NA 
HETATM   10  C   UNL     1      -6.747  15.828  70.235  1.00  0.00     0.251 C  
HETATM   11  C   UNL     1      -5.303  16.209  69.958  1.00  0.00    -0.154 C  
HETATM   12  C   UNL     1      -7.429  17.323  68.375  1.00  0.00    -0.234 C  
ENDROOT
BRANCH   3  13
HETATM   13  C   UNL     1     -11.349  15.690  68.463  1.00  0.00    -0.361 C  
BRANCH  13  14
HETATM   14  C   UNL     1     -11.323  14.195  68.890  1.00  0.00    -0.277 C  
BRANCH  14  15
HETATM   15  N   UNL     1     -10.168  13.420  68.403  1.00  0.00    -0.249 NA 
HETATM   16  C   UNL     1     -10.915  10.687  67.388  1.00  0.00    -0.361 C  
HETATM   17  C   UNL     1     -10.980  11.115  68.860  1.00  0.00    -0.276 C  
HETATM   18  C   UNL     1      -9.923  12.180  69.137  1.00  0.00     0.305 C  
HETATM   19  C   UNL     1     -11.044  11.933  66.498  1.00  0.00    -0.357 C  
HETATM   20  C   UNL     1     -10.213  13.150  66.952  1.00  0.00    -0.245 C  
BRANCH  16  21
HETATM   21  C   UNL     1      -9.699   9.812  67.198  1.00  0.00    -0.176 A  
HETATM   22  N   UNL     1      -9.270   8.957  68.136  1.00  0.00    -0.139 NA 
HETATM   23  O   UNL     1      -8.396   8.094  67.488  1.00  0.00    -0.121 OA 
HETATM   24  C   UNL     1      -8.282   8.453  66.181  1.00  0.00    -0.113 A  
HETATM   25  C   UNL     1      -9.028   9.597  65.959  1.00  0.00    -0.195 A  
HETATM   26  C   UNL     1      -9.047  10.160  64.669  1.00  0.00    -0.268 A  
HETATM   27  C   UNL     1      -8.323   9.520  63.655  1.00  0.00    -0.176 A  
HETATM   28  C   UNL     1      -7.620   8.347  63.921  1.00  0.00    -0.135 A  
HETATM   29  C   UNL     1      -7.571   7.778  65.193  1.00  0.00    -0.094 A  
HETATM   30  F   UNL     1      -6.977   7.740  62.914  1.00  0.00    -0.074 F  
ENDBRANCH  16  21
ENDBRANCH  14  15
ENDBRANCH  13  14
ENDBRANCH   3  13
TORSDOF 4
ENDMDL
MODEL      221
REMARK 921   NORMALIZED FREE ENERGY PREDICTED BY IDOCK:   -1.72 KCAL/MOL
REMARK 922        TOTAL FREE ENERGY PREDICTED BY IDOCK:   -2.86 KCAL/MOL
REMARK 923 INTER-LIGAND FREE ENERGY PREDICTED BY IDOCK:   -3.23 KCAL/MOL
REMARK 924 INTRA-LIGAND FREE ENERGY PREDICTED BY IDOCK:    0.37 KCAL/MOL
REMARK 927      BINDING AFFINITY PREDICTED BY RF-SCORE:    0.00 PKD
ROOT
HETATM    1  C   UNL     1     -12.637  12.961  67.982  1.00  0.00     0.901 C  
HETATM    2  C   UNL     1     -11.167  13.288  67.929  1.00  0.00    -0.272 C  
HETATM    3  C   UNL     1     -10.167  12.408  68.139  1.00  0.00    -0.225 C  
HETATM    4  C   UNL     1      -8.227  17.066  67.520  1.00  0.00    -0.192 C  
HETATM    5  C   UNL     1      -8.781  12.931  67.992  1.00  0.00    -0.191 C  
HETATM    6  N   UNL     1      -8.647  14.255  67.623  1.00  0.00    -0.171 N  
HETATM    7  O   UNL     1      -7.819  12.191  68.187  1.00  0.00    -0.129 OA 
HETATM    8  C   UNL     1      -9.592  16.512  67.167  1.00  0.00    -0.243 C  
HETATM    9  N   UNL     1     -10.963  14.609  67.633  1.00  0.00    -0.284 NA 
HETATM   10  C   UNL     1      -7.289  14.779  67.564  1.00  0.00    -0.201 C  
HETATM   11  C   UNL     1      -7.167  16.155  66.932  1.00  0.00    -0.240 C  
HETATM   12  C   UNL     1      -9.756  15.048  67.515  1.00  0.00    -0.215 C  
ENDROOT
BRANCH   3  13
HETATM   13  C   UNL     1     -10.250  10.931  68.438  1.00  0.00    -0.193 C  
BRANCH  13  14
HETATM   14  C   UNL     1      -9.144  10.069  67.767  1.00  0.00    -0.131 C  
BRANCH  14  15
HETATM   15  N   UNL     1      -9.298   8.612  67.922  1.00  0.00    -0.141 NA 
HETATM   16  C   UNL     1      -6.932   7.053  66.909  1.00  0.00    -0.070 C  
HETATM   17  C   UNL     1      -7.906   7.832  66.015  1.00  0.00    -0.100 C  
HETATM   18  C   UNL     1      -9.287   7.869  66.663  1.00  0.00    -0.193 C  
HETATM   19  C   UNL     1      -6.939   7.670  68.315  1.00  0.00    -0.072 C  
HETATM   20  C   UNL     1      -8.336   8.017  68.871  1.00  0.00    -0.126 C  
BRANCH  16  21
HETATM   21  C   UNL     1      -7.246   5.581  66.787  1.00  0.00    -0.078 A  
HETATM   22  N   UNL     1      -7.811   4.879  67.778  1.00  0.00    -0.093 NA 
HETATM   23  O   UNL     1      -8.272   3.706  67.194  1.00  0.00    -0.090 OA 
HETATM   24  C   UNL     1      -7.956   3.698  65.871  1.00  0.00    -0.093 A  
HETATM   25  C   UNL     1      -7.224   4.834  65.573  1.00  0.00    -0.071 A  
HETATM   26  C   UNL     1      -6.776   5.031  64.254  1.00  0.00    -0.047 A  
HETATM   27  C   UNL     1      -7.110   4.072  63.289  1.00  0.00    -0.045 A  
HETATM   28  C   UNL     1      -7.884   2.965  63.632  1.00  0.00    -0.073 A  
HETATM   29  C   UNL     1      -8.327   2.738  64.934  1.00  0.00    -0.088 A  
HETATM   30  F   UNL     1      -8.221   2.094  62.671  1.00  0.00    -0.063 F  
ENDBRANCH  16  21
ENDBRANCH  14  15
ENDBRANCH  13  14
ENDBRANCH   3  13
TORSDOF 4
ENDMDL
MODEL      222
REMARK 921   NORMALIZED FREE ENERGY PREDICTED BY IDOCK:   -1.53 KCAL/MOL
REMARK 922        TOTAL FREE ENERGY PREDICTED BY IDOCK:   -2.62 KCAL/MOL
REMARK 923 INTER-LIGAND FREE ENERGY PREDICTED BY IDOCK:   -3.29 KCAL/MOL
REMARK 924 INTRA-LIGAND FREE ENERGY PREDICTED BY IDOCK:    0.67 KCAL/MOL
REMARK 927      BINDING AFFINITY PREDICTED BY RF-SCORE:    0.00 PKD
ROOT
HETATM    1  C   UNL     1      -6.658   5.895  71.673  1.00  0.00    -0.054 C  
HETATM    2  C   UNL     1      -7.225   5.574  70.315  1.00  0.00    -0.067 C  
HETATM    3  C   UNL     1      -8.511   5.256  70.065  1.00  0.00    -0.101 C  
HETATM    4  C   UNL     1      -5.798   4.827  65.788  1.00  0.00    -0.022 C  
HETATM    5  C   UNL     1      -8.872   5.020  68.640  1.00  0.00    -0.097 C  
HETATM    6  N   UNL     1      -7.869   5.178  67.705  1.00  0.00    -0.095 N  
HETATM    7  O   UNL     1     -10.023   4.708  68.340  1.00  0.00    -0.139 OA 
HETATM    8  C   UNL     1      -5.486   5.545  67.085  1.00  0.00    -0.012 C  
HETATM    9  N   UNL     1      -6.261   5.645  69.345  1.00  0.00    -0.031 NA 
HETATM   10  C   UNL     1      -8.210   4.863  66.325  1.00  0.00    -0.108 C  
HETATM   11  C   UNL     1      -7.163   5.271  65.302  1.00  0.00    -0.067 C  
HETATM   12  C   UNL     1      -6.589   5.432  68.116  1.00  0.00    -0.049 C  
ENDROOT
BRANCH   3  13
HETATM   13  C   UNL     1      -9.672   5.173  71.027  1.00  0.00    -0.245 C  
BRANCH  13  14
HETATM   14  C   UNL     1     -10.328   6.539  71.373  1.00  0.00    -0.206 C  
BRANCH  14  15
HETATM   15  N   UNL     1      -9.774   7.704  70.661  1.00  0.00    -0.175 NA 
HETATM   16  C   UNL     1     -11.726   9.981  70.411  1.00  0.00    -0.365 C  
HETATM   17  C   UNL     1     -11.862   8.637  69.684  1.00  0.00     0.805 C  
HETATM   18  C   UNL     1     -10.479   8.045  69.426  1.00  0.00    -0.220 C  
HETATM   19  C   UNL     1     -10.892   9.779  71.685  1.00  0.00     0.118 C  
HETATM   20  C   UNL     1      -9.635   8.902  71.513  1.00  0.00    -0.292 C  
BRANCH  16  21
HETATM   21  C   UNL     1     -11.251  11.015  69.419  1.00  0.00    -0.268 A  
HETATM   22  N   UNL     1     -11.940  12.133  69.154  1.00  0.00    -0.286 NA 
HETATM   23  O   UNL     1     -11.051  12.981  68.508  1.00  0.00    -0.240 OA 
HETATM   24  C   UNL     1      -9.850  12.359  68.360  1.00  0.00    -0.198 A  
HETATM   25  C   UNL     1      -9.945  11.068  68.849  1.00  0.00    -0.201 A  
HETATM   26  C   UNL     1      -8.816  10.230  68.788  1.00  0.00    -0.148 A  
HETATM   27  C   UNL     1      -7.632  10.750  68.251  1.00  0.00    -0.098 A  
HETATM   28  C   UNL     1      -7.576  12.070  67.808  1.00  0.00    -0.130 A  
HETATM   29  C   UNL     1      -8.684  12.916  67.842  1.00  0.00    -0.186 A  
HETATM   30  F   UNL     1      -6.412  12.544  67.343  1.00  0.00    -0.108 F  
ENDBRANCH  16  21
ENDBRANCH  14  15
ENDBRANCH  13  14
ENDBRANCH   3  13
TORSDOF 4
ENDMDL
MODEL      223
REMARK 921   NORMALIZED FREE ENERGY PREDICTED BY IDOCK:   -1.34 KCAL/MOL
REMARK 922        TOTAL FREE ENERGY PREDICTED BY IDOCK:   -2.39 KCAL/MOL
REMARK 923 INTER-LIGAND FREE ENERGY PREDICTED BY IDOCK:   -4.57 KCAL/MOL
REMARK 924 INTRA-LIGAND FREE ENERGY PREDICTED BY IDOCK:    2.18 KCAL/MOL
REMARK 927      BINDING AFFINITY PREDICTED BY RF-SCORE:    0.00 PKD
ROOT
HETATM    1  C   UNL     1      -8.110   4.378  70.157  1.00  0.00    -0.059 C  
HETATM    2  C   UNL     1      -8.753   5.547  70.857  1.00  0.00    -0.135 C  
HETATM    3  C   UNL     1      -8.090   6.582  71.409  1.00  0.00    -0.112 C  
HETATM    4  C   UNL     1     -13.059   7.034  72.385  1.00  0.00     0.263 C  
HETATM    5  C   UNL     1      -8.924   7.659  72.012  1.00  0.00    -0.124 C  
HETATM    6  N   UNL     1     -10.294   7.515  71.921  1.00  0.00    -0.191 N  
HETATM    7  O   UNL     1      -8.387   8.624  72.551  1.00  0.00    -0.364 OA 
HETATM    8  C   UNL     1     -12.329   6.197  71.354  1.00  0.00     0.218 C  
HETATM    9  N   UNL     1     -10.118   5.431  70.863  1.00  0.00    -0.207 NA 
HETATM   10  C   UNL     1     -11.100   8.529  72.587  1.00  0.00    -0.147 C  
HETATM   11  C   UNL     1     -12.585   8.470  72.269  1.00  0.00    -0.438 C  
HETATM   12  C   UNL     1     -10.826   6.370  71.395  1.00  0.00    -0.253 C  
ENDROOT
BRANCH   3  13
HETATM   13  C   UNL     1      -6.605   6.848  71.445  1.00  0.00    -0.045 C  
BRANCH  13  14
HETATM   14  C   UNL     1      -5.975   7.204  70.069  1.00  0.00    -0.024 C  
BRANCH  14  15
HETATM   15  N   UNL     1      -6.284   8.554  69.564  1.00  0.00    -0.036 NA 
HETATM   16  C   UNL     1      -8.620   8.607  67.668  1.00  0.00    -0.136 C  
HETATM   17  C   UNL     1      -7.261   7.968  67.354  1.00  0.00    -0.088 C  
HETATM   18  C   UNL     1      -6.158   8.697  68.115  1.00  0.00    -0.051 C  
HETATM   19  C   UNL     1      -8.826   8.624  69.190  1.00  0.00    -0.137 C  
HETATM   20  C   UNL     1      -7.597   9.061  70.012  1.00  0.00    -0.072 C  
BRANCH  16  21
HETATM   21  C   UNL     1      -8.711   9.922  66.933  1.00  0.00    -0.128 A  
HETATM   22  N   UNL     1      -7.870  10.258  65.946  1.00  0.00    -0.133 NA 
HETATM   23  O   UNL     1      -8.468  11.324  65.286  1.00  0.00    -0.004 OA 
HETATM   24  C   UNL     1      -9.643  11.639  65.895  1.00  0.00    -0.229 A  
HETATM   25  C   UNL     1      -9.808  10.830  67.006  1.00  0.00    -0.221 A  
HETATM   26  C   UNL     1     -10.957  10.990  67.802  1.00  0.00    -0.323 A  
HETATM   27  C   UNL     1     -11.900  11.952  67.421  1.00  0.00    -0.239 A  
HETATM   28  C   UNL     1     -11.706  12.715  66.270  1.00  0.00    -0.402 A  
HETATM   29  C   UNL     1     -10.569  12.588  65.474  1.00  0.00    -0.304 A  
HETATM   30  F   UNL     1     -12.654  13.594  65.914  1.00  0.00    -0.453 F  
ENDBRANCH  16  21
ENDBRANCH  14  15
ENDBRANCH  13  14
ENDBRANCH   3  13
TORSDOF 4
ENDMDL
MODEL      224
REMARK 921   NORMALIZED FREE ENERGY PREDICTED BY IDOCK:   -0.65 KCAL/MOL
REMARK 922        TOTAL FREE ENERGY PREDICTED BY IDOCK:   -1.54 KCAL/MOL
REMARK 923 INTER-LIGAND FREE ENERGY PREDICTED BY IDOCK:   -3.41 KCAL/MOL
REMARK 924 INTRA-LIGAND FREE ENERGY PREDICTED BY IDOCK:    1.87 KCAL/MOL
REMARK 927      BINDING AFFINITY PREDICTED BY RF-SCORE:    0.00 PKD
ROOT
HETATM    1  C   UNL     1     -12.628  12.962  67.982  1.00  0.00     0.901 C  
HETATM    2  C   UNL     1     -11.183  13.385  67.919  1.00  0.00    -0.275 C  
HETATM    3  C   UNL     1     -10.127  12.573  68.121  1.00  0.00    -0.225 C  
HETATM    4  C   UNL     1      -8.501  17.350  67.499  1.00  0.00    -0.218 C  
HETATM    5  C   UNL     1      -8.779  13.187  67.966  1.00  0.00    -0.190 C  
HETATM    6  N   UNL     1      -8.735  14.517  67.598  1.00  0.00    -0.173 N  
HETATM    7  O   UNL     1      -7.770  12.511  68.153  1.00  0.00    -0.121 OA 
HETATM    8  C   UNL     1      -9.830  16.707  67.154  1.00  0.00    -0.257 C  
HETATM    9  N   UNL     1     -11.070  14.718  67.626  1.00  0.00    -0.295 NA 
HETATM   10  C   UNL     1      -7.415  15.129  67.531  1.00  0.00    -0.198 C  
HETATM   11  C   UNL     1      -7.388  16.512  66.902  1.00  0.00    -0.260 C  
HETATM   12  C   UNL     1      -9.894  15.235  67.500  1.00  0.00    -0.213 C  
ENDROOT
BRANCH   3  13
HETATM   13  C   UNL     1     -10.110  11.093  68.417  1.00  0.00    -0.193 C  
BRANCH  13  14
HETATM   14  C   UNL     1      -8.950  10.308  67.743  1.00  0.00    -0.134 C  
BRANCH  14  15
HETATM   15  N   UNL     1      -8.990   8.847  67.920  1.00  0.00    -0.139 NA 
HETATM   16  C   UNL     1      -6.528   7.457  66.888  1.00  0.00    -0.056 C  
HETATM   17  C   UNL     1      -7.573   8.146  66.001  1.00  0.00    -0.082 C  
HETATM   18  C   UNL     1      -8.942   8.088  66.671  1.00  0.00    -0.150 C  
HETATM   19  C   UNL     1      -6.560   8.093  68.286  1.00  0.00    -0.060 C  
HETATM   20  C   UNL     1      -7.970   8.341  68.860  1.00  0.00    -0.113 C  
BRANCH  16  21
HETATM   21  C   UNL     1      -6.730   5.964  66.792  1.00  0.00    -0.058 A  
HETATM   22  N   UNL     1      -5.791   5.137  66.315  1.00  0.00    -0.018 NA 
HETATM   23  O   UNL     1      -6.171   3.863  66.716  1.00  0.00    -0.030 OA 
HETATM   24  C   UNL     1      -7.344   3.928  67.400  1.00  0.00    -0.068 A  
HETATM   25  C   UNL     1      -7.792   5.238  67.407  1.00  0.00    -0.100 A  
HETATM   26  C   UNL     1      -9.005   5.541  68.054  1.00  0.00    -0.108 A  
HETATM   27  C   UNL     1      -9.699   4.501  68.684  1.00  0.00    -0.203 A  
HETATM   28  C   UNL     1      -9.186   3.205  68.683  1.00  0.00    -0.167 A  
HETATM   29  C   UNL     1      -7.995   2.875  68.036  1.00  0.00    -0.065 A  
HETATM   30  F   UNL     1      -9.857   2.247  69.336  1.00  0.00    -0.141 F  
ENDBRANCH  16  21
ENDBRANCH  14  15
ENDBRANCH  13  14
ENDBRANCH   3  13
TORSDOF 4
ENDMDL
MODEL      225
REMARK 921   NORMALIZED FREE ENERGY PREDICTED BY IDOCK:   -0.54 KCAL/MOL
REMARK 922        TOTAL FREE ENERGY PREDICTED BY IDOCK:   -1.41 KCAL/MOL
REMARK 923 INTER-LIGAND FREE ENERGY PREDICTED BY IDOCK:   -1.58 KCAL/MOL
REMARK 924 INTRA-LIGAND FREE ENERGY PREDICTED BY IDOCK:    0.17 KCAL/MOL
REMARK 927      BINDING AFFINITY PREDICTED BY RF-SCORE:    0.00 PKD
ROOT
HETATM    1  C   UNL     1      -7.211  13.905  68.822  1.00  0.00    -0.106 C  
HETATM    2  C   UNL     1      -8.408  13.587  67.963  1.00  0.00    -0.168 C  
HETATM    3  C   UNL     1      -8.994  12.378  67.865  1.00  0.00    -0.184 C  
HETATM    4  C   UNL     1     -11.194  15.603  64.608  1.00  0.00    -0.380 C  
HETATM    5  C   UNL     1     -10.198  12.294  66.992  1.00  0.00    -0.215 C  
HETATM    6  N   UNL     1     -10.620  13.464  66.391  1.00  0.00    -0.283 N  
HETATM    7  O   UNL     1     -10.774  11.219  66.840  1.00  0.00    -0.247 OA 
HETATM    8  C   UNL     1     -10.318  15.866  65.815  1.00  0.00    -0.396 C  
HETATM    9  N   UNL     1      -8.837  14.696  67.283  1.00  0.00    -0.195 NA 
HETATM   10  C   UNL     1     -11.746  13.354  65.474  1.00  0.00    -0.340 C  
HETATM   11  C   UNL     1     -12.326  14.683  65.020  1.00  0.00    -0.289 C  
HETATM   12  C   UNL     1      -9.878  14.604  66.526  1.00  0.00    -0.275 C  
ENDROOT
BRANCH   3  13
HETATM   13  C   UNL     1      -8.647  11.093  68.576  1.00  0.00    -0.157 C  
BRANCH  13  14
HETATM   14  C   UNL     1      -9.264  10.949  69.996  1.00  0.00     1.082 C  
BRANCH  14  15
HETATM   15  N   UNL     1      -8.512  10.089  70.926  1.00  0.00     0.296 NA 
HETATM   16  C   UNL     1      -6.532   8.292  69.545  1.00  0.00    -0.037 C  
HETATM   17  C   UNL     1      -8.056   8.149  69.438  1.00  0.00    -0.116 C  
HETATM   18  C   UNL     1      -8.715   8.656  70.718  1.00  0.00    -0.173 C  
HETATM   19  C   UNL     1      -6.187   9.750  69.883  1.00  0.00    -0.051 C  
HETATM   20  C   UNL     1      -7.068  10.395  70.972  1.00  0.00     1.043 C  
BRANCH  16  21
HETATM   21  C   UNL     1      -6.016   7.217  70.470  1.00  0.00    -0.027 A  
HETATM   22  N   UNL     1      -5.146   7.470  71.457  1.00  0.00    -0.027 NA 
HETATM   23  O   UNL     1      -5.192   6.362  72.294  1.00  0.00    -0.029 OA 
HETATM   24  C   UNL     1      -6.061   5.444  71.792  1.00  0.00    -0.030 A  
HETATM   25  C   UNL     1      -6.553   5.901  70.582  1.00  0.00    -0.047 A  
HETATM   26  C   UNL     1      -7.467   5.101  69.871  1.00  0.00    -0.061 A  
HETATM   27  C   UNL     1      -7.857   3.879  70.433  1.00  0.00    -0.051 A  
HETATM   28  C   UNL     1      -7.362   3.482  71.674  1.00  0.00    -0.047 A  
HETATM   29  C   UNL     1      -6.443   4.248  72.391  1.00  0.00    -0.022 A  
HETATM   30  F   UNL     1      -7.794   2.327  72.199  1.00  0.00    -0.047 F  
ENDBRANCH  16  21
ENDBRANCH  14  15
ENDBRANCH  13  14
ENDBRANCH   3  13
TORSDOF 4
ENDMDL
MODEL      226
REMARK 921   NORMALIZED FREE ENERGY PREDICTED BY IDOCK:   -0.49 KCAL/MOL
REMARK 922        TOTAL FREE ENERGY PREDICTED BY IDOCK:   -1.35 KCAL/MOL
REMARK 923 INTER-LIGAND FREE ENERGY PREDICTED BY IDOCK:   -2.79 KCAL/MOL
REMARK 924 INTRA-LIGAND FREE ENERGY PREDICTED BY IDOCK:    1.45 KCAL/MOL
REMARK 927      BINDING AFFINITY PREDICTED BY RF-SCORE:    0.00 PKD
ROOT
HETATM    1  C   UNL     1      -8.272  16.219  67.786  1.00  0.00    -0.158 C  
HETATM    2  C   UNL     1      -9.232  15.240  67.160  1.00  0.00    -0.209 C  
HETATM    3  C   UNL     1      -9.465  13.989  67.602  1.00  0.00    -0.210 C  
HETATM    4  C   UNL     1     -12.027  14.764  63.281  1.00  0.00     1.406 C  
HETATM    5  C   UNL     1     -10.490  13.203  66.862  1.00  0.00    -0.256 C  
HETATM    6  N   UNL     1     -11.130  13.836  65.815  1.00  0.00    -0.288 N  
HETATM    7  O   UNL     1     -10.742  12.048  67.198  1.00  0.00    -0.225 OA 
HETATM    8  C   UNL     1     -11.402  15.750  64.247  1.00  0.00    -0.189 C  
HETATM    9  N   UNL     1      -9.853  15.785  66.067  1.00  0.00    -0.311 NA 
HETATM   10  C   UNL     1     -12.069  13.033  65.045  1.00  0.00    -0.427 C  
HETATM   11  C   UNL     1     -12.919  13.819  64.061  1.00  0.00     0.599 C  
HETATM   12  C   UNL     1     -10.734  15.089  65.433  1.00  0.00    -0.374 C  
ENDROOT
BRANCH   3  13
HETATM   13  C   UNL     1      -8.880  13.282  68.801  1.00  0.00     0.146 C  
BRANCH  13  14
HETATM   14  C   UNL     1      -7.763  12.252  68.467  1.00  0.00    -0.118 C  
BRANCH  14  15
HETATM   15  N   UNL     1      -8.231  10.884  68.186  1.00  0.00    -0.116 NA 
HETATM   16  C   UNL     1      -8.524   9.199  70.663  1.00  0.00    -0.246 C  
HETATM   17  C   UNL     1      -7.183   9.678  70.092  1.00  0.00    -0.128 C  
HETATM   18  C   UNL     1      -7.290   9.835  68.579  1.00  0.00    -0.074 C  
HETATM   19  C   UNL     1      -9.632  10.166  70.218  1.00  0.00     0.067 C  
HETATM   20  C   UNL     1      -9.570  10.596  68.739  1.00  0.00    -0.186 C  
BRANCH  16  21
HETATM   21  C   UNL     1      -8.692   7.737  70.325  1.00  0.00    -0.143 A  
HETATM   22  N   UNL     1      -8.112   7.170  69.259  1.00  0.00    -0.119 NA 
HETATM   23  O   UNL     1      -8.180   5.800  69.476  1.00  0.00    -0.105 OA 
HETATM   24  C   UNL     1      -8.824   5.554  70.649  1.00  0.00    -0.133 A  
HETATM   25  C   UNL     1      -9.249   6.752  71.193  1.00  0.00    -0.159 A  
HETATM   26  C   UNL     1      -9.955   6.737  72.410  1.00  0.00    -0.184 A  
HETATM   27  C   UNL     1     -10.179   5.503  73.032  1.00  0.00    -0.214 A  
HETATM   28  C   UNL     1      -9.695   4.326  72.463  1.00  0.00    -0.147 A  
HETATM   29  C   UNL     1      -9.008   4.312  71.250  1.00  0.00    -0.168 A  
HETATM   30  F   UNL     1      -9.891   3.170  73.112  1.00  0.00    -0.125 F  
ENDBRANCH  16  21
ENDBRANCH  14  15
ENDBRANCH  13  14
ENDBRANCH   3  13
TORSDOF 4
ENDMDL
MODEL      227
REMARK 921   NORMALIZED FREE ENERGY PREDICTED BY IDOCK:   -0.39 KCAL/MOL
REMARK 922        TOTAL FREE ENERGY PREDICTED BY IDOCK:   -1.21 KCAL/MOL
REMARK 923 INTER-LIGAND FREE ENERGY PREDICTED BY IDOCK:   -3.05 KCAL/MOL
REMARK 924 INTRA-LIGAND FREE ENERGY PREDICTED BY IDOCK:    1.83 KCAL/MOL
REMARK 927      BINDING AFFINITY PREDICTED BY RF-SCORE:    0.00 PKD
ROOT
HETATM    1  C   UNL     1      -8.285  16.588  69.632  1.00  0.00     0.477 C  
HETATM    2  C   UNL     1      -8.526  17.583  68.525  1.00  0.00    -0.280 C  
HETATM    3  C   UNL     1      -9.725  17.857  67.975  1.00  0.00    -0.303 C  
HETATM    4  C   UNL     1      -6.094  20.402  65.489  1.00  0.00    -0.254 C  
HETATM    5  C   UNL     1      -9.747  18.911  66.923  1.00  0.00    -0.318 C  
HETATM    6  N   UNL     1      -8.547  19.530  66.632  1.00  0.00    -0.322 N  
HETATM    7  O   UNL     1     -10.802  19.201  66.363  1.00  0.00    -0.367 OA 
HETATM    8  C   UNL     1      -6.077  19.741  66.852  1.00  0.00    -0.182 C  
HETATM    9  N   UNL     1      -7.359  18.186  68.140  1.00  0.00    -0.243 NA 
HETATM   10  C   UNL     1      -8.563  20.499  65.544  1.00  0.00     0.675 C  
HETATM   11  C   UNL     1      -7.294  21.324  65.410  1.00  0.00     0.990 C  
HETATM   12  C   UNL     1      -7.394  19.093  67.223  1.00  0.00    -0.223 C  
ENDROOT
BRANCH   3  13
HETATM   13  C   UNL     1     -11.081  17.294  68.324  1.00  0.00    -0.064 C  
BRANCH  13  14
HETATM   14  C   UNL     1     -11.094  16.345  69.555  1.00  0.00    -0.293 C  
BRANCH  14  15
HETATM   15  N   UNL     1     -11.282  14.917  69.250  1.00  0.00    -0.269 NA 
HETATM   16  C   UNL     1      -9.305  13.862  67.241  1.00  0.00    -0.231 C  
HETATM   17  C   UNL     1     -10.420  14.864  66.918  1.00  0.00    -0.280 C  
HETATM   18  C   UNL     1     -11.606  14.639  67.851  1.00  0.00    -0.348 C  
HETATM   19  C   UNL     1      -8.948  13.972  68.731  1.00  0.00    -0.030 C  
HETATM   20  C   UNL     1     -10.154  14.069  69.687  1.00  0.00     0.542 C  
BRANCH  16  21
HETATM   21  C   UNL     1      -9.713  12.506  66.716  1.00  0.00    -0.234 A  
HETATM   22  N   UNL     1     -10.854  12.305  66.044  1.00  0.00    -0.265 NA 
HETATM   23  O   UNL     1     -10.713  11.072  65.421  1.00  0.00    -0.236 OA 
HETATM   24  C   UNL     1      -9.510  10.529  65.747  1.00  0.00    -0.201 A  
HETATM   25  C   UNL     1      -8.863  11.364  66.641  1.00  0.00    -0.183 A  
HETATM   26  C   UNL     1      -7.595  10.993  67.127  1.00  0.00    -0.117 A  
HETATM   27  C   UNL     1      -7.031   9.798  66.666  1.00  0.00    -0.085 A  
HETATM   28  C   UNL     1      -7.707   9.010  65.734  1.00  0.00    -0.091 A  
HETATM   29  C   UNL     1      -8.970   9.347  65.249  1.00  0.00    -0.250 A  
HETATM   30  F   UNL     1      -7.113   7.897  65.283  1.00  0.00    -0.056 F  
ENDBRANCH  16  21
ENDBRANCH  14  15
ENDBRANCH  13  14
ENDBRANCH   3  13
TORSDOF 4
ENDMDL
MODEL      228
REMARK 921   NORMALIZED FREE ENERGY PREDICTED BY IDOCK:   -0.15 KCAL/MOL
REMARK 922        TOTAL FREE ENERGY PREDICTED BY IDOCK:   -0.93 KCAL/MOL
REMARK 923 INTER-LIGAND FREE ENERGY PREDICTED BY IDOCK:   -2.35 KCAL/MOL
REMARK 924 INTRA-LIGAND FREE ENERGY PREDICTED BY IDOCK:    1.42 KCAL/MOL
REMARK 927      BINDING AFFINITY PREDICTED BY RF-SCORE:    0.00 PKD
ROOT
HETATM    1  C   UNL     1     -10.761  12.295  69.527  1.00  0.00     0.196 C  
HETATM    2  C   UNL     1     -10.570  13.239  68.368  1.00  0.00    -0.252 C  
HETATM    3  C   UNL     1      -9.449  13.942  68.115  1.00  0.00    -0.207 C  
HETATM    4  C   UNL     1     -13.059  15.253  64.785  1.00  0.00     1.078 C  
HETATM    5  C   UNL     1      -9.455  14.783  66.886  1.00  0.00    -0.240 C  
HETATM    6  N   UNL     1     -10.592  14.741  66.104  1.00  0.00    -0.301 N  
HETATM    7  O   UNL     1      -8.474  15.466  66.603  1.00  0.00    -0.259 OA 
HETATM    8  C   UNL     1     -12.946  14.043  65.691  1.00  0.00    -0.337 C  
HETATM    9  N   UNL     1     -11.693  13.297  67.586  1.00  0.00    -0.348 NA 
HETATM   10  C   UNL     1     -10.622  15.630  64.951  1.00  0.00    -0.316 C  
HETATM   11  C   UNL     1     -11.775  15.387  63.992  1.00  0.00     0.051 C  
HETATM   12  C   UNL     1     -11.685  14.035  66.528  1.00  0.00    -0.394 C  
ENDROOT
BRANCH   3  13
HETATM   13  C   UNL     1      -8.141  13.947  68.870  1.00  0.00     0.033 C  
BRANCH  13  14
HETATM   14  C   UNL     1      -7.551  12.538  69.157  1.00  0.00     0.243 C  
BRANCH  14  15
HETATM   15  N   UNL     1      -7.679  11.564  68.059  1.00  0.00    -0.112 NA 
HETATM   16  C   UNL     1      -5.793   9.232  68.314  1.00  0.00    -0.038 C  
HETATM   17  C   UNL     1      -5.358  10.672  68.010  1.00  0.00    -0.036 C  
HETATM   18  C   UNL     1      -6.467  11.400  67.257  1.00  0.00    -0.098 C  
HETATM   19  C   UNL     1      -7.134   9.262  69.064  1.00  0.00    -0.067 C  
HETATM   20  C   UNL     1      -8.178  10.246  68.499  1.00  0.00    -0.111 C  
BRANCH  16  21
HETATM   21  C   UNL     1      -5.722   8.432  67.037  1.00  0.00    -0.042 A  
HETATM   22  N   UNL     1      -5.139   7.227  66.971  1.00  0.00    -0.017 NA 
HETATM   23  O   UNL     1      -5.581   6.659  65.783  1.00  0.00    -0.020 OA 
HETATM   24  C   UNL     1      -6.396   7.532  65.133  1.00  0.00    -0.038 A  
HETATM   25  C   UNL     1      -6.454   8.715  65.847  1.00  0.00    -0.057 A  
HETATM   26  C   UNL     1      -7.236   9.775  65.351  1.00  0.00    -0.114 A  
HETATM   27  C   UNL     1      -7.943   9.576  64.158  1.00  0.00    -0.137 A  
HETATM   28  C   UNL     1      -7.882   8.351  63.496  1.00  0.00    -0.152 A  
HETATM   29  C   UNL     1      -7.102   7.291  63.958  1.00  0.00    -0.071 A  
HETATM   30  F   UNL     1      -8.608   8.185  62.382  1.00  0.00    -0.184 F  
ENDBRANCH  16  21
ENDBRANCH  14  15
ENDBRANCH  13  14
ENDBRANCH   3  13
TORSDOF 4
ENDMDL
MODEL      229
REMARK 921   NORMALIZED FREE ENERGY PREDICTED BY IDOCK:    0.36 KCAL/MOL
REMARK 922        TOTAL FREE ENERGY PREDICTED BY IDOCK:   -0.30 KCAL/MOL
REMARK 923 INTER-LIGAND FREE ENERGY PREDICTED BY IDOCK:   -4.08 KCAL/MOL
REMARK 924 INTRA-LIGAND FREE ENERGY PREDICTED BY IDOCK:    3.78 KCAL/MOL
REMARK 927      BINDING AFFINITY PREDICTED BY RF-SCORE:    0.00 PKD
ROOT
HETATM    1  C   UNL     1      -9.212  10.588  68.824  1.00  0.00    -0.177 C  
HETATM    2  C   UNL     1      -8.299   9.635  69.552  1.00  0.00    -0.152 C  
HETATM    3  C   UNL     1      -7.028   9.900  69.911  1.00  0.00    -0.105 C  
HETATM    4  C   UNL     1      -8.140   5.071  71.045  1.00  0.00    -0.101 C  
HETATM    5  C   UNL     1      -6.315   8.833  70.667  1.00  0.00    -0.041 C  
HETATM    6  N   UNL     1      -7.030   7.688  70.958  1.00  0.00    -0.049 N  
HETATM    7  O   UNL     1      -5.147   8.997  71.012  1.00  0.00    -0.027 OA 
HETATM    8  C   UNL     1      -9.047   6.246  70.738  1.00  0.00    -0.150 C  
HETATM    9  N   UNL     1      -8.928   8.447  69.811  1.00  0.00    -0.144 NA 
HETATM   10  C   UNL     1      -6.300   6.617  71.623  1.00  0.00    -0.042 C  
HETATM   11  C   UNL     1      -7.168   5.479  72.134  1.00  0.00    -0.088 C  
HETATM   12  C   UNL     1      -8.295   7.530  70.462  1.00  0.00    -0.131 C  
ENDROOT
BRANCH   3  13
HETATM   13  C   UNL     1      -6.231  11.168  69.718  1.00  0.00    -0.119 C  
BRANCH  13  14
HETATM   14  C   UNL     1      -7.074  12.473  69.725  1.00  0.00     0.530 C  
BRANCH  14  15
HETATM   15  N   UNL     1      -8.115  12.558  68.686  1.00  0.00    -0.070 NA 
HETATM   16  C   UNL     1      -8.376  15.305  67.486  1.00  0.00    -0.191 C  
HETATM   17  C   UNL     1      -8.764  14.946  68.927  1.00  0.00    -0.180 C  
HETATM   18  C   UNL     1      -9.201  13.486  68.997  1.00  0.00     0.357 C  
HETATM   19  C   UNL     1      -7.309  14.315  66.993  1.00  0.00     0.343 C  
HETATM   20  C   UNL     1      -7.579  12.837  67.339  1.00  0.00    -0.152 C  
BRANCH  16  21
HETATM   21  C   UNL     1      -9.639  15.439  66.671  1.00  0.00    -0.256 A  
HETATM   22  N   UNL     1     -10.154  16.627  66.326  1.00  0.00    -0.313 NA 
HETATM   23  O   UNL     1     -11.061  16.364  65.308  1.00  0.00    -0.240 OA 
HETATM   24  C   UNL     1     -11.107  15.026  65.069  1.00  0.00    -0.413 A  
HETATM   25  C   UNL     1     -10.281  14.377  65.970  1.00  0.00    -0.328 A  
HETATM   26  C   UNL     1     -10.182  12.974  65.917  1.00  0.00    -0.298 A  
HETATM   27  C   UNL     1     -10.912  12.293  64.934  1.00  0.00    -0.344 A  
HETATM   28  C   UNL     1     -11.699  12.997  64.024  1.00  0.00    -0.436 A  
HETATM   29  C   UNL     1     -11.828  14.385  64.066  1.00  0.00    -0.222 A  
HETATM   30  F   UNL     1     -12.346  12.314  63.071  1.00  0.00    -0.539 F  
ENDBRANCH  16  21
ENDBRANCH  14  15
ENDBRANCH  13  14
ENDBRANCH   3  13
TORSDOF 4
ENDMDL
MODEL      230
REMARK 921   NORMALIZED FREE ENERGY PREDICTED BY IDOCK:    0.44 KCAL/MOL
REMARK 922        TOTAL FREE ENERGY PREDICTED BY IDOCK:   -0.20 KCAL/MOL
REMARK 923 INTER-LIGAND FREE ENERGY PREDICTED BY IDOCK:   -3.45 KCAL/MOL
REMARK 924 INTRA-LIGAND FREE ENERGY PREDICTED BY IDOCK:    3.25 KCAL/MOL
REMARK 927      BINDING AFFINITY PREDICTED BY RF-SCORE:    0.00 PKD
ROOT
HETATM    1  C   UNL     1     -10.108   8.749  69.219  1.00  0.00    -0.206 C  
HETATM    2  C   UNL     1      -9.041   9.599  68.577  1.00  0.00    -0.131 C  
HETATM    3  C   UNL     1      -8.871   9.760  67.250  1.00  0.00    -0.139 C  
HETATM    4  C   UNL     1      -5.133  12.140  69.741  1.00  0.00    -0.074 C  
HETATM    5  C   UNL     1      -7.782  10.683  66.828  1.00  0.00    -0.127 C  
HETATM    6  N   UNL     1      -7.069  11.311  67.830  1.00  0.00    -0.083 N  
HETATM    7  O   UNL     1      -7.557  10.864  65.633  1.00  0.00    -0.092 OA 
HETATM    8  C   UNL     1      -6.480  11.643  70.225  1.00  0.00     0.139 C  
HETATM    9  N   UNL     1      -8.251  10.199  69.521  1.00  0.00    -0.161 NA 
HETATM   10  C   UNL     1      -5.952  12.146  67.409  1.00  0.00    -0.139 C  
HETATM   11  C   UNL     1      -5.346  12.999  68.510  1.00  0.00    -0.063 C  
HETATM   12  C   UNL     1      -7.307  10.991  69.138  1.00  0.00    -0.121 C  
ENDROOT
BRANCH   3  13
HETATM   13  C   UNL     1      -9.682   9.188  66.113  1.00  0.00    -0.357 C  
BRANCH  13  14
HETATM   14  C   UNL     1     -10.014  10.198  64.978  1.00  0.00    -0.305 C  
BRANCH  14  15
HETATM   15  N   UNL     1     -10.963  11.265  65.341  1.00  0.00    -0.187 NA 
HETATM   16  C   UNL     1      -9.616  13.855  66.070  1.00  0.00    -0.210 C  
HETATM   17  C   UNL     1      -9.550  12.575  66.913  1.00  0.00    -0.229 C  
HETATM   18  C   UNL     1     -10.821  11.756  66.711  1.00  0.00    -0.270 C  
HETATM   19  C   UNL     1      -9.883  13.478  64.605  1.00  0.00     0.062 C  
HETATM   20  C   UNL     1     -10.963  12.398  64.393  1.00  0.00    -0.334 C  
BRANCH  16  21
HETATM   21  C   UNL     1     -10.576  14.815  66.733  1.00  0.00    -0.302 A  
HETATM   22  N   UNL     1     -11.707  15.227  66.144  1.00  0.00    -0.001 NA 
HETATM   23  O   UNL     1     -12.481  15.776  67.158  1.00  0.00     1.171 OA 
HETATM   24  C   UNL     1     -11.802  15.718  68.335  1.00  0.00    -0.168 A  
HETATM   25  C   UNL     1     -10.543  15.190  68.107  1.00  0.00    -0.246 A  
HETATM   26  C   UNL     1      -9.656  15.048  69.191  1.00  0.00    -0.202 A  
HETATM   27  C   UNL     1     -10.096  15.430  70.464  1.00  0.00     0.208 A  
HETATM   28  C   UNL     1     -11.388  15.920  70.648  1.00  0.00    -0.397 A  
HETATM   29  C   UNL     1     -12.281  16.087  69.589  1.00  0.00    -0.019 A  
HETATM   30  F   UNL     1     -11.787  16.232  71.888  1.00  0.00    -0.468 F  
ENDBRANCH  16  21
ENDBRANCH  14  15
ENDBRANCH  13  14
ENDBRANCH   3  13
TORSDOF 4
ENDMDL
MODEL      231
REMARK 921   NORMALIZED FREE ENERGY PREDICTED BY IDOCK:    0.73 KCAL/MOL
REMARK 922        TOTAL FREE ENERGY PREDICTED BY IDOCK:    0.17 KCAL/MOL
REMARK 923 INTER-LIGAND FREE ENERGY PREDICTED BY IDOCK:   -0.62 KCAL/MOL
REMARK 924 INTRA-LIGAND FREE ENERGY PREDICTED BY IDOCK:    0.79 KCAL/MOL
REMARK 927      BINDING AFFINITY PREDICTED BY RF-SCORE:    0.00 PKD
ROOT
HETATM    1  C   UNL     1     -11.629  16.896  71.219  1.00  0.00     0.678 C  
HETATM    2  C   UNL     1     -11.248  16.288  69.894  1.00  0.00    -0.317 C  
HETATM    3  C   UNL     1     -11.878  15.252  69.305  1.00  0.00    -0.353 C  
HETATM    4  C   UNL     1      -7.797  16.540  66.560  1.00  0.00    -0.338 C  
HETATM    5  C   UNL     1     -11.367  14.837  67.969  1.00  0.00    -0.316 C  
HETATM    6  N   UNL     1     -10.320  15.569  67.444  1.00  0.00    -0.261 N  
HETATM    7  O   UNL     1     -11.880  13.888  67.381  1.00  0.00    -0.360 OA 
HETATM    8  C   UNL     1      -8.548  17.306  67.631  1.00  0.00    -0.218 C  
HETATM    9  N   UNL     1     -10.167  16.927  69.348  1.00  0.00    -0.249 NA 
HETATM   10  C   UNL     1      -9.772  15.103  66.178  1.00  0.00    -0.310 C  
HETATM   11  C   UNL     1      -8.790  16.058  65.521  1.00  0.00     0.620 C  
HETATM   12  C   UNL     1      -9.732  16.551  68.193  1.00  0.00    -0.234 C  
ENDROOT
BRANCH   3  13
HETATM   13  C   UNL     1     -13.090  14.485  69.777  1.00  0.00     0.516 C  
BRANCH  13  14
HETATM   14  C   UNL     1     -12.985  13.933  71.226  1.00  0.00    -0.341 C  
BRANCH  14  15
HETATM   15  N   UNL     1     -12.044  12.814  71.409  1.00  0.00     0.268 NA 
HETATM   16  C   UNL     1     -12.808  10.355  69.852  1.00  0.00     0.136 C  
HETATM   17  C   UNL     1     -13.589  10.898  71.055  1.00  0.00     0.477 C  
HETATM   18  C   UNL     1     -12.639  11.620  72.006  1.00  0.00     0.197 C  
HETATM   19  C   UNL     1     -12.033  11.508  69.195  1.00  0.00    -0.386 C  
HETATM   20  C   UNL     1     -11.314  12.455  70.177  1.00  0.00     0.238 C  
BRANCH  16  21
HETATM   21  C   UNL     1     -12.021   9.146  70.299  1.00  0.00     0.151 A  
HETATM   22  N   UNL     1     -10.681   9.124  70.321  1.00  0.00    -0.220 NA 
HETATM   23  O   UNL     1     -10.336   8.035  71.110  1.00  0.00    -0.195 OA 
HETATM   24  C   UNL     1     -11.461   7.396  71.529  1.00  0.00    -0.263 A  
HETATM   25  C   UNL     1     -12.566   8.013  70.970  1.00  0.00    -0.086 A  
HETATM   26  C   UNL     1     -13.848   7.509  71.258  1.00  0.00    -0.359 A  
HETATM   27  C   UNL     1     -13.951   6.410  72.120  1.00  0.00     0.234 A  
HETATM   28  C   UNL     1     -12.809   5.848  72.689  1.00  0.00     0.593 A  
HETATM   29  C   UNL     1     -11.527   6.318  72.407  1.00  0.00    -0.335 A  
HETATM   30  F   UNL     1     -12.952   4.827  73.544  1.00  0.00     0.410 F  
ENDBRANCH  16  21
ENDBRANCH  14  15
ENDBRANCH  13  14
ENDBRANCH   3  13
TORSDOF 4
ENDMDL
MODEL      232
REMARK 921   NORMALIZED FREE ENERGY PREDICTED BY IDOCK:    1.24 KCAL/MOL
REMARK 922        TOTAL FREE ENERGY PREDICTED BY IDOCK:    0.79 KCAL/MOL
REMARK 923 INTER-LIGAND FREE ENERGY PREDICTED BY IDOCK:    0.19 KCAL/MOL
REMARK 924 INTRA-LIGAND FREE ENERGY PREDICTED BY IDOCK:    0.60 KCAL/MOL
REMARK 927      BINDING AFFINITY PREDICTED BY RF-SCORE:    0.00 PKD
ROOT
HETATM    1  C   UNL     1      -9.134  15.580  70.917  1.00  0.00     2.267 C  
HETATM    2  C   UNL     1      -8.966  15.937  69.463  1.00  0.00    -0.135 C  
HETATM    3  C   UNL     1      -9.103  15.080  68.432  1.00  0.00    -0.184 C  
HETATM    4  C   UNL     1      -7.560  19.598  66.688  1.00  0.00    -0.278 C  
HETATM    5  C   UNL     1      -8.940  15.651  67.067  1.00  0.00    -0.222 C  
HETATM    6  N   UNL     1      -8.697  17.008  66.981  1.00  0.00    -0.213 N  
HETATM    7  O   UNL     1      -9.033  14.925  66.080  1.00  0.00    -0.182 OA 
HETATM    8  C   UNL     1      -8.186  19.214  68.013  1.00  0.00    -0.339 C  
HETATM    9  N   UNL     1      -8.654  17.261  69.310  1.00  0.00     0.064 NA 
HETATM   10  C   UNL     1      -8.455  17.542  65.647  1.00  0.00     0.560 C  
HETATM   11  C   UNL     1      -8.427  19.059  65.567  1.00  0.00     0.810 C  
HETATM   12  C   UNL     1      -8.510  17.740  68.121  1.00  0.00    -0.262 C  
ENDROOT
BRANCH   3  13
HETATM   13  C   UNL     1      -9.473  13.616  68.457  1.00  0.00    -0.143 C  
BRANCH  13  14
HETATM   14  C   UNL     1     -10.817  13.273  67.756  1.00  0.00    -0.252 C  
BRANCH  14  15
HETATM   15  N   UNL     1     -11.278  11.884  67.921  1.00  0.00    -0.243 NA 
HETATM   16  C   UNL     1     -10.327  10.613  70.478  1.00  0.00     0.635 C  
HETATM   17  C   UNL     1      -9.416  10.979  69.298  1.00  0.00     0.020 C  
HETATM   18  C   UNL     1     -10.202  10.897  67.993  1.00  0.00    -0.178 C  
HETATM   19  C   UNL     1     -11.572  11.513  70.447  1.00  0.00    -0.216 C  
HETATM   20  C   UNL     1     -12.207  11.705  69.055  1.00  0.00    -0.099 C  
BRANCH  16  21
HETATM   21  C   UNL     1     -10.542   9.119  70.470  1.00  0.00    -0.235 A  
HETATM   22  N   UNL     1      -9.575   8.252  70.140  1.00  0.00    -0.167 NA 
HETATM   23  O   UNL     1     -10.009   7.013  70.594  1.00  0.00    -0.186 OA 
HETATM   24  C   UNL     1     -11.238   7.138  71.163  1.00  0.00    -0.262 A  
HETATM   25  C   UNL     1     -11.665   8.448  71.036  1.00  0.00    -0.296 A  
HETATM   26  C   UNL     1     -12.926   8.807  71.547  1.00  0.00    -0.359 A  
HETATM   27  C   UNL     1     -13.690   7.821  72.184  1.00  0.00    -0.169 A  
HETATM   28  C   UNL     1     -13.197   6.524  72.321  1.00  0.00     0.264 A  
HETATM   29  C   UNL     1     -11.959   6.138  71.810  1.00  0.00    -0.226 A  
HETATM   30  F   UNL     1     -13.939   5.621  72.977  1.00  0.00     0.416 F  
ENDBRANCH  16  21
ENDBRANCH  14  15
ENDBRANCH  13  14
ENDBRANCH   3  13
TORSDOF 4
ENDMDL
MODEL      233
REMARK 921   NORMALIZED FREE ENERGY PREDICTED BY IDOCK:    1.24 KCAL/MOL
REMARK 922        TOTAL FREE ENERGY PREDICTED BY IDOCK:    0.79 KCAL/MOL
REMARK 923 INTER-LIGAND FREE ENERGY PREDICTED BY IDOCK:   -2.50 KCAL/MOL
REMARK 924 INTRA-LIGAND FREE ENERGY PREDICTED BY IDOCK:    3.30 KCAL/MOL
REMARK 927      BINDING AFFINITY PREDICTED BY RF-SCORE:    0.00 PKD
ROOT
HETATM    1  C   UNL     1      -5.773   6.265  64.471  1.00  0.00    -0.022 C  
HETATM    2  C   UNL     1      -7.076   6.265  65.229  1.00  0.00    -0.064 C  
HETATM    3  C   UNL     1      -7.659   5.178  65.772  1.00  0.00    -0.083 C  
HETATM    4  C   UNL     1     -10.714   9.202  66.335  1.00  0.00     0.181 C  
HETATM    5  C   UNL     1      -8.925   5.408  66.520  1.00  0.00    -0.120 C  
HETATM    6  N   UNL     1      -9.368   6.713  66.617  1.00  0.00    -0.159 N  
HETATM    7  O   UNL     1      -9.522   4.460  67.027  1.00  0.00    -0.149 OA 
HETATM    8  C   UNL     1      -9.235   9.124  66.014  1.00  0.00    -0.271 C  
HETATM    9  N   UNL     1      -7.606   7.525  65.301  1.00  0.00    -0.091 NA 
HETATM   10  C   UNL     1     -10.649   6.917  67.277  1.00  0.00    -0.322 C  
HETATM   11  C   UNL     1     -10.987   8.369  67.572  1.00  0.00     0.101 C  
HETATM   12  C   UNL     1      -8.707   7.707  65.949  1.00  0.00    -0.152 C  
ENDROOT
BRANCH   3  13
HETATM   13  C   UNL     1      -7.171   3.750  65.793  1.00  0.00    -0.071 C  
BRANCH  13  14
HETATM   14  C   UNL     1      -5.943   3.495  66.712  1.00  0.00    -0.024 C  
BRANCH  14  15
HETATM   15  N   UNL     1      -6.051   4.044  68.075  1.00  0.00    -0.031 NA 
HETATM   16  C   UNL     1      -7.694   2.326  69.921  1.00  0.00    -0.046 C  
HETATM   17  C   UNL     1      -8.262   3.115  68.734  1.00  0.00    -0.076 C  
HETATM   18  C   UNL     1      -7.417   4.362  68.489  1.00  0.00    -0.064 C  
HETATM   19  C   UNL     1      -6.210   2.027  69.659  1.00  0.00    -0.025 C  
HETATM   20  C   UNL     1      -5.392   3.208  69.099  1.00  0.00    -0.012 C  
BRANCH  16  21
HETATM   21  C   UNL     1      -8.048   3.056  71.193  1.00  0.00    -0.057 A  
HETATM   22  N   UNL     1      -7.213   3.135  72.238  1.00  0.00    -0.045 NA 
HETATM   23  O   UNL     1      -7.706   4.156  73.040  1.00  0.00    -0.077 OA 
HETATM   24  C   UNL     1      -8.844   4.660  72.491  1.00  0.00    -0.118 A  
HETATM   25  C   UNL     1      -9.157   3.938  71.353  1.00  0.00    -0.174 A  
HETATM   26  C   UNL     1     -10.311   4.279  70.624  1.00  0.00     0.146 A  
HETATM   27  C   UNL     1     -11.086   5.356  71.072  1.00  0.00    -0.017 A  
HETATM   28  C   UNL     1     -10.706   6.077  72.203  1.00  0.00    -0.226 A  
HETATM   29  C   UNL     1      -9.577   5.749  72.953  1.00  0.00    -0.163 A  
HETATM   30  F   UNL     1     -11.449   7.129  72.574  1.00  0.00    -0.272 F  
ENDBRANCH  16  21
ENDBRANCH  14  15
ENDBRANCH  13  14
ENDBRANCH   3  13
TORSDOF 4
ENDMDL
MODEL      234
REMARK 921   NORMALIZED FREE ENERGY PREDICTED BY IDOCK:    1.40 KCAL/MOL
REMARK 922        TOTAL FREE ENERGY PREDICTED BY IDOCK:    0.99 KCAL/MOL
REMARK 923 INTER-LIGAND FREE ENERGY PREDICTED BY IDOCK:    0.95 KCAL/MOL
REMARK 924 INTRA-LIGAND FREE ENERGY PREDICTED BY IDOCK:    0.05 KCAL/MOL
REMARK 927      BINDING AFFINITY PREDICTED BY RF-SCORE:    0.00 PKD
ROOT
HETATM    1  C   UNL     1     -10.665  11.692  69.333  1.00  0.00    -0.080 C  
HETATM    2  C   UNL     1     -10.311  12.235  67.972  1.00  0.00    -0.214 C  
HETATM    3  C   UNL     1      -9.107  12.730  67.623  1.00  0.00    -0.193 C  
HETATM    4  C   UNL     1     -12.370  13.326  63.771  1.00  0.00    -0.440 C  
HETATM    5  C   UNL     1      -8.956  13.172  66.209  1.00  0.00     0.116 C  
HETATM    6  N   UNL     1     -10.048  13.004  65.380  1.00  0.00    -0.279 N  
HETATM    7  O   UNL     1      -7.892  13.652  65.824  1.00  0.00     2.444 OA 
HETATM    8  C   UNL     1     -12.438  12.429  64.990  1.00  0.00    -0.393 C  
HETATM    9  N   UNL     1     -11.377  12.161  67.116  1.00  0.00    -0.309 NA 
HETATM   10  C   UNL     1      -9.918  13.517  64.023  1.00  0.00     0.958 C  
HETATM   11  C   UNL     1     -11.038  13.107  63.081  1.00  0.00     0.666 C  
HETATM   12  C   UNL     1     -11.231  12.553  65.896  1.00  0.00    -0.320 C  
ENDROOT
BRANCH   3  13
HETATM   13  C   UNL     1      -7.849  12.839  68.450  1.00  0.00    -0.132 C  
BRANCH  13  14
HETATM   14  C   UNL     1      -7.495  11.564  69.266  1.00  0.00     0.035 C  
BRANCH  14  15
HETATM   15  N   UNL     1      -7.638  10.291  68.539  1.00  0.00    -0.086 NA 
HETATM   16  C   UNL     1      -6.303   7.976  69.924  1.00  0.00    -0.030 C  
HETATM   17  C   UNL     1      -5.555   9.146  69.272  1.00  0.00    -0.035 C  
HETATM   18  C   UNL     1      -6.372   9.699  68.108  1.00  0.00    -0.056 C  
HETATM   19  C   UNL     1      -7.712   8.442  70.323  1.00  0.00    -0.080 C  
HETATM   20  C   UNL     1      -8.445   9.289  69.264  1.00  0.00    -0.137 C  
BRANCH  16  21
HETATM   21  C   UNL     1      -6.192   6.774  69.019  1.00  0.00    -0.027 A  
HETATM   22  N   UNL     1      -5.140   6.568  68.215  1.00  0.00    -0.007 NA 
HETATM   23  O   UNL     1      -5.210   5.235  67.835  1.00  0.00    -0.003 OA 
HETATM   24  C   UNL     1      -6.313   4.659  68.383  1.00  0.00    -0.036 A  
HETATM   25  C   UNL     1      -7.025   5.618  69.081  1.00  0.00    -0.063 A  
HETATM   26  C   UNL     1      -8.220   5.247  69.726  1.00  0.00    -0.098 A  
HETATM   27  C   UNL     1      -8.628   3.910  69.650  1.00  0.00    -0.107 A  
HETATM   28  C   UNL     1      -7.854   2.973  68.967  1.00  0.00    -0.049 A  
HETATM   29  C   UNL     1      -6.675   3.317  68.306  1.00  0.00    -0.045 A  
HETATM   30  F   UNL     1      -8.254   1.694  68.956  1.00  0.00    -0.052 F  
ENDBRANCH  16  21
ENDBRANCH  14  15
ENDBRANCH  13  14
ENDBRANCH   3  13
TORSDOF 4
ENDMDL
MODEL      235
REMARK 921   NORMALIZED FREE ENERGY PREDICTED BY IDOCK:    2.14 KCAL/MOL
REMARK 922        TOTAL FREE ENERGY PREDICTED BY IDOCK:    1.90 KCAL/MOL
REMARK 923 INTER-LIGAND FREE ENERGY PREDICTED BY IDOCK:    1.37 KCAL/MOL
REMARK 924 INTRA-LIGAND FREE ENERGY PREDICTED BY IDOCK:    0.53 KCAL/MOL
REMARK 927      BINDING AFFINITY PREDICTED BY RF-SCORE:    0.00 PKD
ROOT
HETATM    1  C   UNL     1     -10.108   8.749  69.219  1.00  0.00    -0.206 C  
HETATM    2  C   UNL     1      -9.041   9.598  68.576  1.00  0.00    -0.131 C  
HETATM    3  C   UNL     1      -8.874   9.760  67.249  1.00  0.00    -0.139 C  
HETATM    4  C   UNL     1      -5.127  12.132  69.734  1.00  0.00    -0.074 C  
HETATM    5  C   UNL     1      -7.784  10.682  66.825  1.00  0.00    -0.127 C  
HETATM    6  N   UNL     1      -7.068  11.308  67.826  1.00  0.00    -0.083 N  
HETATM    7  O   UNL     1      -7.561  10.864  65.630  1.00  0.00    -0.092 OA 
HETATM    8  C   UNL     1      -6.474  11.636  70.221  1.00  0.00     0.139 C  
HETATM    9  N   UNL     1      -8.248  10.196  69.519  1.00  0.00    -0.161 NA 
HETATM   10  C   UNL     1      -5.951  12.142  67.403  1.00  0.00    -0.139 C  
HETATM   11  C   UNL     1      -5.342  12.993  68.504  1.00  0.00    -0.063 C  
HETATM   12  C   UNL     1      -7.304  10.987  69.134  1.00  0.00    -0.121 C  
ENDROOT
BRANCH   3  13
HETATM   13  C   UNL     1      -9.688   9.191  66.112  1.00  0.00    -0.357 C  
BRANCH  13  14
HETATM   14  C   UNL     1     -10.020  10.202  64.980  1.00  0.00    -0.305 C  
BRANCH  14  15
HETATM   15  N   UNL     1     -10.968  11.270  65.345  1.00  0.00    -0.187 NA 
HETATM   16  C   UNL     1     -10.375  13.895  63.998  1.00  0.00     0.798 C  
HETATM   17  C   UNL     1      -9.494  13.255  65.079  1.00  0.00     0.424 C  
HETATM   18  C   UNL     1     -10.354  12.414  66.017  1.00  0.00    -0.251 C  
HETATM   19  C   UNL     1     -11.173  12.793  63.285  1.00  0.00    -0.160 C  
HETATM   20  C   UNL     1     -11.797  11.731  64.214  1.00  0.00    -0.217 C  
BRANCH  16  21
HETATM   21  C   UNL     1     -11.150  15.030  64.624  1.00  0.00    -0.321 A  
HETATM   22  N   UNL     1     -12.488  15.035  64.701  1.00  0.00    -0.330 NA 
HETATM   23  O   UNL     1     -12.808  16.012  65.634  1.00  0.00     2.206 OA 
HETATM   24  C   UNL     1     -11.671  16.605  66.085  1.00  0.00     1.499 A  
HETATM   25  C   UNL     1     -10.585  16.075  65.411  1.00  0.00    -0.428 A  
HETATM   26  C   UNL     1      -9.295  16.553  65.710  1.00  0.00    -0.110 A  
HETATM   27  C   UNL     1      -9.165  17.536  66.699  1.00  0.00    -0.277 A  
HETATM   28  C   UNL     1     -10.287  18.010  67.378  1.00  0.00    -0.382 A  
HETATM   29  C   UNL     1     -11.576  17.565  67.089  1.00  0.00     1.321 A  
HETATM   30  F   UNL     1     -10.115  18.917  68.349  1.00  0.00    -0.355 F  
ENDBRANCH  16  21
ENDBRANCH  14  15
ENDBRANCH  13  14
ENDBRANCH   3  13
TORSDOF 4
ENDMDL
MODEL      236
REMARK 921   NORMALIZED FREE ENERGY PREDICTED BY IDOCK:    3.53 KCAL/MOL
REMARK 922        TOTAL FREE ENERGY PREDICTED BY IDOCK:    3.61 KCAL/MOL
REMARK 923 INTER-LIGAND FREE ENERGY PREDICTED BY IDOCK:    1.64 KCAL/MOL
REMARK 924 INTRA-LIGAND FREE ENERGY PREDICTED BY IDOCK:    1.97 KCAL/MOL
REMARK 927      BINDING AFFINITY PREDICTED BY RF-SCORE:    0.00 PKD
ROOT
HETATM    1  C   UNL     1     -11.135  16.826  66.851  1.00  0.00     0.223 C  
HETATM    2  C   UNL     1     -11.368  15.402  66.415  1.00  0.00    -0.087 C  
HETATM    3  C   UNL     1     -11.154  14.312  67.178  1.00  0.00    -0.318 C  
HETATM    4  C   UNL     1     -12.493  12.869  62.491  1.00  0.00     1.715 C  
HETATM    5  C   UNL     1     -11.493  12.997  66.566  1.00  0.00    -0.340 C  
HETATM    6  N   UNL     1     -12.025  13.018  65.292  1.00  0.00    -0.380 N  
HETATM    7  O   UNL     1     -11.307  11.958  67.196  1.00  0.00    -0.300 OA 
HETATM    8  C   UNL     1     -12.646  14.203  63.193  1.00  0.00     1.044 C  
HETATM    9  N   UNL     1     -11.832  15.348  65.128  1.00  0.00    -0.036 NA 
HETATM   10  C   UNL     1     -12.275  11.724  64.671  1.00  0.00     0.049 C  
HETATM   11  C   UNL     1     -13.071  11.784  63.378  1.00  0.00    -0.003 C  
HETATM   12  C   UNL     1     -12.117  14.200  64.611  1.00  0.00    -0.452 C  
ENDROOT
BRANCH   3  13
HETATM   13  C   UNL     1     -10.679  14.232  68.608  1.00  0.00    -0.256 C  
BRANCH  13  14
HETATM   14  C   UNL     1     -11.377  13.139  69.465  1.00  0.00    -0.160 C  
BRANCH  14  15
HETATM   15  N   UNL     1     -10.472  12.230  70.189  1.00  0.00     1.540 NA 
HETATM   16  C   UNL     1     -10.327   9.481  68.971  1.00  0.00    -0.219 C  
HETATM   17  C   UNL     1     -11.561  10.052  69.681  1.00  0.00    -0.156 C  
HETATM   18  C   UNL     1     -11.128  11.050  70.751  1.00  0.00     0.694 C  
HETATM   19  C   UNL     1      -9.480  10.642  68.428  1.00  0.00    -0.165 C  
HETATM   20  C   UNL     1      -9.292  11.825  69.398  1.00  0.00     0.801 C  
BRANCH  16  21
HETATM   21  C   UNL     1      -9.655   8.496  69.897  1.00  0.00    -0.171 A  
HETATM   22  N   UNL     1      -9.409   8.769  71.186  1.00  0.00    -0.210 NA 
HETATM   23  O   UNL     1      -9.140   7.545  71.785  1.00  0.00    -0.125 OA 
HETATM   24  C   UNL     1      -9.196   6.556  70.853  1.00  0.00    -0.154 A  
HETATM   25  C   UNL     1      -9.438   7.117  69.611  1.00  0.00    -0.152 A  
HETATM   26  C   UNL     1      -9.525   6.275  68.487  1.00  0.00    -0.123 A  
HETATM   27  C   UNL     1      -9.382   4.895  68.678  1.00  0.00    -0.182 A  
HETATM   28  C   UNL     1      -9.179   4.376  69.956  1.00  0.00    -0.131 A  
HETATM   29  C   UNL     1      -9.073   5.189  71.084  1.00  0.00    -0.174 A  
HETATM   30  F   UNL     1      -9.093   3.047  70.104  1.00  0.00    -0.129 F  
ENDBRANCH  16  21
ENDBRANCH  14  15
ENDBRANCH  13  14
ENDBRANCH   3  13
TORSDOF 4
ENDMDL
MODEL      237
REMARK 921   NORMALIZED FREE ENERGY PREDICTED BY IDOCK:    4.44 KCAL/MOL
REMARK 922        TOTAL FREE ENERGY PREDICTED BY IDOCK:    4.74 KCAL/MOL
REMARK 923 INTER-LIGAND FREE ENERGY PREDICTED BY IDOCK:   -3.75 KCAL/MOL
REMARK 924 INTRA-LIGAND FREE ENERGY PREDICTED BY IDOCK:    8.49 KCAL/MOL
REMARK 927      BINDING AFFINITY PREDICTED BY RF-SCORE:    0.00 PKD
ROOT
HETATM    1  C   UNL     1      -7.518   2.967  64.107  1.00  0.00    -0.067 C  
HETATM    2  C   UNL     1      -8.119   3.967  65.062  1.00  0.00    -0.093 C  
HETATM    3  C   UNL     1      -8.708   3.664  66.235  1.00  0.00    -0.120 C  
HETATM    4  C   UNL     1      -9.163   8.648  65.346  1.00  0.00    -0.103 C  
HETATM    5  C   UNL     1      -9.195   4.811  67.049  1.00  0.00    -0.126 C  
HETATM    6  N   UNL     1      -8.970   6.077  66.546  1.00  0.00    -0.129 N  
HETATM    7  O   UNL     1      -9.760   4.609  68.122  1.00  0.00    -0.152 OA 
HETATM    8  C   UNL     1      -8.234   7.619  64.735  1.00  0.00    -0.081 C  
HETATM    9  N   UNL     1      -7.990   5.245  64.586  1.00  0.00    -0.102 NA 
HETATM   10  C   UNL     1      -9.524   7.188  67.308  1.00  0.00    -0.140 C  
HETATM   11  C   UNL     1      -9.058   8.562  66.856  1.00  0.00    -0.177 C  
HETATM   12  C   UNL     1      -8.422   6.228  65.302  1.00  0.00    -0.111 C  
ENDROOT
BRANCH   3  13
HETATM   13  C   UNL     1      -8.887   2.314  66.886  1.00  0.00    -0.146 C  
BRANCH  13  14
HETATM   14  C   UNL     1      -7.658   1.816  67.698  1.00  0.00    -0.058 C  
BRANCH  14  15
HETATM   15  N   UNL     1      -7.374   2.563  68.935  1.00  0.00    -0.044 NA 
HETATM   16  C   UNL     1      -9.757   2.788  70.760  1.00  0.00    -0.109 C  
HETATM   17  C   UNL     1      -9.634   3.489  69.401  1.00  0.00    -0.171 C  
HETATM   18  C   UNL     1      -8.168   3.780  69.098  1.00  0.00    -0.060 C  
HETATM   19  C   UNL     1      -8.865   1.537  70.760  1.00  0.00    -0.110 C  
HETATM   20  C   UNL     1      -7.461   1.734  70.154  1.00  0.00    -0.036 C  
BRANCH  16  21
HETATM   21  C   UNL     1      -9.531   3.810  71.847  1.00  0.00    -0.141 A  
HETATM   22  N   UNL     1      -8.929   3.511  73.006  1.00  0.00    -0.095 NA 
HETATM   23  O   UNL     1      -8.576   4.729  73.573  1.00  0.00    -0.105 OA 
HETATM   24  C   UNL     1      -8.992   5.746  72.771  1.00  0.00    -0.127 A  
HETATM   25  C   UNL     1      -9.685   5.219  71.695  1.00  0.00    -0.211 A  
HETATM   26  C   UNL     1     -10.222   6.096  70.734  1.00  0.00    -0.249 A  
HETATM   27  C   UNL     1     -10.012   7.471  70.898  1.00  0.00    -0.181 A  
HETATM   28  C   UNL     1      -9.274   7.949  71.980  1.00  0.00    -0.155 A  
HETATM   29  C   UNL     1      -8.745   7.103  72.955  1.00  0.00    -0.144 A  
HETATM   30  F   UNL     1      -9.057   9.268  72.078  1.00  0.00    -0.200 F  
ENDBRANCH  16  21
ENDBRANCH  14  15
ENDBRANCH  13  14
ENDBRANCH   3  13
TORSDOF 4
ENDMDL
MODEL      238
REMARK 921   NORMALIZED FREE ENERGY PREDICTED BY IDOCK:    5.30 KCAL/MOL
REMARK 922        TOTAL FREE ENERGY PREDICTED BY IDOCK:    5.80 KCAL/MOL
REMARK 923 INTER-LIGAND FREE ENERGY PREDICTED BY IDOCK:    1.12 KCAL/MOL
REMARK 924 INTRA-LIGAND FREE ENERGY PREDICTED BY IDOCK:    4.68 KCAL/MOL
REMARK 927      BINDING AFFINITY PREDICTED BY RF-SCORE:    0.00 PKD
ROOT
HETATM    1  C   UNL     1      -9.205  13.286  69.063  1.00  0.00     0.423 C  
HETATM    2  C   UNL     1      -9.796  12.074  69.735  1.00  0.00     1.621 C  
HETATM    3  C   UNL     1      -9.229  10.852  69.772  1.00  0.00     0.561 C  
HETATM    4  C   UNL     1     -13.834  10.649  71.914  1.00  0.00     0.146 C  
HETATM    5  C   UNL     1      -9.961   9.802  70.533  1.00  0.00    -0.193 C  
HETATM    6  N   UNL     1     -11.133  10.183  71.156  1.00  0.00    -0.210 N  
HETATM    7  O   UNL     1      -9.513   8.659  70.593  1.00  0.00    -0.164 OA 
HETATM    8  C   UNL     1     -12.941  11.833  71.608  1.00  0.00    -0.467 C  
HETATM    9  N   UNL     1     -11.000  12.368  70.318  1.00  0.00     0.864 NA 
HETATM   10  C   UNL     1     -11.885   9.131  71.825  1.00  0.00    -0.383 C  
HETATM   11  C   UNL     1     -13.033   9.623  72.691  1.00  0.00    -0.063 C  
HETATM   12  C   UNL     1     -11.625  11.445  70.968  1.00  0.00     0.619 C  
ENDROOT
BRANCH   3  13
HETATM   13  C   UNL     1      -7.904  10.403  69.205  1.00  0.00    -0.134 C  
BRANCH  13  14
HETATM   14  C   UNL     1      -7.849  10.338  67.653  1.00  0.00    -0.098 C  
BRANCH  14  15
HETATM   15  N   UNL     1      -8.504  11.456  66.951  1.00  0.00    -0.152 NA 
HETATM   16  C   UNL     1     -10.591  10.560  64.977  1.00  0.00    -0.109 C  
HETATM   17  C   UNL     1      -9.083  10.333  64.809  1.00  0.00    -0.256 C  
HETATM   18  C   UNL     1      -8.310  11.451  65.502  1.00  0.00     0.236 C  
HETATM   19  C   UNL     1     -10.913  10.701  66.472  1.00  0.00    -0.098 C  
HETATM   20  C   UNL     1      -9.939  11.590  67.271  1.00  0.00    -0.191 C  
BRANCH  16  21
HETATM   21  C   UNL     1     -11.010  11.684  64.060  1.00  0.00    -0.387 A  
HETATM   22  N   UNL     1     -11.817  11.495  63.008  1.00  0.00     0.066 NA 
HETATM   23  O   UNL     1     -12.264  12.759  62.644  1.00  0.00     0.333 OA 
HETATM   24  C   UNL     1     -11.702  13.695  63.455  1.00  0.00    -0.051 A  
HETATM   25  C   UNL     1     -10.825  13.072  64.326  1.00  0.00    -0.430 A  
HETATM   26  C   UNL     1     -10.116  13.855  65.256  1.00  0.00    -0.328 A  
HETATM   27  C   UNL     1     -10.347  15.236  65.275  1.00  0.00    -0.430 A  
HETATM   28  C   UNL     1     -11.270  15.810  64.403  1.00  0.00    -0.236 A  
HETATM   29  C   UNL     1     -11.974  15.060  63.461  1.00  0.00     0.912 A  
HETATM   30  F   UNL     1     -11.496  17.129  64.482  1.00  0.00    -0.286 F  
ENDBRANCH  16  21
ENDBRANCH  14  15
ENDBRANCH  13  14
ENDBRANCH   3  13
TORSDOF 4
ENDMDL
MODEL      239
REMARK 921   NORMALIZED FREE ENERGY PREDICTED BY IDOCK:    5.97 KCAL/MOL
REMARK 922        TOTAL FREE ENERGY PREDICTED BY IDOCK:    6.62 KCAL/MOL
REMARK 923 INTER-LIGAND FREE ENERGY PREDICTED BY IDOCK:   -2.29 KCAL/MOL
REMARK 924 INTRA-LIGAND FREE ENERGY PREDICTED BY IDOCK:    8.91 KCAL/MOL
REMARK 927      BINDING AFFINITY PREDICTED BY RF-SCORE:    0.00 PKD
ROOT
HETATM    1  C   UNL     1      -8.706  12.041  68.610  1.00  0.00    -0.014 C  
HETATM    2  C   UNL     1      -7.747  11.486  69.632  1.00  0.00     0.545 C  
HETATM    3  C   UNL     1      -6.820  12.204  70.298  1.00  0.00     0.916 C  
HETATM    4  C   UNL     1      -6.326   7.285  71.480  1.00  0.00    -0.036 C  
HETATM    5  C   UNL     1      -6.004  11.467  71.302  1.00  0.00     0.571 C  
HETATM    6  N   UNL     1      -6.293  10.128  71.482  1.00  0.00     0.333 N  
HETATM    7  O   UNL     1      -5.128  12.053  71.933  1.00  0.00    -0.326 OA 
HETATM    8  C   UNL     1      -7.480   8.035  70.846  1.00  0.00    -0.069 C  
HETATM    9  N   UNL     1      -7.934  10.141  69.809  1.00  0.00    -0.171 NA 
HETATM   10  C   UNL     1      -5.434   9.397  72.403  1.00  0.00    -0.040 C  
HETATM   11  C   UNL     1      -5.922   8.001  72.753  1.00  0.00    -0.055 C  
HETATM   12  C   UNL     1      -7.215   9.516  70.679  1.00  0.00    -0.122 C  
ENDROOT
BRANCH   3  13
HETATM   13  C   UNL     1      -6.532  13.684  70.223  1.00  0.00     0.081 C  
BRANCH  13  14
HETATM   14  C   UNL     1      -7.554  14.504  69.386  1.00  0.00    -0.033 C  
BRANCH  14  15
HETATM   15  N   UNL     1      -8.195  13.771  68.280  1.00  0.00    -0.150 NA 
HETATM   16  C   UNL     1     -10.103  15.465  66.683  1.00  0.00    -0.273 C  
HETATM   17  C   UNL     1     -10.341  15.019  68.131  1.00  0.00    -0.239 C  
HETATM   18  C   UNL     1      -9.651  13.682  68.382  1.00  0.00    -0.203 C  
HETATM   19  C   UNL     1      -8.591  15.487  66.407  1.00  0.00    -0.292 C  
HETATM   20  C   UNL     1      -7.810  14.271  66.944  1.00  0.00     0.249 C  
BRANCH  16  21
HETATM   21  C   UNL     1     -10.968  14.624  65.776  1.00  0.00    -0.330 A  
HETATM   22  N   UNL     1     -12.065  15.105  65.174  1.00  0.00    -0.064 NA 
HETATM   23  O   UNL     1     -12.372  14.197  64.169  1.00  0.00    -0.628 OA 
HETATM   24  C   UNL     1     -11.483  13.169  64.192  1.00  0.00    -0.403 A  
HETATM   25  C   UNL     1     -10.613  13.346  65.254  1.00  0.00    -0.333 A  
HETATM   26  C   UNL     1      -9.607  12.388  65.480  1.00  0.00    -0.076 A  
HETATM   27  C   UNL     1      -9.517  11.300  64.602  1.00  0.00    -0.215 A  
HETATM   28  C   UNL     1     -10.394  11.188  63.524  1.00  0.00    -0.387 A  
HETATM   29  C   UNL     1     -11.408  12.114  63.287  1.00  0.00    -0.410 A  
HETATM   30  F   UNL     1     -10.246  10.157  62.680  1.00  0.00    -0.114 F  
ENDBRANCH  16  21
ENDBRANCH  14  15
ENDBRANCH  13  14
ENDBRANCH   3  13
TORSDOF 4
ENDMDL
MODEL      240
REMARK 921   NORMALIZED FREE ENERGY PREDICTED BY IDOCK:    6.60 KCAL/MOL
REMARK 922        TOTAL FREE ENERGY PREDICTED BY IDOCK:    7.40 KCAL/MOL
REMARK 923 INTER-LIGAND FREE ENERGY PREDICTED BY IDOCK:   -1.21 KCAL/MOL
REMARK 924 INTRA-LIGAND FREE ENERGY PREDICTED BY IDOCK:    8.61 KCAL/MOL
REMARK 927      BINDING AFFINITY PREDICTED BY RF-SCORE:    0.00 PKD
ROOT
HETATM    1  C   UNL     1     -10.318  13.347  68.352  1.00  0.00    -0.253 C  
HETATM    2  C   UNL     1     -10.726  12.154  69.177  1.00  0.00    -0.061 C  
HETATM    3  C   UNL     1     -11.920  11.998  69.781  1.00  0.00    -0.370 C  
HETATM    4  C   UNL     1      -8.872   8.127  71.030  1.00  0.00    -0.163 C  
HETATM    5  C   UNL     1     -12.134  10.718  70.511  1.00  0.00    -0.366 C  
HETATM    6  N   UNL     1     -11.105   9.797  70.475  1.00  0.00    -0.296 N  
HETATM    7  O   UNL     1     -13.193  10.515  71.101  1.00  0.00    -0.361 OA 
HETATM    8  C   UNL     1      -8.777   9.131  69.899  1.00  0.00    -0.170 C  
HETATM    9  N   UNL     1      -9.719  11.228  69.240  1.00  0.00     0.038 NA 
HETATM   10  C   UNL     1     -11.290   8.585  71.260  1.00  0.00    -0.271 C  
HETATM   11  C   UNL     1     -10.254   7.503  71.011  1.00  0.00    -0.194 C  
HETATM   12  C   UNL     1      -9.918  10.126  69.881  1.00  0.00    -0.203 C  
ENDROOT
BRANCH   3  13
HETATM   13  C   UNL     1     -13.118  12.917  69.766  1.00  0.00     1.223 C  
BRANCH  13  14
HETATM   14  C   UNL     1     -12.927  14.221  68.941  1.00  0.00     1.443 C  
BRANCH  14  15
HETATM   15  N   UNL     1     -11.535  14.681  68.802  1.00  0.00    -0.281 NA 
HETATM   16  C   UNL     1     -11.273  17.195  67.167  1.00  0.00     0.346 C  
HETATM   17  C   UNL     1     -11.685  15.829  66.601  1.00  0.00     0.522 C  
HETATM   18  C   UNL     1     -11.047  14.714  67.424  1.00  0.00    -0.326 C  
HETATM   19  C   UNL     1     -11.630  17.246  68.661  1.00  0.00     0.929 C  
HETATM   20  C   UNL     1     -11.276  15.977  69.462  1.00  0.00    -0.348 C  
BRANCH  16  21
HETATM   21  C   UNL     1      -9.838  17.460  66.779  1.00  0.00    -0.296 A  
HETATM   22  N   UNL     1      -9.496  17.998  65.601  1.00  0.00    -0.224 NA 
HETATM   23  O   UNL     1      -8.182  18.423  65.747  1.00  0.00    -0.494 OA 
HETATM   24  C   UNL     1      -7.737  18.112  66.994  1.00  0.00    -0.220 A  
HETATM   25  C   UNL     1      -8.726  17.419  67.669  1.00  0.00    -0.221 A  
HETATM   26  C   UNL     1      -8.478  16.983  68.984  1.00  0.00    -0.124 A  
HETATM   27  C   UNL     1      -7.240  17.290  69.563  1.00  0.00     0.121 A  
HETATM   28  C   UNL     1      -6.291  18.025  68.855  1.00  0.00    -0.224 A  
HETATM   29  C   UNL     1      -6.506  18.455  67.546  1.00  0.00    -0.198 A  
HETATM   30  F   UNL     1      -5.137  18.338  69.460  1.00  0.00    -0.167 F  
ENDBRANCH  16  21
ENDBRANCH  14  15
ENDBRANCH  13  14
ENDBRANCH   3  13
TORSDOF 4
ENDMDL
MODEL      241
REMARK 921   NORMALIZED FREE ENERGY PREDICTED BY IDOCK:    7.01 KCAL/MOL
REMARK 922        TOTAL FREE ENERGY PREDICTED BY IDOCK:    7.91 KCAL/MOL
REMARK 923 INTER-LIGAND FREE ENERGY PREDICTED BY IDOCK:    5.24 KCAL/MOL
REMARK 924 INTRA-LIGAND FREE ENERGY PREDICTED BY IDOCK:    2.67 KCAL/MOL
REMARK 927      BINDING AFFINITY PREDICTED BY RF-SCORE:    0.00 PKD
ROOT
HETATM    1  C   UNL     1      -9.027  15.740  71.269  1.00  0.00     4.036 C  
HETATM    2  C   UNL     1      -8.999  16.307  69.873  1.00  0.00     0.693 C  
HETATM    3  C   UNL     1      -9.068  15.582  68.739  1.00  0.00    -0.207 C  
HETATM    4  C   UNL     1      -8.309  20.474  67.583  1.00  0.00    -0.243 C  
HETATM    5  C   UNL     1      -9.071  16.347  67.461  1.00  0.00    -0.193 C  
HETATM    6  N   UNL     1      -9.035  17.724  67.556  1.00  0.00    -0.242 N  
HETATM    7  O   UNL     1      -9.114  15.752  66.387  1.00  0.00    -0.264 OA 
HETATM    8  C   UNL     1      -8.793  19.828  68.865  1.00  0.00    -0.154 C  
HETATM    9  N   UNL     1      -8.893  17.672  69.895  1.00  0.00     1.368 NA 
HETATM   10  C   UNL     1      -8.953  18.460  66.301  1.00  0.00    -0.191 C  
HETATM   11  C   UNL     1      -9.152  19.961  66.432  1.00  0.00    -0.450 C  
HETATM   12  C   UNL     1      -8.891  18.320  68.779  1.00  0.00    -0.215 C  
ENDROOT
BRANCH   3  13
HETATM   13  C   UNL     1      -9.217  14.089  68.574  1.00  0.00    -0.170 C  
BRANCH  13  14
HETATM   14  C   UNL     1     -10.587  13.633  67.997  1.00  0.00    -0.249 C  
BRANCH  14  15
HETATM   15  N   UNL     1     -10.868  12.190  68.105  1.00  0.00    -0.211 NA 
HETATM   16  C   UNL     1      -9.383  10.858  70.358  1.00  0.00     1.986 C  
HETATM   17  C   UNL     1      -8.721  11.412  69.090  1.00  0.00     0.186 C  
HETATM   18  C   UNL     1      -9.697  11.334  67.920  1.00  0.00    -0.177 C  
HETATM   19  C   UNL     1     -10.703  11.605  70.602  1.00  0.00     2.182 C  
HETATM   20  C   UNL     1     -11.574  11.822  69.348  1.00  0.00    -0.322 C  
BRANCH  16  21
HETATM   21  C   UNL     1      -9.440   9.353  70.249  1.00  0.00    -0.251 A  
HETATM   22  N   UNL     1      -9.748   8.564  71.287  1.00  0.00    -0.189 NA 
HETATM   23  O   UNL     1     -10.057   7.326  70.741  1.00  0.00    -0.190 OA 
HETATM   24  C   UNL     1      -9.904   7.369  69.391  1.00  0.00    -0.168 A  
HETATM   25  C   UNL     1      -9.429   8.617  69.028  1.00  0.00    -0.153 A  
HETATM   26  C   UNL     1      -9.183   8.886  67.669  1.00  0.00    -0.151 A  
HETATM   27  C   UNL     1      -9.452   7.879  66.734  1.00  0.00    -0.257 A  
HETATM   28  C   UNL     1      -9.968   6.651  67.146  1.00  0.00    -0.160 A  
HETATM   29  C   UNL     1     -10.205   6.354  68.488  1.00  0.00    -0.198 A  
HETATM   30  F   UNL     1     -10.255   5.730  66.216  1.00  0.00    -0.207 F  
ENDBRANCH  16  21
ENDBRANCH  14  15
ENDBRANCH  13  14
ENDBRANCH   3  13
TORSDOF 4
ENDMDL
MODEL      242
REMARK 921   NORMALIZED FREE ENERGY PREDICTED BY IDOCK:    7.17 KCAL/MOL
REMARK 922        TOTAL FREE ENERGY PREDICTED BY IDOCK:    8.11 KCAL/MOL
REMARK 923 INTER-LIGAND FREE ENERGY PREDICTED BY IDOCK:    4.30 KCAL/MOL
REMARK 924 INTRA-LIGAND FREE ENERGY PREDICTED BY IDOCK:    3.80 KCAL/MOL
REMARK 927      BINDING AFFINITY PREDICTED BY RF-SCORE:    0.00 PKD
ROOT
HETATM    1  C   UNL     1      -9.012  15.782  71.318  1.00  0.00     4.036 C  
HETATM    2  C   UNL     1      -9.042  15.899  69.816  1.00  0.00     0.097 C  
HETATM    3  C   UNL     1      -9.161  14.866  68.959  1.00  0.00    -0.176 C  
HETATM    4  C   UNL     1      -8.439  19.165  66.344  1.00  0.00    -0.325 C  
HETATM    5  C   UNL     1      -9.216  15.207  67.511  1.00  0.00    -0.186 C  
HETATM    6  N   UNL     1      -9.172  16.548  67.182  1.00  0.00    -0.211 N  
HETATM    7  O   UNL     1      -9.306  14.315  66.671  1.00  0.00    -0.268 OA 
HETATM    8  C   UNL     1      -8.870  18.945  67.780  1.00  0.00    -0.318 C  
HETATM    9  N   UNL     1      -8.932  17.204  69.419  1.00  0.00     0.159 NA 
HETATM   10  C   UNL     1      -9.141  16.868  65.761  1.00  0.00     0.106 C  
HETATM   11  C   UNL     1      -9.331  18.340  65.438  1.00  0.00     1.350 C  
HETATM   12  C   UNL     1      -8.975  17.483  68.160  1.00  0.00    -0.266 C  
ENDROOT
BRANCH   3  13
HETATM   13  C   UNL     1      -9.322  13.395  69.261  1.00  0.00     0.735 C  
BRANCH  13  14
HETATM   14  C   UNL     1      -9.643  12.509  68.025  1.00  0.00    -0.212 C  
BRANCH  14  15
HETATM   15  N   UNL     1     -10.370  11.261  68.315  1.00  0.00    -0.176 NA 
HETATM   16  C   UNL     1     -12.161  11.463  70.725  1.00  0.00    -0.475 C  
HETATM   17  C   UNL     1     -10.628  11.482  70.778  1.00  0.00     2.736 C  
HETATM   18  C   UNL     1     -10.059  10.673  69.617  1.00  0.00    -0.080 C  
HETATM   19  C   UNL     1     -12.621  11.955  69.344  1.00  0.00     0.350 C  
HETATM   20  C   UNL     1     -11.832  11.381  68.149  1.00  0.00    -0.218 C  
BRANCH  16  21
HETATM   21  C   UNL     1     -12.638  10.105  71.180  1.00  0.00    -0.386 A  
HETATM   22  N   UNL     1     -13.921   9.849  71.469  1.00  0.00    -0.019 NA 
HETATM   23  O   UNL     1     -14.036   8.465  71.484  1.00  0.00    -0.376 OA 
HETATM   24  C   UNL     1     -12.823   7.902  71.235  1.00  0.00    -0.217 A  
HETATM   25  C   UNL     1     -11.874   8.902  71.117  1.00  0.00    -0.353 A  
HETATM   26  C   UNL     1     -10.535   8.548  70.868  1.00  0.00    -0.248 A  
HETATM   27  C   UNL     1     -10.223   7.190  70.730  1.00  0.00    -0.208 A  
HETATM   28  C   UNL     1     -11.222   6.222  70.818  1.00  0.00    -0.324 A  
HETATM   29  C   UNL     1     -12.553   6.545  71.080  1.00  0.00    -0.004 A  
HETATM   30  F   UNL     1     -10.890   4.937  70.634  1.00  0.00    -0.220 F  
ENDBRANCH  16  21
ENDBRANCH  14  15
ENDBRANCH  13  14
ENDBRANCH   3  13
TORSDOF 4
ENDMDL
MODEL      243
REMARK 921   NORMALIZED FREE ENERGY PREDICTED BY IDOCK:    8.41 KCAL/MOL
REMARK 922        TOTAL FREE ENERGY PREDICTED BY IDOCK:    9.64 KCAL/MOL
REMARK 923 INTER-LIGAND FREE ENERGY PREDICTED BY IDOCK:    3.31 KCAL/MOL
REMARK 924 INTRA-LIGAND FREE ENERGY PREDICTED BY IDOCK:    6.33 KCAL/MOL
REMARK 927      BINDING AFFINITY PREDICTED BY RF-SCORE:    0.00 PKD
ROOT
HETATM    1  C   UNL     1     -10.744  17.465  70.040  1.00  0.00     0.642 C  
HETATM    2  C   UNL     1     -11.188  16.467  69.001  1.00  0.00    -0.238 C  
HETATM    3  C   UNL     1     -12.195  15.585  69.152  1.00  0.00    -0.175 C  
HETATM    4  C   UNL     1      -9.884  14.775  64.698  1.00  0.00     0.612 C  
HETATM    5  C   UNL     1     -12.500  14.718  67.980  1.00  0.00     0.388 C  
HETATM    6  N   UNL     1     -11.749  14.921  66.839  1.00  0.00    -0.305 N  
HETATM    7  O   UNL     1     -13.393  13.877  68.052  1.00  0.00     2.468 OA 
HETATM    8  C   UNL     1      -9.854  15.977  65.620  1.00  0.00    -0.309 C  
HETATM    9  N   UNL     1     -10.433  16.568  67.863  1.00  0.00    -0.302 NA 
HETATM   10  C   UNL     1     -11.998  14.013  65.728  1.00  0.00    -0.404 C  
HETATM   11  C   UNL     1     -11.329  14.410  64.422  1.00  0.00    -0.263 C  
HETATM   12  C   UNL     1     -10.707  15.807  66.858  1.00  0.00    -0.299 C  
ENDROOT
BRANCH   3  13
HETATM   13  C   UNL     1     -13.119  15.391  70.330  1.00  0.00    -0.223 C  
BRANCH  13  14
HETATM   14  C   UNL     1     -12.401  15.249  71.702  1.00  0.00    -0.363 C  
BRANCH  14  15
HETATM   15  N   UNL     1     -11.299  14.272  71.740  1.00  0.00     0.736 NA 
HETATM   16  C   UNL     1     -11.782  11.869  69.994  1.00  0.00    -0.366 C  
HETATM   17  C   UNL     1     -12.565  12.184  71.275  1.00  0.00    -0.341 C  
HETATM   18  C   UNL     1     -11.679  12.955  72.248  1.00  0.00     3.409 C  
HETATM   19  C   UNL     1     -11.221  13.177  69.416  1.00  0.00    -0.210 C  
HETATM   20  C   UNL     1     -10.594  14.134  70.450  1.00  0.00     0.906 C  
BRANCH  16  21
HETATM   21  C   UNL     1     -10.804  10.758  70.292  1.00  0.00     0.014 A  
HETATM   22  N   UNL     1      -9.527  10.791  69.887  1.00  0.00     0.360 NA 
HETATM   23  O   UNL     1      -8.869   9.825  70.636  1.00  0.00    -0.153 OA 
HETATM   24  C   UNL     1      -9.754   9.201  71.459  1.00  0.00    -0.243 A  
HETATM   25  C   UNL     1     -11.022   9.699  71.221  1.00  0.00    -0.399 A  
HETATM   26  C   UNL     1     -12.107   9.186  71.957  1.00  0.00    -0.431 A  
HETATM   27  C   UNL     1     -11.849   8.201  72.919  1.00  0.00    -0.145 A  
HETATM   28  C   UNL     1     -10.546   7.761  73.149  1.00  0.00    -0.352 A  
HETATM   29  C   UNL     1      -9.457   8.241  72.423  1.00  0.00    -0.357 A  
HETATM   30  F   UNL     1     -10.336   6.851  74.110  1.00  0.00    -0.348 F  
ENDBRANCH  16  21
ENDBRANCH  14  15
ENDBRANCH  13  14
ENDBRANCH   3  13
TORSDOF 4
ENDMDL
MODEL      244
REMARK 921   NORMALIZED FREE ENERGY PREDICTED BY IDOCK:    9.21 KCAL/MOL
REMARK 922        TOTAL FREE ENERGY PREDICTED BY IDOCK:   10.63 KCAL/MOL
REMARK 923 INTER-LIGAND FREE ENERGY PREDICTED BY IDOCK:   -0.99 KCAL/MOL
REMARK 924 INTRA-LIGAND FREE ENERGY PREDICTED BY IDOCK:   11.62 KCAL/MOL
REMARK 927      BINDING AFFINITY PREDICTED BY RF-SCORE:    0.00 PKD
ROOT
HETATM    1  C   UNL     1      -7.312   3.224  63.254  1.00  0.00    -0.054 C  
HETATM    2  C   UNL     1      -8.028   4.181  64.172  1.00  0.00    -0.089 C  
HETATM    3  C   UNL     1      -8.693   3.833  65.291  1.00  0.00    -0.116 C  
HETATM    4  C   UNL     1      -9.298   8.808  64.434  1.00  0.00     0.684 C  
HETATM    5  C   UNL     1      -9.292   4.945  66.080  1.00  0.00    -0.156 C  
HETATM    6  N   UNL     1      -9.085   6.228  65.612  1.00  0.00    -0.032 N  
HETATM    7  O   UNL     1      -9.929   4.702  67.103  1.00  0.00    -0.194 OA 
HETATM    8  C   UNL     1      -8.280   7.829  63.885  1.00  0.00     0.010 C  
HETATM    9  N   UNL     1      -7.920   5.471  63.725  1.00  0.00    -0.107 NA 
HETATM   10  C   UNL     1      -9.745   7.301  66.343  1.00  0.00    -0.079 C  
HETATM   11  C   UNL     1      -9.308   8.701  65.946  1.00  0.00    -0.262 C  
HETATM   12  C   UNL     1      -8.449   6.422  64.417  1.00  0.00     0.146 C  
ENDROOT
BRANCH   3  13
HETATM   13  C   UNL     1      -8.862   2.467  65.909  1.00  0.00    -0.128 C  
BRANCH  13  14
HETATM   14  C   UNL     1      -7.767   2.081  66.943  1.00  0.00    -0.066 C  
BRANCH  14  15
HETATM   15  N   UNL     1      -7.732   2.905  68.163  1.00  0.00    -0.056 NA 
HETATM   16  C   UNL     1      -5.946   5.315  67.917  1.00  0.00    -0.022 C  
HETATM   17  C   UNL     1      -5.447   3.865  67.963  1.00  0.00    -0.016 C  
HETATM   18  C   UNL     1      -6.411   3.011  68.780  1.00  0.00    -0.029 C  
HETATM   19  C   UNL     1      -7.389   5.332  67.389  1.00  0.00    -0.083 C  
HETATM   20  C   UNL     1      -8.315   4.250  67.979  1.00  0.00    -0.094 C  
BRANCH  16  21
HETATM   21  C   UNL     1      -5.684   5.954  69.260  1.00  0.00    -0.008 A  
HETATM   22  N   UNL     1      -5.591   7.280  69.424  1.00  0.00    -0.015 NA 
HETATM   23  O   UNL     1      -5.719   7.501  70.789  1.00  0.00    -0.030 OA 
HETATM   24  C   UNL     1      -5.855   6.312  71.435  1.00  0.00    -0.027 A  
HETATM   25  C   UNL     1      -5.755   5.283  70.516  1.00  0.00    -0.016 A  
HETATM   26  C   UNL     1      -5.855   3.953  70.966  1.00  0.00    -0.013 A  
HETATM   27  C   UNL     1      -6.074   3.729  72.331  1.00  0.00    -0.009 A  
HETATM   28  C   UNL     1      -6.207   4.803  73.211  1.00  0.00    -0.034 A  
HETATM   29  C   UNL     1      -6.096   6.128  72.794  1.00  0.00    -0.049 A  
HETATM   30  F   UNL     1      -6.462   4.548  74.502  1.00  0.00    -0.049 F  
ENDBRANCH  16  21
ENDBRANCH  14  15
ENDBRANCH  13  14
ENDBRANCH   3  13
TORSDOF 4
ENDMDL
MODEL      245
REMARK 921   NORMALIZED FREE ENERGY PREDICTED BY IDOCK:    9.28 KCAL/MOL
REMARK 922        TOTAL FREE ENERGY PREDICTED BY IDOCK:   10.72 KCAL/MOL
REMARK 923 INTER-LIGAND FREE ENERGY PREDICTED BY IDOCK:   -0.43 KCAL/MOL
REMARK 924 INTRA-LIGAND FREE ENERGY PREDICTED BY IDOCK:   11.14 KCAL/MOL
REMARK 927      BINDING AFFINITY PREDICTED BY RF-SCORE:    0.00 PKD
ROOT
HETATM    1  C   UNL     1      -7.671   3.209  64.095  1.00  0.00    -0.077 C  
HETATM    2  C   UNL     1      -8.442   4.154  64.980  1.00  0.00    -0.115 C  
HETATM    3  C   UNL     1      -9.110   3.802  66.096  1.00  0.00    -0.151 C  
HETATM    4  C   UNL     1      -9.915   8.726  65.121  1.00  0.00     1.071 C  
HETATM    5  C   UNL     1      -9.769   4.903  66.851  1.00  0.00    -0.179 C  
HETATM    6  N   UNL     1      -9.609   6.183  66.358  1.00  0.00    -0.151 N  
HETATM    7  O   UNL     1     -10.410   4.654  67.869  1.00  0.00    -0.017 OA 
HETATM    8  C   UNL     1      -8.846   7.781  64.609  1.00  0.00     0.434 C  
HETATM    9  N   UNL     1      -8.382   5.438  64.506  1.00  0.00    -0.140 NA 
HETATM   10  C   UNL     1     -10.326   7.242  67.055  1.00  0.00    -0.306 C  
HETATM   11  C   UNL     1      -9.944   8.651  66.635  1.00  0.00    -0.357 C  
HETATM   12  C   UNL     1      -8.964   6.380  65.169  1.00  0.00     0.274 C  
ENDROOT
BRANCH   3  13
HETATM   13  C   UNL     1      -9.229   2.442  66.742  1.00  0.00    -0.067 C  
BRANCH  13  14
HETATM   14  C   UNL     1      -8.172   2.151  67.843  1.00  0.00    -0.063 C  
BRANCH  14  15
HETATM   15  N   UNL     1      -8.251   3.010  69.037  1.00  0.00    -0.058 NA 
HETATM   16  C   UNL     1      -6.674   5.560  68.772  1.00  0.00    -0.053 C  
HETATM   17  C   UNL     1      -6.052   4.161  68.879  1.00  0.00    -0.030 C  
HETATM   18  C   UNL     1      -6.966   3.249  69.692  1.00  0.00    -0.041 C  
HETATM   19  C   UNL     1      -8.094   5.434  68.197  1.00  0.00    -0.095 C  
HETATM   20  C   UNL     1      -8.942   4.292  68.793  1.00  0.00    -0.113 C  
BRANCH  16  21
HETATM   21  C   UNL     1      -6.515   6.257  70.101  1.00  0.00    -0.040 A  
HETATM   22  N   UNL     1      -6.072   5.629  71.198  1.00  0.00    -0.032 NA 
HETATM   23  O   UNL     1      -5.712   6.632  72.088  1.00  0.00    -0.036 OA 
HETATM   24  C   UNL     1      -5.969   7.848  71.537  1.00  0.00    -0.035 A  
HETATM   25  C   UNL     1      -6.562   7.668  70.299  1.00  0.00    -0.038 A  
HETATM   26  C   UNL     1      -6.929   8.799  69.547  1.00  0.00    -0.055 A  
HETATM   27  C   UNL     1      -6.656  10.066  70.077  1.00  0.00    -0.102 A  
HETATM   28  C   UNL     1      -6.021  10.194  71.312  1.00  0.00     0.068 A  
HETATM   29  C   UNL     1      -5.662   9.090  72.084  1.00  0.00    -0.072 A  
HETATM   30  F   UNL     1      -5.737  11.423  71.764  1.00  0.00     0.149 F  
ENDBRANCH  16  21
ENDBRANCH  14  15
ENDBRANCH  13  14
ENDBRANCH   3  13
TORSDOF 4
ENDMDL
MODEL      246
REMARK 921   NORMALIZED FREE ENERGY PREDICTED BY IDOCK:   12.64 KCAL/MOL
REMARK 922        TOTAL FREE ENERGY PREDICTED BY IDOCK:   14.86 KCAL/MOL
REMARK 923 INTER-LIGAND FREE ENERGY PREDICTED BY IDOCK:    7.56 KCAL/MOL
REMARK 924 INTRA-LIGAND FREE ENERGY PREDICTED BY IDOCK:    7.31 KCAL/MOL
REMARK 927      BINDING AFFINITY PREDICTED BY RF-SCORE:    0.00 PKD
ROOT
HETATM    1  C   UNL     1      -8.102  17.229  70.428  1.00  0.00     3.400 C  
HETATM    2  C   UNL     1      -8.017  17.971  69.119  1.00  0.00     0.053 C  
HETATM    3  C   UNL     1      -8.982  18.763  68.610  1.00  0.00    -0.368 C  
HETATM    4  C   UNL     1      -5.180  18.357  65.260  1.00  0.00    -0.206 C  
HETATM    5  C   UNL     1      -8.673  19.441  67.321  1.00  0.00    -0.296 C  
HETATM    6  N   UNL     1      -7.421  19.223  66.782  1.00  0.00    -0.222 N  
HETATM    7  O   UNL     1      -9.513  20.164  66.789  1.00  0.00    -0.371 OA 
HETATM    8  C   UNL     1      -5.222  18.056  66.745  1.00  0.00    -0.164 C  
HETATM    9  N   UNL     1      -6.819  17.741  68.496  1.00  0.00    -0.224 NA 
HETATM   10  C   UNL     1      -7.159  19.821  65.481  1.00  0.00    -0.288 C  
HETATM   11  C   UNL     1      -5.709  19.759  65.033  1.00  0.00    -0.228 C  
HETATM   12  C   UNL     1      -6.570  18.331  67.376  1.00  0.00    -0.191 C  
ENDROOT
BRANCH   3  13
HETATM   13  C   UNL     1     -10.323  19.125  69.202  1.00  0.00     0.006 C  
BRANCH  13  14
HETATM   14  C   UNL     1     -10.507  18.718  70.691  1.00  0.00     2.162 C  
BRANCH  14  15
HETATM   15  N   UNL     1     -11.071  17.375  70.913  1.00  0.00     1.071 NA 
HETATM   16  C   UNL     1     -10.423  15.436  68.705  1.00  0.00    -0.231 C  
HETATM   17  C   UNL     1     -11.361  16.641  68.555  1.00  0.00    -0.152 C  
HETATM   18  C   UNL     1     -12.027  16.948  69.893  1.00  0.00     1.741 C  
HETATM   19  C   UNL     1      -9.428  15.713  69.842  1.00  0.00    -0.030 C  
HETATM   20  C   UNL     1     -10.043  16.333  71.113  1.00  0.00     2.119 C  
BRANCH  16  21
HETATM   21  C   UNL     1     -11.263  14.185  68.798  1.00  0.00    -0.268 A  
HETATM   22  N   UNL     1     -12.600  14.203  68.703  1.00  0.00     0.228 NA 
HETATM   23  O   UNL     1     -12.979  12.889  68.465  1.00  0.00     1.176 OA 
HETATM   24  C   UNL     1     -11.879  12.090  68.450  1.00  0.00    -0.300 A  
HETATM   25  C   UNL     1     -10.761  12.852  68.742  1.00  0.00    -0.249 A  
HETATM   26  C   UNL     1      -9.502  12.226  68.792  1.00  0.00     0.075 A  
HETATM   27  C   UNL     1      -9.432  10.853  68.523  1.00  0.00    -0.185 A  
HETATM   28  C   UNL     1     -10.582  10.137  68.195  1.00  0.00    -0.223 A  
HETATM   29  C   UNL     1     -11.844  10.730  68.154  1.00  0.00    -0.033 A  
HETATM   30  F   UNL     1     -10.467   8.835  67.899  1.00  0.00    -0.247 F  
ENDBRANCH  16  21
ENDBRANCH  14  15
ENDBRANCH  13  14
ENDBRANCH   3  13
TORSDOF 4
ENDMDL
MODEL      247
REMARK 921   NORMALIZED FREE ENERGY PREDICTED BY IDOCK:   13.55 KCAL/MOL
REMARK 922        TOTAL FREE ENERGY PREDICTED BY IDOCK:   15.98 KCAL/MOL
REMARK 923 INTER-LIGAND FREE ENERGY PREDICTED BY IDOCK:   -2.60 KCAL/MOL
REMARK 924 INTRA-LIGAND FREE ENERGY PREDICTED BY IDOCK:   18.58 KCAL/MOL
REMARK 927      BINDING AFFINITY PREDICTED BY RF-SCORE:    0.00 PKD
ROOT
HETATM    1  C   UNL     1     -10.584  11.583  63.479  1.00  0.00    -0.487 C  
HETATM    2  C   UNL     1      -9.388  11.458  64.387  1.00  0.00    -0.068 C  
HETATM    3  C   UNL     1      -9.033  12.353  65.330  1.00  0.00     0.679 C  
HETATM    4  C   UNL     1      -5.513   8.696  65.050  1.00  0.00    -0.039 C  
HETATM    5  C   UNL     1      -7.839  12.013  66.152  1.00  0.00     0.527 C  
HETATM    6  N   UNL     1      -7.227  10.801  65.896  1.00  0.00    -0.126 N  
HETATM    7  O   UNL     1      -7.445  12.791  67.018  1.00  0.00    -0.074 OA 
HETATM    8  C   UNL     1      -6.942   8.730  64.547  1.00  0.00    -0.084 C  
HETATM    9  N   UNL     1      -8.694  10.305  64.137  1.00  0.00    -0.191 NA 
HETATM   10  C   UNL     1      -6.012  10.516  66.647  1.00  0.00    -0.071 C  
HETATM   11  C   UNL     1      -5.504   9.090  66.514  1.00  0.00    -0.038 C  
HETATM   12  C   UNL     1      -7.658  10.027  64.855  1.00  0.00    -0.139 C  
ENDROOT
BRANCH   3  13
HETATM   13  C   UNL     1      -9.720  13.637  65.728  1.00  0.00    -0.162 C  
BRANCH  13  14
HETATM   14  C   UNL     1      -9.893  13.834  67.260  1.00  0.00    -0.241 C  
BRANCH  14  15
HETATM   15  N   UNL     1      -9.138  12.893  68.106  1.00  0.00    -0.205 NA 
HETATM   16  C   UNL     1     -10.573  10.285  68.551  1.00  0.00    -0.240 C  
HETATM   17  C   UNL     1     -11.024  11.634  69.126  1.00  0.00    -0.270 C  
HETATM   18  C   UNL     1      -9.812  12.532  69.352  1.00  0.00     0.906 C  
HETATM   19  C   UNL     1      -9.743  10.534  67.283  1.00  0.00    -0.197 C  
HETATM   20  C   UNL     1      -8.710  11.675  67.390  1.00  0.00    -0.155 C  
BRANCH  16  21
HETATM   21  C   UNL     1      -9.937   9.481  69.659  1.00  0.00    -0.205 A  
HETATM   22  N   UNL     1      -9.327  10.052  70.707  1.00  0.00     0.213 NA 
HETATM   23  O   UNL     1      -9.205   9.052  71.662  1.00  0.00    -0.288 OA 
HETATM   24  C   UNL     1      -9.711   7.887  71.174  1.00  0.00    -0.158 A  
HETATM   25  C   UNL     1     -10.116   8.082  69.866  1.00  0.00    -0.198 A  
HETATM   26  C   UNL     1     -10.664   7.000  69.152  1.00  0.00    -0.240 A  
HETATM   27  C   UNL     1     -10.796   5.771  69.809  1.00  0.00    -0.419 A  
HETATM   28  C   UNL     1     -10.409   5.636  71.141  1.00  0.00    -0.232 A  
HETATM   29  C   UNL     1      -9.848   6.687  71.865  1.00  0.00    -0.174 A  
HETATM   30  F   UNL     1     -10.594   4.455  71.748  1.00  0.00    -0.228 F  
ENDBRANCH  16  21
ENDBRANCH  14  15
ENDBRANCH  13  14
ENDBRANCH   3  13
TORSDOF 4
ENDMDL
MODEL      248
REMARK 921   NORMALIZED FREE ENERGY PREDICTED BY IDOCK:   14.44 KCAL/MOL
REMARK 922        TOTAL FREE ENERGY PREDICTED BY IDOCK:   17.09 KCAL/MOL
REMARK 923 INTER-LIGAND FREE ENERGY PREDICTED BY IDOCK:    6.43 KCAL/MOL
REMARK 924 INTRA-LIGAND FREE ENERGY PREDICTED BY IDOCK:   10.66 KCAL/MOL
REMARK 927      BINDING AFFINITY PREDICTED BY RF-SCORE:    0.00 PKD
ROOT
HETATM    1  C   UNL     1      -5.865   4.631  65.704  1.00  0.00    -0.022 C  
HETATM    2  C   UNL     1      -7.315   4.242  65.833  1.00  0.00    -0.080 C  
HETATM    3  C   UNL     1      -7.887   3.730  66.941  1.00  0.00    -0.084 C  
HETATM    4  C   UNL     1     -11.278   3.783  63.154  1.00  0.00     0.273 C  
HETATM    5  C   UNL     1      -9.349   3.458  66.869  1.00  0.00    -0.175 C  
HETATM    6  N   UNL     1      -9.989   3.783  65.689  1.00  0.00    -0.101 N  
HETATM    7  O   UNL     1      -9.934   2.974  67.836  1.00  0.00     0.158 OA 
HETATM    8  C   UNL     1      -9.966   4.525  63.314  1.00  0.00     0.168 C  
HETATM    9  N   UNL     1      -7.996   4.475  64.668  1.00  0.00    -0.089 NA 
HETATM   10  C   UNL     1     -11.401   3.435  65.598  1.00  0.00     3.616 C  
HETATM   11  C   UNL     1     -12.121   4.015  64.393  1.00  0.00     3.287 C  
HETATM   12  C   UNL     1      -9.262   4.228  64.620  1.00  0.00    -0.156 C  
ENDROOT
BRANCH   3  13
HETATM   13  C   UNL     1      -7.265   3.455  68.289  1.00  0.00    -0.050 C  
BRANCH  13  14
HETATM   14  C   UNL     1      -8.222   2.798  69.324  1.00  0.00    -0.054 C  
BRANCH  14  15
HETATM   15  N   UNL     1      -9.381   3.616  69.721  1.00  0.00    -0.159 NA 
HETATM   16  C   UNL     1      -8.723   6.537  70.026  1.00  0.00    -0.140 C  
HETATM   17  C   UNL     1      -8.216   5.430  70.960  1.00  0.00    -0.118 C  
HETATM   18  C   UNL     1      -9.228   4.290  71.009  1.00  0.00    -0.140 C  
HETATM   19  C   UNL     1      -9.036   5.928  68.651  1.00  0.00    -0.115 C  
HETATM   20  C   UNL     1      -9.795   4.586  68.687  1.00  0.00    -0.098 C  
BRANCH  16  21
HETATM   21  C   UNL     1      -9.829   7.286  70.730  1.00  0.00    -0.178 A  
HETATM   22  N   UNL     1     -10.403   6.839  71.854  1.00  0.00    -0.197 NA 
HETATM   23  O   UNL     1     -11.080   7.926  72.391  1.00  0.00    -0.278 OA 
HETATM   24  C   UNL     1     -10.935   9.004  71.574  1.00  0.00    -0.348 A  
HETATM   25  C   UNL     1     -10.215   8.630  70.454  1.00  0.00    -0.218 A  
HETATM   26  C   UNL     1      -9.952   9.591  69.459  1.00  0.00    -0.205 A  
HETATM   27  C   UNL     1     -10.417  10.897  69.658  1.00  0.00    -0.133 A  
HETATM   28  C   UNL     1     -11.104  11.233  70.824  1.00  0.00     1.072 A  
HETATM   29  C   UNL     1     -11.391  10.297  71.817  1.00  0.00     0.753 A  
HETATM   30  F   UNL     1     -11.492  12.504  70.998  1.00  0.00     0.245 F  
ENDBRANCH  16  21
ENDBRANCH  14  15
ENDBRANCH  13  14
ENDBRANCH   3  13
TORSDOF 4
ENDMDL
MODEL      249
REMARK 921   NORMALIZED FREE ENERGY PREDICTED BY IDOCK:   28.55 KCAL/MOL
REMARK 922        TOTAL FREE ENERGY PREDICTED BY IDOCK:   34.49 KCAL/MOL
REMARK 923 INTER-LIGAND FREE ENERGY PREDICTED BY IDOCK:   -0.21 KCAL/MOL
REMARK 924 INTRA-LIGAND FREE ENERGY PREDICTED BY IDOCK:   34.70 KCAL/MOL
REMARK 927      BINDING AFFINITY PREDICTED BY RF-SCORE:    0.00 PKD
ROOT
HETATM    1  C   UNL     1     -10.707  11.695  63.098  1.00  0.00    -0.312 C  
HETATM    2  C   UNL     1      -9.870  12.165  64.260  1.00  0.00    -0.148 C  
HETATM    3  C   UNL     1     -10.129  13.252  65.014  1.00  0.00    -0.247 C  
HETATM    4  C   UNL     1      -5.699  11.211  66.444  1.00  0.00    -0.146 C  
HETATM    5  C   UNL     1      -9.198  13.512  66.146  1.00  0.00     0.029 C  
HETATM    6  N   UNL     1      -8.177  12.602  66.339  1.00  0.00     0.272 N  
HETATM    7  O   UNL     1      -9.361  14.495  66.865  1.00  0.00    -0.223 OA 
HETATM    8  C   UNL     1      -6.837  10.627  65.633  1.00  0.00    -0.075 C  
HETATM    9  N   UNL     1      -8.796  11.341  64.463  1.00  0.00     0.086 NA 
HETATM   10  C   UNL     1      -7.222  12.910  67.395  1.00  0.00    -0.126 C  
HETATM   11  C   UNL     1      -6.262  11.782  67.731  1.00  0.00    -0.061 C  
HETATM   12  C   UNL     1      -7.995  11.583  65.445  1.00  0.00     0.687 C  
ENDROOT
BRANCH   3  13
HETATM   13  C   UNL     1     -11.285  14.219  64.920  1.00  0.00    -0.381 C  
BRANCH  13  14
HETATM   14  C   UNL     1     -12.293  14.144  66.101  1.00  0.00    -0.436 C  
BRANCH  14  15
HETATM   15  N   UNL     1     -11.939  13.198  67.173  1.00  0.00    -0.365 NA 
HETATM   16  C   UNL     1     -10.643  10.680  66.155  1.00  0.00    -0.211 C  
HETATM   17  C   UNL     1     -12.112  11.055  65.923  1.00  0.00     2.100 C  
HETATM   18  C   UNL     1     -12.619  11.906  67.084  1.00  0.00     2.133 C  
HETATM   19  C   UNL     1      -9.828  11.962  66.383  1.00  0.00    -0.234 C  
HETATM   20  C   UNL     1     -10.484  12.996  67.321  1.00  0.00    -0.238 C  
BRANCH  16  21
HETATM   21  C   UNL     1     -10.584   9.613  67.221  1.00  0.00    -0.247 A  
HETATM   22  N   UNL     1      -9.857   8.496  67.086  1.00  0.00    -0.186 NA 
HETATM   23  O   UNL     1      -9.752   7.958  68.362  1.00  0.00    -0.154 OA 
HETATM   24  C   UNL     1     -10.438   8.733  69.245  1.00  0.00    -0.219 A  
HETATM   25  C   UNL     1     -11.061   9.759  68.557  1.00  0.00    -0.138 A  
HETATM   26  C   UNL     1     -11.843  10.685  69.273  1.00  0.00    -0.309 A  
HETATM   27  C   UNL     1     -11.939  10.538  70.662  1.00  0.00    -0.455 A  
HETATM   28  C   UNL     1     -11.260   9.510  71.313  1.00  0.00    -0.382 A  
HETATM   29  C   UNL     1     -10.492   8.570  70.626  1.00  0.00    -0.234 A  
HETATM   30  F   UNL     1     -11.340   9.431  72.648  1.00  0.00     0.012 F  
ENDBRANCH  16  21
ENDBRANCH  14  15
ENDBRANCH  13  14
ENDBRANCH   3  13
TORSDOF 4
ENDMDL
MODEL      250
REMARK 921   NORMALIZED FREE ENERGY PREDICTED BY IDOCK:   34.26 KCAL/MOL
REMARK 922        TOTAL FREE ENERGY PREDICTED BY IDOCK:   41.53 KCAL/MOL
REMARK 923 INTER-LIGAND FREE ENERGY PREDICTED BY IDOCK:   37.33 KCAL/MOL
REMARK 924 INTRA-LIGAND FREE ENERGY PREDICTED BY IDOCK:    4.21 KCAL/MOL
REMARK 927      BINDING AFFINITY PREDICTED BY RF-SCORE:    0.00 PKD
ROOT
HETATM    1  C   UNL     1      -9.487  15.179  67.727  1.00  0.00    -0.194 C  
HETATM    2  C   UNL     1      -9.736  16.655  67.901  1.00  0.00    -0.244 C  
HETATM    3  C   UNL     1      -8.783  17.584  68.109  1.00  0.00    -0.262 C  
HETATM    4  C   UNL     1     -13.368  19.763  68.388  1.00  0.00     8.792 C  
HETATM    5  C   UNL     1      -9.244  18.997  68.208  1.00  0.00    -0.334 C  
HETATM    6  N   UNL     1     -10.596  19.228  68.046  1.00  0.00    -0.374 N  
HETATM    7  O   UNL     1      -8.432  19.896  68.416  1.00  0.00    -0.283 OA 
HETATM    8  C   UNL     1     -12.942  18.435  67.796  1.00  0.00     7.337 C  
HETATM    9  N   UNL     1     -11.073  16.944  67.820  1.00  0.00    -0.205 NA 
HETATM   10  C   UNL     1     -11.047  20.600  68.229  1.00  0.00     1.349 C  
HETATM   11  C   UNL     1     -12.486  20.855  67.814  1.00  0.00     6.250 C  
HETATM   12  C   UNL     1     -11.456  18.173  67.914  1.00  0.00     0.968 C  
ENDROOT
BRANCH   3  13
HETATM   13  C   UNL     1      -7.286  17.408  68.187  1.00  0.00    -0.205 C  
BRANCH  13  14
HETATM   14  C   UNL     1      -6.656  16.657  66.980  1.00  0.00    -0.204 C  
BRANCH  14  15
HETATM   15  N   UNL     1      -6.020  15.368  67.302  1.00  0.00    -0.314 NA 
HETATM   16  C   UNL     1      -7.655  12.991  66.448  1.00  0.00     1.323 C  
HETATM   17  C   UNL     1      -8.044  13.951  67.579  1.00  0.00    -0.191 C  
HETATM   18  C   UNL     1      -6.788  14.531  68.222  1.00  0.00    -0.113 C  
HETATM   19  C   UNL     1      -6.737  13.726  65.459  1.00  0.00     9.559 C  
HETATM   20  C   UNL     1      -5.636  14.589  66.107  1.00  0.00     5.793 C  
BRANCH  16  21
HETATM   21  C   UNL     1      -7.142  11.711  67.063  1.00  0.00    -0.145 A  
HETATM   22  N   UNL     1      -6.336  11.697  68.134  1.00  0.00    -0.049 NA 
HETATM   23  O   UNL     1      -6.379  10.397  68.620  1.00  0.00    -0.050 OA 
HETATM   24  C   UNL     1      -7.179   9.636  67.826  1.00  0.00    -0.085 A  
HETATM   25  C   UNL     1      -7.627  10.404  66.766  1.00  0.00    -0.110 A  
HETATM   26  C   UNL     1      -8.467   9.815  65.803  1.00  0.00    -0.141 A  
HETATM   27  C   UNL     1      -8.833   8.474  65.972  1.00  0.00    -0.208 A  
HETATM   28  C   UNL     1      -8.387   7.754  67.080  1.00  0.00    -0.117 A  
HETATM   29  C   UNL     1      -7.541   8.309  68.039  1.00  0.00    -0.102 A  
HETATM   30  F   UNL     1      -8.796   6.487  67.230  1.00  0.00    -0.114 F  
ENDBRANCH  16  21
ENDBRANCH  14  15
ENDBRANCH  13  14
ENDBRANCH   3  13
TORSDOF 4
ENDMDL
MODEL      251
REMARK 921   NORMALIZED FREE ENERGY PREDICTED BY IDOCK:   37.55 KCAL/MOL
REMARK 922        TOTAL FREE ENERGY PREDICTED BY IDOCK:   45.60 KCAL/MOL
REMARK 923 INTER-LIGAND FREE ENERGY PREDICTED BY IDOCK:   36.86 KCAL/MOL
REMARK 924 INTRA-LIGAND FREE ENERGY PREDICTED BY IDOCK:    8.74 KCAL/MOL
REMARK 927      BINDING AFFINITY PREDICTED BY RF-SCORE:    0.00 PKD
ROOT
HETATM    1  C   UNL     1     -10.308  14.178  68.760  1.00  0.00    -0.230 C  
HETATM    2  C   UNL     1     -10.452  12.995  69.683  1.00  0.00     0.742 C  
HETATM    3  C   UNL     1     -11.555  12.699  70.398  1.00  0.00     0.082 C  
HETATM    4  C   UNL     1      -7.835   9.443  71.585  1.00  0.00     0.525 C  
HETATM    5  C   UNL     1     -11.502  11.454  71.215  1.00  0.00     1.414 C  
HETATM    6  N   UNL     1     -10.345  10.704  71.139  1.00  0.00     1.710 N  
HETATM    7  O   UNL     1     -12.464  11.131  71.907  1.00  0.00    -0.171 OA 
HETATM    8  C   UNL     1      -7.993  10.369  70.396  1.00  0.00     0.650 C  
HETATM    9  N   UNL     1      -9.308  12.243  69.707  1.00  0.00     1.922 NA 
HETATM   10  C   UNL     1     -10.270   9.535  72.004  1.00  0.00     0.806 C  
HETATM   11  C   UNL     1      -9.096   8.612  71.724  1.00  0.00    -0.317 C  
HETATM   12  C   UNL     1      -9.276  11.171  70.424  1.00  0.00     2.854 C  
ENDROOT
BRANCH   3  13
HETATM   13  C   UNL     1     -12.882  13.417  70.439  1.00  0.00    -0.027 C  
BRANCH  13  14
HETATM   14  C   UNL     1     -13.132  14.389  69.252  1.00  0.00     1.345 C  
BRANCH  14  15
HETATM   15  N   UNL     1     -11.945  14.715  68.443  1.00  0.00    -0.291 NA 
HETATM   16  C   UNL     1     -12.175  17.347  67.002  1.00  0.00     3.602 C  
HETATM   17  C   UNL     1     -13.005  16.100  66.671  1.00  0.00     4.427 C  
HETATM   18  C   UNL     1     -12.210  14.843  67.011  1.00  0.00     0.161 C  
HETATM   19  C   UNL     1     -11.728  17.276  68.470  1.00  0.00     1.141 C  
HETATM   20  C   UNL     1     -11.209  15.898  68.930  1.00  0.00    -0.343 C  
BRANCH  16  21
HETATM   21  C   UNL     1     -11.104  17.501  65.950  1.00  0.00     0.447 A  
HETATM   22  N   UNL     1     -11.148  16.860  64.774  1.00  0.00    -0.855 NA 
HETATM   23  O   UNL     1     -10.235  17.511  63.955  1.00  0.00     4.243 OA 
HETATM   24  C   UNL     1      -9.630  18.513  64.647  1.00  0.00     5.098 A  
HETATM   25  C   UNL     1     -10.085  18.499  65.954  1.00  0.00    -0.183 A  
HETATM   26  C   UNL     1      -9.582  19.449  66.862  1.00  0.00    -0.419 A  
HETATM   27  C   UNL     1      -8.652  20.386  66.396  1.00  0.00    -0.141 A  
HETATM   28  C   UNL     1      -8.255  20.383  65.059  1.00  0.00     1.137 A  
HETATM   29  C   UNL     1      -8.726  19.443  64.143  1.00  0.00     7.352 A  
HETATM   30  F   UNL     1      -7.397  21.324  64.641  1.00  0.00     0.180 F  
ENDBRANCH  16  21
ENDBRANCH  14  15
ENDBRANCH  13  14
ENDBRANCH   3  13
TORSDOF 4
ENDMDL
MODEL      252
REMARK 921   NORMALIZED FREE ENERGY PREDICTED BY IDOCK:   42.93 KCAL/MOL
REMARK 922        TOTAL FREE ENERGY PREDICTED BY IDOCK:   52.23 KCAL/MOL
REMARK 923 INTER-LIGAND FREE ENERGY PREDICTED BY IDOCK:   37.81 KCAL/MOL
REMARK 924 INTRA-LIGAND FREE ENERGY PREDICTED BY IDOCK:   14.42 KCAL/MOL
REMARK 927      BINDING AFFINITY PREDICTED BY RF-SCORE:    0.00 PKD
ROOT
HETATM    1  C   UNL     1      -8.130  17.303  70.612  1.00  0.00     4.587 C  
HETATM    2  C   UNL     1      -8.046  18.178  69.388  1.00  0.00     0.400 C  
HETATM    3  C   UNL     1      -8.589  19.406  69.273  1.00  0.00    -0.028 C  
HETATM    4  C   UNL     1      -6.551  18.029  64.824  1.00  0.00     1.323 C  
HETATM    5  C   UNL     1      -8.347  20.122  67.990  1.00  0.00    -0.150 C  
HETATM    6  N   UNL     1      -7.564  19.478  67.052  1.00  0.00    -0.237 N  
HETATM    7  O   UNL     1      -8.827  21.238  67.807  1.00  0.00     0.177 OA 
HETATM    8  C   UNL     1      -6.334  17.481  66.220  1.00  0.00    -0.279 C  
HETATM    9  N   UNL     1      -7.337  17.566  68.389  1.00  0.00    -0.220 NA 
HETATM   10  C   UNL     1      -7.404  20.149  65.769  1.00  0.00    -0.267 C  
HETATM   11  C   UNL     1      -6.356  19.532  64.857  1.00  0.00    -0.297 C  
HETATM   12  C   UNL     1      -7.141  18.198  67.281  1.00  0.00    -0.194 C  
ENDROOT
BRANCH   3  13
HETATM   13  C   UNL     1      -9.359  20.203  70.298  1.00  0.00     1.119 C  
BRANCH  13  14
HETATM   14  C   UNL     1      -9.141  19.753  71.770  1.00  0.00     3.337 C  
BRANCH  14  15
HETATM   15  N   UNL     1      -9.965  18.613  72.210  1.00  0.00     5.001 NA 
HETATM   16  C   UNL     1     -10.726  16.762  69.962  1.00  0.00    -0.056 C  
HETATM   17  C   UNL     1     -11.255  18.193  70.126  1.00  0.00     3.002 C  
HETATM   18  C   UNL     1     -11.295  18.564  71.605  1.00  0.00     4.725 C  
HETATM   19  C   UNL     1      -9.365  16.647  70.666  1.00  0.00     3.025 C  
HETATM   20  C   UNL     1      -9.290  17.308  72.057  1.00  0.00    10.910 C  
BRANCH  16  21
HETATM   21  C   UNL     1     -11.813  15.800  70.377  1.00  0.00    -0.368 A  
HETATM   22  N   UNL     1     -13.025  16.208  70.775  1.00  0.00     0.073 NA 
HETATM   23  O   UNL     1     -13.840  15.085  70.715  1.00  0.00    -0.266 OA 
HETATM   24  C   UNL     1     -13.110  14.010  70.313  1.00  0.00     0.168 A  
HETATM   25  C   UNL     1     -11.788  14.391  70.164  1.00  0.00    -0.380 A  
HETATM   26  C   UNL     1     -10.842  13.429  69.763  1.00  0.00     0.310 A  
HETATM   27  C   UNL     1     -11.286  12.126  69.510  1.00  0.00    -0.277 A  
HETATM   28  C   UNL     1     -12.637  11.802  69.637  1.00  0.00     0.205 A  
HETATM   29  C   UNL     1     -13.591  12.731  70.048  1.00  0.00     2.565 A  
HETATM   30  F   UNL     1     -13.029  10.555  69.342  1.00  0.00    -0.097 F  
ENDBRANCH  16  21
ENDBRANCH  14  15
ENDBRANCH  13  14
ENDBRANCH   3  13
TORSDOF 4
ENDMDL
MODEL      253
REMARK 921   NORMALIZED FREE ENERGY PREDICTED BY IDOCK:   48.36 KCAL/MOL
REMARK 922        TOTAL FREE ENERGY PREDICTED BY IDOCK:   58.93 KCAL/MOL
REMARK 923 INTER-LIGAND FREE ENERGY PREDICTED BY IDOCK:   54.94 KCAL/MOL
REMARK 924 INTRA-LIGAND FREE ENERGY PREDICTED BY IDOCK:    3.99 KCAL/MOL
REMARK 927      BINDING AFFINITY PREDICTED BY RF-SCORE:    0.00 PKD
ROOT
HETATM    1  C   UNL     1      -8.803  15.910  67.917  1.00  0.00    -0.179 C  
HETATM    2  C   UNL     1      -9.094  17.368  67.671  1.00  0.00    -0.234 C  
HETATM    3  C   UNL     1      -8.192  18.366  67.761  1.00  0.00    -0.265 C  
HETATM    4  C   UNL     1     -12.795  20.318  66.841  1.00  0.00     5.218 C  
HETATM    5  C   UNL     1      -8.679  19.733  67.429  1.00  0.00    -0.326 C  
HETATM    6  N   UNL     1      -9.996  19.849  67.031  1.00  0.00    -0.398 N  
HETATM    7  O   UNL     1      -7.917  20.695  67.508  1.00  0.00    -0.304 OA 
HETATM    8  C   UNL     1     -12.272  18.905  66.675  1.00  0.00     4.084 C  
HETATM    9  N   UNL     1     -10.407  17.562  67.336  1.00  0.00    -0.341 NA 
HETATM   10  C   UNL     1     -10.486  21.200  66.790  1.00  0.00     1.846 C  
HETATM   11  C   UNL     1     -11.854  21.271  66.132  1.00  0.00     6.892 C  
HETATM   12  C   UNL     1     -10.815  18.754  67.058  1.00  0.00    -0.273 C  
ENDROOT
BRANCH   3  13
HETATM   13  C   UNL     1      -6.720  18.288  68.085  1.00  0.00    -0.211 C  
BRANCH  13  14
HETATM   14  C   UNL     1      -5.997  17.028  67.531  1.00  0.00    -0.135 C  
BRANCH  14  15
HETATM   15  N   UNL     1      -5.453  16.114  68.550  1.00  0.00    -0.100 NA 
HETATM   16  C   UNL     1      -7.305  13.834  69.209  1.00  0.00     0.091 C  
HETATM   17  C   UNL     1      -7.572  15.302  69.567  1.00  0.00    -0.219 C  
HETATM   18  C   UNL     1      -6.250  16.034  69.773  1.00  0.00    -0.179 C  
HETATM   19  C   UNL     1      -6.370  13.778  67.991  1.00  0.00    -0.141 C  
HETATM   20  C   UNL     1      -5.179  14.757  68.034  1.00  0.00    -0.107 C  
BRANCH  16  21
HETATM   21  C   UNL     1      -6.871  13.108  70.460  1.00  0.00     1.251 A  
HETATM   22  N   UNL     1      -5.989  13.625  71.326  1.00  0.00    -0.256 NA 
HETATM   23  O   UNL     1      -6.119  12.876  72.488  1.00  0.00     0.911 OA 
HETATM   24  C   UNL     1      -7.050  11.902  72.304  1.00  0.00     8.936 A  
HETATM   25  C   UNL     1      -7.502  11.949  70.997  1.00  0.00     5.370 A  
HETATM   26  C   UNL     1      -8.469  11.017  70.576  1.00  0.00     2.936 A  
HETATM   27  C   UNL     1      -8.948  10.089  71.509  1.00  0.00     2.534 A  
HETATM   28  C   UNL     1      -8.489  10.108  72.825  1.00  0.00     7.054 A  
HETATM   29  C   UNL     1      -7.520  11.010  73.264  1.00  0.00    10.762 A  
HETATM   30  F   UNL     1      -9.006   9.234  73.699  1.00  0.00     0.727 F  
ENDBRANCH  16  21
ENDBRANCH  14  15
ENDBRANCH  13  14
ENDBRANCH   3  13
TORSDOF 4
ENDMDL
