MODEL        1
REMARK 921   NORMALIZED FREE ENERGY PREDICTED BY IDOCK:   -5.85 KCAL/MOL
REMARK 922        TOTAL FREE ENERGY PREDICTED BY IDOCK:   -7.14 KCAL/MOL
REMARK 923 INTER-LIGAND FREE ENERGY PREDICTED BY IDOCK:   -6.88 KCAL/MOL
REMARK 924 INTRA-LIGAND FREE ENERGY PREDICTED BY IDOCK:   -0.26 KCAL/MOL
REMARK 927      BINDING AFFINITY PREDICTED BY RF-SCORE:    0.00 PKD
ROOT
HETATM    1  O   UNL     1     -10.125  19.860  68.942  1.00  0.00    -0.435 OA 
HETATM    2  C   UNL     1     -10.188  19.526  67.633  1.00  0.00    -0.434 C  
HETATM    3  C   UNL     1     -10.450  18.060  67.339  1.00  0.00    -0.387 C  
HETATM    4  O   UNL     1     -10.056  20.364  66.748  1.00  0.00    -0.444 OA 
ENDROOT
BRANCH   3   5
HETATM    5  S   UNL     1     -10.515  17.072  68.878  1.00  0.00    -0.336 SA 
HETATM    6  C   UNL     1     -11.576  15.661  68.368  1.00  0.00    -0.350 C  
HETATM    7  S   UNL     1     -10.704  14.706  67.063  1.00  0.00    -0.295 SA 
HETATM    8  S   UNL     1     -11.814  14.580  69.838  1.00  0.00    -0.336 SA 
BRANCH   7   9
HETATM    9  C   UNL     1     -11.944  13.407  66.697  1.00  0.00    -0.399 C  
HETATM   10  O   UNL     1     -11.925  14.462  64.506  1.00  0.00    -0.435 OA 
HETATM   11  O   UNL     1     -13.267  12.682  64.820  1.00  0.00    -0.846 OA 
HETATM   12  C   UNL     1     -12.446  13.471  65.266  1.00  0.00    -0.482 C  
ENDBRANCH   7   9
BRANCH   8  13
HETATM   13  C   UNL     1     -12.704  15.717  70.968  1.00  0.00    -0.460 C  
HETATM   14  C   UNL     1     -13.388  14.976  72.103  1.00  0.00    -0.387 C  
HETATM   15  O   UNL     1     -13.180  13.641  72.140  1.00  0.00    -0.393 OA 
HETATM   16  O   UNL     1     -14.070  15.547  72.943  1.00  0.00    -0.459 OA 
ENDBRANCH   8  13
ENDBRANCH   3   5
TORSDOF 3
ENDMDL
MODEL        2
REMARK 921   NORMALIZED FREE ENERGY PREDICTED BY IDOCK:   -5.85 KCAL/MOL
REMARK 922        TOTAL FREE ENERGY PREDICTED BY IDOCK:   -7.13 KCAL/MOL
REMARK 923 INTER-LIGAND FREE ENERGY PREDICTED BY IDOCK:   -6.85 KCAL/MOL
REMARK 924 INTRA-LIGAND FREE ENERGY PREDICTED BY IDOCK:   -0.28 KCAL/MOL
REMARK 927      BINDING AFFINITY PREDICTED BY RF-SCORE:    0.00 PKD
ROOT
HETATM    1  O   UNL     1     -12.132  14.393  64.411  1.00  0.00    -0.460 OA 
HETATM    2  C   UNL     1     -12.532  13.296  65.093  1.00  0.00    -0.470 C  
HETATM    3  C   UNL     1     -11.919  13.116  66.470  1.00  0.00    -0.398 C  
HETATM    4  O   UNL     1     -13.350  12.512  64.627  1.00  0.00    -0.804 OA 
ENDROOT
BRANCH   3   5
HETATM    5  S   UNL     1     -10.680  14.416  66.825  1.00  0.00    -0.296 SA 
HETATM    6  C   UNL     1     -11.566  15.445  68.062  1.00  0.00    -0.292 C  
HETATM    7  S   UNL     1     -11.849  14.440  69.574  1.00  0.00    -0.347 SA 
HETATM    8  S   UNL     1     -10.479  16.867  68.489  1.00  0.00    -0.382 SA 
BRANCH   7   9
HETATM    9  C   UNL     1     -12.759  15.637  70.621  1.00  0.00    -0.394 C  
HETATM   10  O   UNL     1     -13.523  13.605  71.716  1.00  0.00    -0.374 OA 
HETATM   11  O   UNL     1     -14.246  15.582  72.514  1.00  0.00    -0.548 OA 
HETATM   12  C   UNL     1     -13.578  14.957  71.703  1.00  0.00    -0.419 C  
ENDBRANCH   7   9
BRANCH   8  13
HETATM   13  C   UNL     1     -10.363  17.717  66.868  1.00  0.00    -0.329 C  
HETATM   14  C   UNL     1     -10.450  19.226  67.005  1.00  0.00    -0.456 C  
HETATM   15  O   UNL     1     -10.526  19.695  68.271  1.00  0.00    -0.424 OA 
HETATM   16  O   UNL     1     -10.435  19.975  66.038  1.00  0.00    -0.457 OA 
ENDBRANCH   8  13
ENDBRANCH   3   5
TORSDOF 3
ENDMDL
MODEL        3
REMARK 921   NORMALIZED FREE ENERGY PREDICTED BY IDOCK:   -5.77 KCAL/MOL
REMARK 922        TOTAL FREE ENERGY PREDICTED BY IDOCK:   -7.04 KCAL/MOL
REMARK 923 INTER-LIGAND FREE ENERGY PREDICTED BY IDOCK:   -6.75 KCAL/MOL
REMARK 924 INTRA-LIGAND FREE ENERGY PREDICTED BY IDOCK:   -0.29 KCAL/MOL
REMARK 927      BINDING AFFINITY PREDICTED BY RF-SCORE:    0.00 PKD
ROOT
HETATM    1  O   UNL     1     -13.185  13.243  71.596  1.00  0.00    -0.383 OA 
HETATM    2  C   UNL     1     -13.398  14.576  71.666  1.00  0.00    -0.363 C  
HETATM    3  C   UNL     1     -12.713  15.411  70.599  1.00  0.00    -0.437 C  
HETATM    4  O   UNL     1     -14.114  15.068  72.531  1.00  0.00    -0.470 OA 
ENDROOT
BRANCH   3   5
HETATM    5  S   UNL     1     -11.659  14.376  69.517  1.00  0.00    -0.321 SA 
HETATM    6  C   UNL     1     -11.458  15.460  68.048  1.00  0.00    -0.326 C  
HETATM    7  S   UNL     1     -10.532  16.967  68.546  1.00  0.00    -0.382 SA 
HETATM    8  S   UNL     1     -10.467  14.537  66.802  1.00  0.00    -0.274 SA 
BRANCH   7   9
HETATM    9  C   UNL     1     -10.492  17.888  66.962  1.00  0.00    -0.340 C  
HETATM   10  O   UNL     1     -10.330  19.801  68.454  1.00  0.00    -0.444 OA 
HETATM   11  O   UNL     1     -10.315  20.177  66.234  1.00  0.00    -0.444 OA 
HETATM   12  C   UNL     1     -10.372  19.387  67.167  1.00  0.00    -0.438 C  
ENDBRANCH   7   9
BRANCH   8  13
HETATM   13  C   UNL     1     -11.580  13.124  66.448  1.00  0.00    -0.349 C  
HETATM   14  C   UNL     1     -12.429  13.360  65.212  1.00  0.00    -0.483 C  
HETATM   15  O   UNL     1     -12.187  14.511  64.547  1.00  0.00    -0.462 OA 
HETATM   16  O   UNL     1     -13.267  12.555  64.827  1.00  0.00    -0.839 OA 
ENDBRANCH   8  13
ENDBRANCH   3   5
TORSDOF 3
ENDMDL
MODEL        4
REMARK 921   NORMALIZED FREE ENERGY PREDICTED BY IDOCK:   -5.62 KCAL/MOL
REMARK 922        TOTAL FREE ENERGY PREDICTED BY IDOCK:   -6.86 KCAL/MOL
REMARK 923 INTER-LIGAND FREE ENERGY PREDICTED BY IDOCK:   -6.57 KCAL/MOL
REMARK 924 INTRA-LIGAND FREE ENERGY PREDICTED BY IDOCK:   -0.29 KCAL/MOL
REMARK 927      BINDING AFFINITY PREDICTED BY RF-SCORE:    0.00 PKD
ROOT
HETATM    1  O   UNL     1     -11.828  11.852  69.499  1.00  0.00    -0.302 OA 
HETATM    2  C   UNL     1     -12.184  12.932  70.232  1.00  0.00    -0.289 C  
HETATM    3  C   UNL     1     -11.697  14.272  69.711  1.00  0.00    -0.309 C  
HETATM    4  O   UNL     1     -12.869  12.825  71.243  1.00  0.00    -0.359 OA 
ENDROOT
BRANCH   3   5
HETATM    5  S   UNL     1     -10.636  14.069  68.234  1.00  0.00    -0.255 SA 
HETATM    6  C   UNL     1     -10.870  15.680  67.384  1.00  0.00    -0.315 C  
HETATM    7  S   UNL     1     -10.189  17.015  68.448  1.00  0.00    -0.354 SA 
HETATM    8  S   UNL     1      -9.915  15.628  65.812  1.00  0.00    -0.367 SA 
BRANCH   7   9
HETATM    9  C   UNL     1     -10.564  18.493  67.432  1.00  0.00    -0.424 C  
HETATM   10  O   UNL     1      -9.011  19.548  68.976  1.00  0.00    -0.343 OA 
HETATM   11  O   UNL     1      -9.913  20.810  67.345  1.00  0.00    -0.426 OA 
HETATM   12  C   UNL     1      -9.811  19.724  67.900  1.00  0.00    -0.404 C  
ENDBRANCH   7   9
BRANCH   8  13
HETATM   13  C   UNL     1     -10.773  14.271  64.927  1.00  0.00    -0.432 C  
HETATM   14  C   UNL     1     -11.928  14.778  64.082  1.00  0.00    -0.259 C  
HETATM   15  O   UNL     1     -12.091  16.120  64.060  1.00  0.00    -0.889 OA 
HETATM   16  O   UNL     1     -12.655  14.028  63.445  1.00  0.00    -0.845 OA 
ENDBRANCH   8  13
ENDBRANCH   3   5
TORSDOF 3
ENDMDL
MODEL        5
REMARK 921   NORMALIZED FREE ENERGY PREDICTED BY IDOCK:   -5.52 KCAL/MOL
REMARK 922        TOTAL FREE ENERGY PREDICTED BY IDOCK:   -6.75 KCAL/MOL
REMARK 923 INTER-LIGAND FREE ENERGY PREDICTED BY IDOCK:   -6.41 KCAL/MOL
REMARK 924 INTRA-LIGAND FREE ENERGY PREDICTED BY IDOCK:   -0.34 KCAL/MOL
REMARK 927      BINDING AFFINITY PREDICTED BY RF-SCORE:    0.00 PKD
ROOT
HETATM    1  O   UNL     1     -12.277  13.093  70.359  1.00  0.00    -0.345 OA 
HETATM    2  C   UNL     1     -12.256  14.341  70.881  1.00  0.00    -0.355 C  
HETATM    3  C   UNL     1     -11.476  15.374  70.088  1.00  0.00    -0.317 C  
HETATM    4  O   UNL     1     -12.846  14.613  71.920  1.00  0.00    -0.305 OA 
ENDROOT
BRANCH   3   5
HETATM    5  S   UNL     1     -10.653  14.620  68.637  1.00  0.00    -0.259 SA 
HETATM    6  C   UNL     1     -10.260  16.100  67.623  1.00  0.00    -0.265 C  
HETATM    7  S   UNL     1      -9.054  17.142  68.538  1.00  0.00    -0.265 SA 
HETATM    8  S   UNL     1      -9.479  15.519  66.062  1.00  0.00    -0.346 SA 
BRANCH   7   9
HETATM    9  C   UNL     1      -8.851  18.542  67.374  1.00  0.00    -0.268 C  
HETATM   10  O   UNL     1     -10.505  19.569  68.829  1.00  0.00    -0.292 OA 
HETATM   11  O   UNL     1      -9.722  20.769  67.093  1.00  0.00    -0.462 OA 
HETATM   12  C   UNL     1      -9.722  19.730  67.738  1.00  0.00    -0.378 C  
ENDBRANCH   7   9
BRANCH   8  13
HETATM   13  C   UNL     1     -10.848  14.546  65.327  1.00  0.00    -0.367 C  
HETATM   14  C   UNL     1     -11.752  15.398  64.455  1.00  0.00    -0.277 C  
HETATM   15  O   UNL     1     -11.375  16.687  64.306  1.00  0.00    -1.116 OA 
HETATM   16  O   UNL     1     -12.749  14.948  63.906  1.00  0.00    -0.789 OA 
ENDBRANCH   8  13
ENDBRANCH   3   5
TORSDOF 3
ENDMDL
MODEL        6
REMARK 921   NORMALIZED FREE ENERGY PREDICTED BY IDOCK:   -5.50 KCAL/MOL
REMARK 922        TOTAL FREE ENERGY PREDICTED BY IDOCK:   -6.72 KCAL/MOL
REMARK 923 INTER-LIGAND FREE ENERGY PREDICTED BY IDOCK:   -6.38 KCAL/MOL
REMARK 924 INTRA-LIGAND FREE ENERGY PREDICTED BY IDOCK:   -0.35 KCAL/MOL
REMARK 927      BINDING AFFINITY PREDICTED BY RF-SCORE:    0.00 PKD
ROOT
HETATM    1  O   UNL     1     -12.770  12.369  71.549  1.00  0.00    -0.323 OA 
HETATM    2  C   UNL     1     -13.121  13.659  71.750  1.00  0.00    -0.382 C  
HETATM    3  C   UNL     1     -12.630  14.646  70.707  1.00  0.00    -0.350 C  
HETATM    4  O   UNL     1     -13.806  13.997  72.708  1.00  0.00    -0.674 OA 
ENDROOT
BRANCH   3   5
HETATM    5  S   UNL     1     -11.571  13.827  69.458  1.00  0.00    -0.293 SA 
HETATM    6  C   UNL     1     -11.503  15.099  68.136  1.00  0.00    -0.342 C  
HETATM    7  S   UNL     1     -10.642  16.586  68.788  1.00  0.00    -0.344 SA 
HETATM    8  S   UNL     1     -10.520  14.407  66.742  1.00  0.00    -0.276 SA 
BRANCH   7   9
HETATM    9  C   UNL     1     -10.731  17.702  67.337  1.00  0.00    -0.258 C  
HETATM   10  O   UNL     1      -8.311  17.668  67.572  1.00  0.00    -0.214 OA 
HETATM   11  O   UNL     1      -9.202  18.879  65.896  1.00  0.00    -0.455 OA 
HETATM   12  C   UNL     1      -9.359  18.143  66.860  1.00  0.00    -0.278 C  
ENDBRANCH   7   9
BRANCH   8  13
HETATM   13  C   UNL     1     -11.565  12.982  66.252  1.00  0.00    -0.360 C  
HETATM   14  C   UNL     1     -12.529  13.337  65.134  1.00  0.00    -0.470 C  
HETATM   15  O   UNL     1     -12.419  14.592  64.644  1.00  0.00    -0.555 OA 
HETATM   16  O   UNL     1     -13.343  12.539  64.690  1.00  0.00    -0.804 OA 
ENDBRANCH   8  13
ENDBRANCH   3   5
TORSDOF 3
ENDMDL
MODEL        7
REMARK 921   NORMALIZED FREE ENERGY PREDICTED BY IDOCK:   -5.49 KCAL/MOL
REMARK 922        TOTAL FREE ENERGY PREDICTED BY IDOCK:   -6.71 KCAL/MOL
REMARK 923 INTER-LIGAND FREE ENERGY PREDICTED BY IDOCK:   -6.39 KCAL/MOL
REMARK 924 INTRA-LIGAND FREE ENERGY PREDICTED BY IDOCK:   -0.32 KCAL/MOL
REMARK 927      BINDING AFFINITY PREDICTED BY RF-SCORE:    0.00 PKD
ROOT
HETATM    1  O   UNL     1     -13.080  12.888  65.077  1.00  0.00    -0.794 OA 
HETATM    2  C   UNL     1     -11.753  12.629  65.069  1.00  0.00    -0.359 C  
HETATM    3  C   UNL     1     -11.030  12.848  66.385  1.00  0.00    -0.285 C  
HETATM    4  O   UNL     1     -11.183  12.229  64.060  1.00  0.00    -0.330 OA 
ENDROOT
BRANCH   3   5
HETATM    5  S   UNL     1     -12.156  13.523  67.661  1.00  0.00    -0.197 SA 
HETATM    6  C   UNL     1     -11.065  14.722  68.523  1.00  0.00    -0.264 C  
HETATM    7  S   UNL     1     -10.604  16.056  67.346  1.00  0.00    -0.306 SA 
HETATM    8  S   UNL     1     -12.026  15.458  69.909  1.00  0.00    -0.368 SA 
BRANCH   7   9
HETATM    9  C   UNL     1      -9.509  17.083  68.398  1.00  0.00    -0.269 C  
HETATM   10  O   UNL     1     -10.831  18.888  67.446  1.00  0.00    -0.458 OA 
HETATM   11  O   UNL     1      -9.217  19.414  68.925  1.00  0.00    -0.378 OA 
HETATM   12  C   UNL     1      -9.826  18.563  68.291  1.00  0.00    -0.363 C  
ENDBRANCH   7   9
BRANCH   8  13
HETATM   13  C   UNL     1     -12.343  13.976  70.941  1.00  0.00    -0.372 C  
HETATM   14  C   UNL     1     -13.590  14.128  71.793  1.00  0.00    -0.399 C  
HETATM   15  O   UNL     1     -14.289  15.270  71.609  1.00  0.00    -0.511 OA 
HETATM   16  O   UNL     1     -13.954  13.267  72.583  1.00  0.00    -0.741 OA 
ENDBRANCH   8  13
ENDBRANCH   3   5
TORSDOF 3
ENDMDL
MODEL        8
REMARK 921   NORMALIZED FREE ENERGY PREDICTED BY IDOCK:   -5.45 KCAL/MOL
REMARK 922        TOTAL FREE ENERGY PREDICTED BY IDOCK:   -6.67 KCAL/MOL
REMARK 923 INTER-LIGAND FREE ENERGY PREDICTED BY IDOCK:   -6.35 KCAL/MOL
REMARK 924 INTRA-LIGAND FREE ENERGY PREDICTED BY IDOCK:   -0.32 KCAL/MOL
REMARK 927      BINDING AFFINITY PREDICTED BY RF-SCORE:    0.00 PKD
ROOT
HETATM    1  O   UNL     1     -12.836  14.782  64.310  1.00  0.00    -0.622 OA 
HETATM    2  C   UNL     1     -11.728  15.523  64.542  1.00  0.00    -0.253 C  
HETATM    3  C   UNL     1     -10.877  15.086  65.720  1.00  0.00    -0.350 C  
HETATM    4  O   UNL     1     -11.433  16.476  63.830  1.00  0.00    -1.145 OA 
ENDROOT
BRANCH   3   5
HETATM    5  S   UNL     1     -11.643  13.684  66.614  1.00  0.00    -0.385 SA 
HETATM    6  C   UNL     1     -11.104  14.005  68.340  1.00  0.00    -0.253 C  
HETATM    7  S   UNL     1     -11.855  15.582  68.912  1.00  0.00    -0.291 SA 
HETATM    8  S   UNL     1     -11.734  12.631  69.389  1.00  0.00    -0.306 SA 
BRANCH   7   9
HETATM    9  C   UNL     1     -11.156  15.706  70.602  1.00  0.00    -0.359 C  
HETATM   10  O   UNL     1     -13.507  15.747  71.220  1.00  0.00    -0.555 OA 
HETATM   11  O   UNL     1     -11.971  15.844  72.863  1.00  0.00    -0.443 OA 
HETATM   12  C   UNL     1     -12.232  15.773  71.671  1.00  0.00    -0.456 C  
ENDBRANCH   7   9
BRANCH   8  13
HETATM   13  C   UNL     1     -10.846  11.201  68.662  1.00  0.00    -0.209 C  
HETATM   14  C   UNL     1     -11.057   9.929  69.463  1.00  0.00    -0.217 C  
HETATM   15  O   UNL     1     -11.899  10.033  70.514  1.00  0.00    -0.280 OA 
HETATM   16  O   UNL     1     -10.517   8.871  69.169  1.00  0.00    -0.224 OA 
ENDBRANCH   8  13
ENDBRANCH   3   5
TORSDOF 3
ENDMDL
MODEL        9
REMARK 921   NORMALIZED FREE ENERGY PREDICTED BY IDOCK:   -5.44 KCAL/MOL
REMARK 922        TOTAL FREE ENERGY PREDICTED BY IDOCK:   -6.65 KCAL/MOL
REMARK 923 INTER-LIGAND FREE ENERGY PREDICTED BY IDOCK:   -6.34 KCAL/MOL
REMARK 924 INTRA-LIGAND FREE ENERGY PREDICTED BY IDOCK:   -0.31 KCAL/MOL
REMARK 927      BINDING AFFINITY PREDICTED BY RF-SCORE:    0.00 PKD
ROOT
HETATM    1  O   UNL     1     -13.537  15.729  71.212  1.00  0.00    -0.561 OA 
HETATM    2  C   UNL     1     -13.103  14.451  71.120  1.00  0.00    -0.352 C  
HETATM    3  C   UNL     1     -12.051  14.188  70.058  1.00  0.00    -0.346 C  
HETATM    4  O   UNL     1     -13.529  13.573  71.861  1.00  0.00    -0.402 OA 
ENDROOT
BRANCH   3   5
HETATM    5  S   UNL     1     -11.700  15.693  69.077  1.00  0.00    -0.371 SA 
HETATM    6  C   UNL     1     -10.896  14.985  67.585  1.00  0.00    -0.291 C  
HETATM    7  S   UNL     1     -12.117  13.943  66.692  1.00  0.00    -0.433 SA 
HETATM    8  S   UNL     1     -10.401  16.384  66.498  1.00  0.00    -0.291 SA 
BRANCH   7   9
HETATM    9  C   UNL     1     -11.097  13.329  65.299  1.00  0.00    -0.288 C  
HETATM   10  O   UNL     1     -13.240  12.474  64.531  1.00  0.00    -0.832 OA 
HETATM   11  O   UNL     1     -11.425  12.107  63.250  1.00  0.00    -0.398 OA 
HETATM   12  C   UNL     1     -11.918  12.583  64.264  1.00  0.00    -0.408 C  
ENDBRANCH   7   9
BRANCH   8  13
HETATM   13  C   UNL     1      -9.189  17.247  67.570  1.00  0.00    -0.227 C  
HETATM   14  C   UNL     1      -9.658  18.637  67.961  1.00  0.00    -0.316 C  
HETATM   15  O   UNL     1     -10.892  18.981  67.529  1.00  0.00    -0.463 OA 
HETATM   16  O   UNL     1      -8.977  19.393  68.640  1.00  0.00    -0.365 OA 
ENDBRANCH   8  13
ENDBRANCH   3   5
TORSDOF 3
ENDMDL
MODEL       10
REMARK 921   NORMALIZED FREE ENERGY PREDICTED BY IDOCK:   -5.36 KCAL/MOL
REMARK 922        TOTAL FREE ENERGY PREDICTED BY IDOCK:   -6.56 KCAL/MOL
REMARK 923 INTER-LIGAND FREE ENERGY PREDICTED BY IDOCK:   -6.24 KCAL/MOL
REMARK 924 INTRA-LIGAND FREE ENERGY PREDICTED BY IDOCK:   -0.33 KCAL/MOL
REMARK 927      BINDING AFFINITY PREDICTED BY RF-SCORE:    0.00 PKD
ROOT
HETATM    1  O   UNL     1     -10.798  18.881  67.455  1.00  0.00    -0.458 OA 
HETATM    2  C   UNL     1      -9.657  18.494  68.068  1.00  0.00    -0.312 C  
HETATM    3  C   UNL     1      -9.205  17.074  67.784  1.00  0.00    -0.236 C  
HETATM    4  O   UNL     1      -9.028  19.255  68.794  1.00  0.00    -0.365 OA 
ENDROOT
BRANCH   3   5
HETATM    5  S   UNL     1     -10.410  16.187  66.729  1.00  0.00    -0.290 SA 
HETATM    6  C   UNL     1     -10.942  14.824  67.838  1.00  0.00    -0.278 C  
HETATM    7  S   UNL     1     -11.811  15.544  69.289  1.00  0.00    -0.327 SA 
HETATM    8  S   UNL     1     -12.124  13.768  66.902  1.00  0.00    -0.381 SA 
BRANCH   7   9
HETATM    9  C   UNL     1     -12.201  14.031  70.246  1.00  0.00    -0.361 C  
HETATM   10  O   UNL     1     -13.837  15.501  71.283  1.00  0.00    -0.528 OA 
HETATM   11  O   UNL     1     -13.742  13.359  71.970  1.00  0.00    -0.447 OA 
HETATM   12  C   UNL     1     -13.323  14.250  71.245  1.00  0.00    -0.321 C  
ENDBRANCH   7   9
BRANCH   8  13
HETATM   13  C   UNL     1     -11.048  13.154  65.550  1.00  0.00    -0.278 C  
HETATM   14  C   UNL     1     -11.844  12.486  64.444  1.00  0.00    -0.386 C  
HETATM   15  O   UNL     1     -13.187  12.512  64.592  1.00  0.00    -0.848 OA 
HETATM   16  O   UNL     1     -11.312  11.972  63.470  1.00  0.00    -0.418 OA 
ENDBRANCH   8  13
ENDBRANCH   3   5
TORSDOF 3
ENDMDL
MODEL       11
REMARK 921   NORMALIZED FREE ENERGY PREDICTED BY IDOCK:   -5.32 KCAL/MOL
REMARK 922        TOTAL FREE ENERGY PREDICTED BY IDOCK:   -6.51 KCAL/MOL
REMARK 923 INTER-LIGAND FREE ENERGY PREDICTED BY IDOCK:   -6.17 KCAL/MOL
REMARK 924 INTRA-LIGAND FREE ENERGY PREDICTED BY IDOCK:   -0.34 KCAL/MOL
REMARK 927      BINDING AFFINITY PREDICTED BY RF-SCORE:    0.00 PKD
ROOT
HETATM    1  O   UNL     1     -12.184  10.871  68.416  1.00  0.00    -0.540 OA 
HETATM    2  C   UNL     1     -11.708  11.652  69.413  1.00  0.00    -0.340 C  
HETATM    3  C   UNL     1     -10.960  12.898  68.976  1.00  0.00    -0.197 C  
HETATM    4  O   UNL     1     -11.889  11.369  70.592  1.00  0.00    -0.338 OA 
ENDROOT
BRANCH   3   5
HETATM    5  S   UNL     1     -10.802  12.976  67.154  1.00  0.00    -0.264 SA 
HETATM    6  C   UNL     1     -10.990  14.776  66.842  1.00  0.00    -0.328 C  
HETATM    7  S   UNL     1      -9.579  15.662  67.618  1.00  0.00    -0.220 SA 
HETATM    8  S   UNL     1     -10.928  15.039  65.021  1.00  0.00    -0.430 SA 
BRANCH   7   9
HETATM    9  C   UNL     1      -9.998  17.400  67.216  1.00  0.00    -0.302 C  
HETATM   10  O   UNL     1      -7.965  17.244  65.892  1.00  0.00    -0.518 OA 
HETATM   11  O   UNL     1      -9.104  19.185  65.870  1.00  0.00    -0.436 OA 
HETATM   12  C   UNL     1      -8.995  18.035  66.270  1.00  0.00    -0.172 C  
ENDBRANCH   7   9
BRANCH   8  13
HETATM   13  C   UNL     1     -12.411  14.105  64.483  1.00  0.00    -0.392 C  
HETATM   14  C   UNL     1     -12.048  12.857  63.698  1.00  0.00    -0.535 C  
HETATM   15  O   UNL     1     -10.726  12.602  63.585  1.00  0.00    -0.425 OA 
HETATM   16  O   UNL     1     -12.893  12.117  63.213  1.00  0.00    -0.735 OA 
ENDBRANCH   8  13
ENDBRANCH   3   5
TORSDOF 3
ENDMDL
MODEL       12
REMARK 921   NORMALIZED FREE ENERGY PREDICTED BY IDOCK:   -5.24 KCAL/MOL
REMARK 922        TOTAL FREE ENERGY PREDICTED BY IDOCK:   -6.42 KCAL/MOL
REMARK 923 INTER-LIGAND FREE ENERGY PREDICTED BY IDOCK:   -6.15 KCAL/MOL
REMARK 924 INTRA-LIGAND FREE ENERGY PREDICTED BY IDOCK:   -0.26 KCAL/MOL
REMARK 927      BINDING AFFINITY PREDICTED BY RF-SCORE:    0.00 PKD
ROOT
HETATM    1  O   UNL     1     -10.693  10.053  70.452  1.00  0.00    -0.287 OA 
HETATM    2  C   UNL     1     -10.454   9.838  69.139  1.00  0.00    -0.215 C  
HETATM    3  C   UNL     1     -10.876  10.954  68.201  1.00  0.00    -0.234 C  
HETATM    4  O   UNL     1      -9.917   8.810  68.743  1.00  0.00    -0.174 OA 
ENDROOT
BRANCH   3   5
HETATM    5  S   UNL     1     -11.718  12.304  69.105  1.00  0.00    -0.318 SA 
HETATM    6  C   UNL     1     -11.152  13.783  68.175  1.00  0.00    -0.259 C  
HETATM    7  S   UNL     1     -11.809  13.693  66.462  1.00  0.00    -0.425 SA 
HETATM    8  S   UNL     1     -11.856  15.269  69.003  1.00  0.00    -0.290 SA 
BRANCH   7   9
HETATM    9  C   UNL     1     -11.096  15.217  65.736  1.00  0.00    -0.330 C  
HETATM   10  O   UNL     1     -12.864  14.876  64.101  1.00  0.00    -0.668 OA 
HETATM   11  O   UNL     1     -11.520  16.666  63.859  1.00  0.00    -1.186 OA 
HETATM   12  C   UNL     1     -11.832  15.662  64.485  1.00  0.00    -0.172 C  
ENDBRANCH   7   9
BRANCH   8  13
HETATM   13  C   UNL     1     -11.055  15.163  70.649  1.00  0.00    -0.263 C  
HETATM   14  C   UNL     1     -11.992  15.578  71.769  1.00  0.00    -0.419 C  
HETATM   15  O   UNL     1     -13.254  15.884  71.394  1.00  0.00    -0.475 OA 
HETATM   16  O   UNL     1     -11.639  15.618  72.940  1.00  0.00    -0.437 OA 
ENDBRANCH   8  13
ENDBRANCH   3   5
TORSDOF 3
ENDMDL
MODEL       13
REMARK 921   NORMALIZED FREE ENERGY PREDICTED BY IDOCK:   -5.23 KCAL/MOL
REMARK 922        TOTAL FREE ENERGY PREDICTED BY IDOCK:   -6.41 KCAL/MOL
REMARK 923 INTER-LIGAND FREE ENERGY PREDICTED BY IDOCK:   -6.08 KCAL/MOL
REMARK 924 INTRA-LIGAND FREE ENERGY PREDICTED BY IDOCK:   -0.32 KCAL/MOL
REMARK 927      BINDING AFFINITY PREDICTED BY RF-SCORE:    0.00 PKD
ROOT
HETATM    1  O   UNL     1     -11.862   9.201  70.518  1.00  0.00    -0.218 OA 
HETATM    2  C   UNL     1     -12.465  10.173  71.240  1.00  0.00    -0.406 C  
HETATM    3  C   UNL     1     -12.371  11.574  70.665  1.00  0.00    -0.364 C  
HETATM    4  O   UNL     1     -13.059   9.924  72.282  1.00  0.00    -0.418 OA 
ENDROOT
BRANCH   3   5
HETATM    5  S   UNL     1     -11.349  11.607  69.147  1.00  0.00    -0.307 SA 
HETATM    6  C   UNL     1     -11.712  13.283  68.491  1.00  0.00    -0.352 C  
HETATM    7  S   UNL     1     -11.083  14.535  69.680  1.00  0.00    -0.192 SA 
HETATM    8  S   UNL     1     -10.808  13.469  66.898  1.00  0.00    -0.284 SA 
BRANCH   7   9
HETATM    9  C   UNL     1     -11.585  16.088  68.847  1.00  0.00    -0.354 C  
HETATM   10  O   UNL     1      -9.236  16.633  69.158  1.00  0.00    -0.249 OA 
HETATM   11  O   UNL     1     -10.551  18.139  68.125  1.00  0.00    -0.372 OA 
HETATM   12  C   UNL     1     -10.426  17.052  68.671  1.00  0.00    -0.363 C  
ENDBRANCH   7   9
BRANCH   8  13
HETATM   13  C   UNL     1     -11.607  12.164  65.889  1.00  0.00    -0.364 C  
HETATM   14  C   UNL     1     -12.629  12.734  64.921  1.00  0.00    -0.470 C  
HETATM   15  O   UNL     1     -12.735  14.081  64.908  1.00  0.00    -0.647 OA 
HETATM   16  O   UNL     1     -13.304  12.026  64.186  1.00  0.00    -0.725 OA 
ENDBRANCH   8  13
ENDBRANCH   3   5
TORSDOF 3
ENDMDL
MODEL       14
REMARK 921   NORMALIZED FREE ENERGY PREDICTED BY IDOCK:   -5.22 KCAL/MOL
REMARK 922        TOTAL FREE ENERGY PREDICTED BY IDOCK:   -6.39 KCAL/MOL
REMARK 923 INTER-LIGAND FREE ENERGY PREDICTED BY IDOCK:   -6.07 KCAL/MOL
REMARK 924 INTRA-LIGAND FREE ENERGY PREDICTED BY IDOCK:   -0.32 KCAL/MOL
REMARK 927      BINDING AFFINITY PREDICTED BY RF-SCORE:    0.00 PKD
ROOT
HETATM    1  O   UNL     1     -12.721  14.113  64.854  1.00  0.00    -0.645 OA 
HETATM    2  C   UNL     1     -12.581  12.771  64.755  1.00  0.00    -0.446 C  
HETATM    3  C   UNL     1     -11.655  12.128  65.771  1.00  0.00    -0.355 C  
HETATM    4  O   UNL     1     -13.182  12.123  63.906  1.00  0.00    -0.748 OA 
ENDROOT
BRANCH   3   5
HETATM    5  S   UNL     1     -10.860  13.385  66.839  1.00  0.00    -0.279 SA 
HETATM    6  C   UNL     1     -11.791  13.180  68.409  1.00  0.00    -0.351 C  
HETATM    7  S   UNL     1     -11.456  11.504  69.082  1.00  0.00    -0.328 SA 
HETATM    8  S   UNL     1     -11.164  14.436  69.600  1.00  0.00    -0.199 SA 
BRANCH   7   9
HETATM    9  C   UNL     1     -12.499  11.521  70.589  1.00  0.00    -0.314 C  
HETATM   10  O   UNL     1     -11.969   9.148  70.589  1.00  0.00    -0.239 OA 
HETATM   11  O   UNL     1     -13.262   9.951  72.248  1.00  0.00    -0.431 OA 
HETATM   12  C   UNL     1     -12.620  10.148  71.225  1.00  0.00    -0.404 C  
ENDBRANCH   7   9
BRANCH   8  13
HETATM   13  C   UNL     1     -11.624  15.990  68.743  1.00  0.00    -0.351 C  
HETATM   14  C   UNL     1     -10.445  16.936  68.601  1.00  0.00    -0.352 C  
HETATM   15  O   UNL     1      -9.261  16.466  69.053  1.00  0.00    -0.249 OA 
HETATM   16  O   UNL     1     -10.550  18.045  68.096  1.00  0.00    -0.378 OA 
ENDBRANCH   8  13
ENDBRANCH   3   5
TORSDOF 3
ENDMDL
MODEL       15
REMARK 921   NORMALIZED FREE ENERGY PREDICTED BY IDOCK:   -5.21 KCAL/MOL
REMARK 922        TOTAL FREE ENERGY PREDICTED BY IDOCK:   -6.38 KCAL/MOL
REMARK 923 INTER-LIGAND FREE ENERGY PREDICTED BY IDOCK:   -6.06 KCAL/MOL
REMARK 924 INTRA-LIGAND FREE ENERGY PREDICTED BY IDOCK:   -0.33 KCAL/MOL
REMARK 927      BINDING AFFINITY PREDICTED BY RF-SCORE:    0.00 PKD
ROOT
HETATM    1  O   UNL     1     -12.232  11.033  69.023  1.00  0.00    -0.483 OA 
HETATM    2  C   UNL     1     -12.150  12.118  69.826  1.00  0.00    -0.237 C  
HETATM    3  C   UNL     1     -11.726  13.409  69.149  1.00  0.00    -0.326 C  
HETATM    4  O   UNL     1     -12.419  12.056  71.020  1.00  0.00    -0.368 OA 
ENDROOT
BRANCH   3   5
HETATM    5  S   UNL     1     -11.324  13.136  67.384  1.00  0.00    -0.324 SA 
HETATM    6  C   UNL     1     -11.179  14.859  66.766  1.00  0.00    -0.338 C  
HETATM    7  S   UNL     1      -9.757  15.670  67.600  1.00  0.00    -0.226 SA 
HETATM    8  S   UNL     1     -10.841  14.779  64.958  1.00  0.00    -0.436 SA 
BRANCH   7   9
HETATM    9  C   UNL     1      -9.836  17.349  66.868  1.00  0.00    -0.289 C  
HETATM   10  O   UNL     1     -10.215  17.987  69.183  1.00  0.00    -0.349 OA 
HETATM   11  O   UNL     1     -10.153  19.612  67.626  1.00  0.00    -0.365 OA 
HETATM   12  C   UNL     1     -10.081  18.424  67.910  1.00  0.00    -0.362 C  
ENDBRANCH   7   9
BRANCH   8  13
HETATM   13  C   UNL     1     -12.373  13.975  64.352  1.00  0.00    -0.367 C  
HETATM   14  C   UNL     1     -12.093  12.641  63.683  1.00  0.00    -0.547 C  
HETATM   15  O   UNL     1     -10.803  12.237  63.702  1.00  0.00    -0.398 OA 
HETATM   16  O   UNL     1     -12.975  11.964  63.173  1.00  0.00    -0.640 OA 
ENDBRANCH   8  13
ENDBRANCH   3   5
TORSDOF 3
ENDMDL
MODEL       16
REMARK 921   NORMALIZED FREE ENERGY PREDICTED BY IDOCK:   -5.20 KCAL/MOL
REMARK 922        TOTAL FREE ENERGY PREDICTED BY IDOCK:   -6.37 KCAL/MOL
REMARK 923 INTER-LIGAND FREE ENERGY PREDICTED BY IDOCK:   -5.99 KCAL/MOL
REMARK 924 INTRA-LIGAND FREE ENERGY PREDICTED BY IDOCK:   -0.39 KCAL/MOL
REMARK 927      BINDING AFFINITY PREDICTED BY RF-SCORE:    0.00 PKD
ROOT
HETATM    1  O   UNL     1     -13.103  14.021  65.321  1.00  0.00    -0.782 OA 
HETATM    2  C   UNL     1     -11.803  14.374  65.208  1.00  0.00    -0.373 C  
HETATM    3  C   UNL     1     -10.847  13.689  66.168  1.00  0.00    -0.279 C  
HETATM    4  O   UNL     1     -11.428  15.185  64.369  1.00  0.00    -0.325 OA 
ENDROOT
BRANCH   3   5
HETATM    5  S   UNL     1     -11.742  12.601  67.337  1.00  0.00    -0.338 SA 
HETATM    6  C   UNL     1     -11.287  13.340  68.955  1.00  0.00    -0.288 C  
HETATM    7  S   UNL     1     -11.982  15.039  69.046  1.00  0.00    -0.225 SA 
HETATM    8  S   UNL     1     -12.053  12.313  70.276  1.00  0.00    -0.215 SA 
BRANCH   7   9
HETATM    9  C   UNL     1     -11.377  15.573  70.692  1.00  0.00    -0.343 C  
HETATM   10  O   UNL     1     -13.759  15.708  71.162  1.00  0.00    -0.591 OA 
HETATM   11  O   UNL     1     -12.316  16.223  72.812  1.00  0.00    -0.482 OA 
HETATM   12  C   UNL     1     -12.510  15.867  71.658  1.00  0.00    -0.446 C  
ENDBRANCH   7   9
BRANCH   8  13
HETATM   13  C   UNL     1     -11.205  10.710  70.007  1.00  0.00    -0.309 C  
HETATM   14  C   UNL     1     -11.618   9.665  71.029  1.00  0.00    -0.359 C  
HETATM   15  O   UNL     1     -12.572  10.050  71.906  1.00  0.00    -0.389 OA 
HETATM   16  O   UNL     1     -11.137   8.541  71.050  1.00  0.00    -0.244 OA 
ENDBRANCH   8  13
ENDBRANCH   3   5
TORSDOF 3
ENDMDL
MODEL       17
REMARK 921   NORMALIZED FREE ENERGY PREDICTED BY IDOCK:   -5.20 KCAL/MOL
REMARK 922        TOTAL FREE ENERGY PREDICTED BY IDOCK:   -6.37 KCAL/MOL
REMARK 923 INTER-LIGAND FREE ENERGY PREDICTED BY IDOCK:   -6.09 KCAL/MOL
REMARK 924 INTRA-LIGAND FREE ENERGY PREDICTED BY IDOCK:   -0.28 KCAL/MOL
REMARK 927      BINDING AFFINITY PREDICTED BY RF-SCORE:    0.00 PKD
ROOT
HETATM    1  O   UNL     1     -13.693   9.244  72.519  1.00  0.00    -0.467 OA 
HETATM    2  C   UNL     1     -12.482   9.159  71.924  1.00  0.00    -0.387 C  
HETATM    3  C   UNL     1     -11.946  10.448  71.329  1.00  0.00    -0.330 C  
HETATM    4  O   UNL     1     -11.857   8.105  71.887  1.00  0.00    -0.282 OA 
ENDROOT
BRANCH   3   5
HETATM    5  S   UNL     1     -13.160  11.810  71.485  1.00  0.00    -0.155 SA 
HETATM    6  C   UNL     1     -12.220  13.226  70.790  1.00  0.00    -0.308 C  
HETATM    7  S   UNL     1     -11.889  12.902  69.012  1.00  0.00    -0.280 SA 
HETATM    8  S   UNL     1     -13.278  14.725  70.933  1.00  0.00    -0.311 SA 
BRANCH   7   9
HETATM    9  C   UNL     1     -10.930  14.397  68.559  1.00  0.00    -0.251 C  
HETATM   10  O   UNL     1     -12.178  14.172  66.484  1.00  0.00    -0.445 OA 
HETATM   11  O   UNL     1     -10.739  15.892  66.681  1.00  0.00    -0.316 OA 
HETATM   12  C   UNL     1     -11.261  14.897  67.165  1.00  0.00    -0.343 C  
ENDBRANCH   7   9
BRANCH   8  13
HETATM   13  C   UNL     1     -13.447  14.860  72.754  1.00  0.00    -0.466 C  
HETATM   14  C   UNL     1     -12.558  15.945  73.333  1.00  0.00    -0.550 C  
HETATM   15  O   UNL     1     -11.855  16.668  72.432  1.00  0.00    -0.491 OA 
HETATM   16  O   UNL     1     -12.492  16.169  74.534  1.00  0.00    -0.705 OA 
ENDBRANCH   8  13
ENDBRANCH   3   5
TORSDOF 3
ENDMDL
MODEL       18
REMARK 921   NORMALIZED FREE ENERGY PREDICTED BY IDOCK:   -5.17 KCAL/MOL
REMARK 922        TOTAL FREE ENERGY PREDICTED BY IDOCK:   -6.34 KCAL/MOL
REMARK 923 INTER-LIGAND FREE ENERGY PREDICTED BY IDOCK:   -6.03 KCAL/MOL
REMARK 924 INTRA-LIGAND FREE ENERGY PREDICTED BY IDOCK:   -0.31 KCAL/MOL
REMARK 927      BINDING AFFINITY PREDICTED BY RF-SCORE:    0.00 PKD
ROOT
HETATM    1  O   UNL     1     -13.247  10.226  72.062  1.00  0.00    -0.450 OA 
HETATM    2  C   UNL     1     -12.370   9.818  71.117  1.00  0.00    -0.359 C  
HETATM    3  C   UNL     1     -11.767  10.916  70.260  1.00  0.00    -0.347 C  
HETATM    4  O   UNL     1     -12.076   8.636  70.980  1.00  0.00    -0.287 OA 
ENDROOT
BRANCH   3   5
HETATM    5  S   UNL     1     -12.479  12.552  70.671  1.00  0.00    -0.154 SA 
HETATM    6  C   UNL     1     -11.573  13.653  69.514  1.00  0.00    -0.301 C  
HETATM    7  S   UNL     1     -12.026  13.203  67.791  1.00  0.00    -0.240 SA 
HETATM    8  S   UNL     1     -12.119  15.380  69.841  1.00  0.00    -0.338 SA 
BRANCH   7   9
HETATM    9  C   UNL     1     -10.994  14.382  66.841  1.00  0.00    -0.308 C  
HETATM   10  O   UNL     1     -12.739  14.068  65.178  1.00  0.00    -0.619 OA 
HETATM   11  O   UNL     1     -11.050  15.477  64.698  1.00  0.00    -0.412 OA 
HETATM   12  C   UNL     1     -11.581  14.700  65.479  1.00  0.00    -0.335 C  
ENDBRANCH   7   9
BRANCH   8  13
HETATM   13  C   UNL     1     -11.548  15.605  71.568  1.00  0.00    -0.435 C  
HETATM   14  C   UNL     1     -12.705  15.785  72.535  1.00  0.00    -0.451 C  
HETATM   15  O   UNL     1     -13.940  15.681  71.994  1.00  0.00    -0.483 OA 
HETATM   16  O   UNL     1     -12.538  15.991  73.729  1.00  0.00    -0.510 OA 
ENDBRANCH   8  13
ENDBRANCH   3   5
TORSDOF 3
ENDMDL
MODEL       19
REMARK 921   NORMALIZED FREE ENERGY PREDICTED BY IDOCK:   -5.16 KCAL/MOL
REMARK 922        TOTAL FREE ENERGY PREDICTED BY IDOCK:   -6.33 KCAL/MOL
REMARK 923 INTER-LIGAND FREE ENERGY PREDICTED BY IDOCK:   -6.00 KCAL/MOL
REMARK 924 INTRA-LIGAND FREE ENERGY PREDICTED BY IDOCK:   -0.33 KCAL/MOL
REMARK 927      BINDING AFFINITY PREDICTED BY RF-SCORE:    0.00 PKD
ROOT
HETATM    1  O   UNL     1     -12.218  12.337  65.883  1.00  0.00    -0.634 OA 
HETATM    2  C   UNL     1     -10.903  12.050  66.021  1.00  0.00    -0.289 C  
HETATM    3  C   UNL     1     -10.289  12.402  67.363  1.00  0.00    -0.207 C  
HETATM    4  O   UNL     1     -10.262  11.524  65.119  1.00  0.00    -0.248 OA 
ENDROOT
BRANCH   3   5
HETATM    5  S   UNL     1     -11.497  13.244  68.450  1.00  0.00    -0.338 SA 
HETATM    6  C   UNL     1     -10.840  14.959  68.478  1.00  0.00    -0.247 C  
HETATM    7  S   UNL     1     -10.948  15.661  66.783  1.00  0.00    -0.165 SA 
HETATM    8  S   UNL     1     -11.909  15.950  69.601  1.00  0.00    -0.233 SA 
BRANCH   7   9
HETATM    9  C   UNL     1     -10.216  17.321  67.049  1.00  0.00    -0.320 C  
HETATM   10  O   UNL     1     -11.054  17.693  64.797  1.00  0.00    -0.915 OA 
HETATM   11  O   UNL     1     -10.001  19.390  65.836  1.00  0.00    -0.410 OA 
HETATM   12  C   UNL     1     -10.405  18.235  65.853  1.00  0.00    -0.284 C  
ENDBRANCH   7   9
BRANCH   8  13
HETATM   13  C   UNL     1     -11.624  15.096  71.198  1.00  0.00    -0.360 C  
HETATM   14  C   UNL     1     -12.904  14.940  72.000  1.00  0.00    -0.325 C  
HETATM   15  O   UNL     1     -14.030  15.380  71.396  1.00  0.00    -0.504 OA 
HETATM   16  O   UNL     1     -12.923  14.434  73.114  1.00  0.00    -0.520 OA 
ENDBRANCH   8  13
ENDBRANCH   3   5
TORSDOF 3
ENDMDL
MODEL       20
REMARK 921   NORMALIZED FREE ENERGY PREDICTED BY IDOCK:   -5.16 KCAL/MOL
REMARK 922        TOTAL FREE ENERGY PREDICTED BY IDOCK:   -6.32 KCAL/MOL
REMARK 923 INTER-LIGAND FREE ENERGY PREDICTED BY IDOCK:   -6.03 KCAL/MOL
REMARK 924 INTRA-LIGAND FREE ENERGY PREDICTED BY IDOCK:   -0.29 KCAL/MOL
REMARK 927      BINDING AFFINITY PREDICTED BY RF-SCORE:    0.00 PKD
ROOT
HETATM    1  O   UNL     1     -10.746  12.169  63.591  1.00  0.00    -0.388 OA 
HETATM    2  C   UNL     1     -12.000  12.648  63.758  1.00  0.00    -0.510 C  
HETATM    3  C   UNL     1     -12.110  13.959  64.515  1.00  0.00    -0.443 C  
HETATM    4  O   UNL     1     -12.977  12.061  63.308  1.00  0.00    -0.736 OA 
ENDROOT
BRANCH   3   5
HETATM    5  S   UNL     1     -10.475  14.523  65.115  1.00  0.00    -0.424 SA 
HETATM    6  C   UNL     1     -10.890  15.152  66.790  1.00  0.00    -0.322 C  
HETATM    7  S   UNL     1     -11.470  13.747  67.823  1.00  0.00    -0.342 SA 
HETATM    8  S   UNL     1      -9.350  15.837  67.529  1.00  0.00    -0.210 SA 
BRANCH   7   9
HETATM    9  C   UNL     1     -11.853  14.608  69.395  1.00  0.00    -0.329 C  
HETATM   10  O   UNL     1     -11.997  12.329  70.231  1.00  0.00    -0.344 OA 
HETATM   11  O   UNL     1     -12.343  14.019  71.678  1.00  0.00    -0.314 OA 
HETATM   12  C   UNL     1     -12.088  13.643  70.542  1.00  0.00    -0.339 C  
ENDBRANCH   7   9
BRANCH   8  13
HETATM   13  C   UNL     1      -8.985  17.208  66.367  1.00  0.00    -0.260 C  
HETATM   14  C   UNL     1      -7.498  17.346  66.093  1.00  0.00    -0.296 C  
HETATM   15  O   UNL     1      -6.707  16.418  66.677  1.00  0.00    -0.235 OA 
HETATM   16  O   UNL     1      -7.041  18.226  65.377  1.00  0.00    -0.537 OA 
ENDBRANCH   8  13
ENDBRANCH   3   5
TORSDOF 3
ENDMDL
MODEL       21
REMARK 921   NORMALIZED FREE ENERGY PREDICTED BY IDOCK:   -5.16 KCAL/MOL
REMARK 922        TOTAL FREE ENERGY PREDICTED BY IDOCK:   -6.32 KCAL/MOL
REMARK 923 INTER-LIGAND FREE ENERGY PREDICTED BY IDOCK:   -5.96 KCAL/MOL
REMARK 924 INTRA-LIGAND FREE ENERGY PREDICTED BY IDOCK:   -0.36 KCAL/MOL
REMARK 927      BINDING AFFINITY PREDICTED BY RF-SCORE:    0.00 PKD
ROOT
HETATM    1  O   UNL     1      -9.192  16.463  68.544  1.00  0.00    -0.210 OA 
HETATM    2  C   UNL     1     -10.424  16.904  68.202  1.00  0.00    -0.350 C  
HETATM    3  C   UNL     1     -11.572  15.959  68.511  1.00  0.00    -0.349 C  
HETATM    4  O   UNL     1     -10.594  18.004  67.691  1.00  0.00    -0.400 OA 
ENDROOT
BRANCH   3   5
HETATM    5  S   UNL     1     -10.966  14.373  69.195  1.00  0.00    -0.262 SA 
HETATM    6  C   UNL     1     -11.496  13.183  67.901  1.00  0.00    -0.308 C  
HETATM    7  S   UNL     1     -10.597  13.561  66.344  1.00  0.00    -0.286 SA 
HETATM    8  S   UNL     1     -11.025  11.496  68.465  1.00  0.00    -0.244 SA 
BRANCH   7   9
HETATM    9  C   UNL     1     -11.304  12.299  65.219  1.00  0.00    -0.338 C  
HETATM   10  O   UNL     1     -12.915  14.066  64.777  1.00  0.00    -0.686 OA 
HETATM   11  O   UNL     1     -13.144  12.116  63.677  1.00  0.00    -0.787 OA 
HETATM   12  C   UNL     1     -12.533  12.802  64.484  1.00  0.00    -0.428 C  
ENDBRANCH   7   9
BRANCH   8  13
HETATM   13  C   UNL     1     -12.043  11.337  69.982  1.00  0.00    -0.348 C  
HETATM   14  C   UNL     1     -11.580  10.193  70.865  1.00  0.00    -0.372 C  
HETATM   15  O   UNL     1     -10.478   9.535  70.440  1.00  0.00    -0.236 OA 
HETATM   16  O   UNL     1     -12.151   9.892  71.904  1.00  0.00    -0.357 OA 
ENDBRANCH   8  13
ENDBRANCH   3   5
TORSDOF 3
ENDMDL
MODEL       22
REMARK 921   NORMALIZED FREE ENERGY PREDICTED BY IDOCK:   -5.12 KCAL/MOL
REMARK 922        TOTAL FREE ENERGY PREDICTED BY IDOCK:   -6.27 KCAL/MOL
REMARK 923 INTER-LIGAND FREE ENERGY PREDICTED BY IDOCK:   -6.02 KCAL/MOL
REMARK 924 INTRA-LIGAND FREE ENERGY PREDICTED BY IDOCK:   -0.25 KCAL/MOL
REMARK 927      BINDING AFFINITY PREDICTED BY RF-SCORE:    0.00 PKD
ROOT
HETATM    1  O   UNL     1      -6.733  17.304  67.191  1.00  0.00    -0.151 OA 
HETATM    2  C   UNL     1      -7.630  17.883  66.361  1.00  0.00    -0.273 C  
HETATM    3  C   UNL     1      -9.087  17.746  66.765  1.00  0.00    -0.262 C  
HETATM    4  O   UNL     1      -7.277  18.489  65.356  1.00  0.00    -0.530 OA 
ENDROOT
BRANCH   3   5
HETATM    5  S   UNL     1      -9.269  16.716  68.267  1.00  0.00    -0.224 SA 
HETATM    6  C   UNL     1     -10.805  15.782  67.893  1.00  0.00    -0.314 C  
HETATM    7  S   UNL     1     -10.501  14.699  66.440  1.00  0.00    -0.304 SA 
HETATM    8  S   UNL     1     -11.189  14.727  69.351  1.00  0.00    -0.298 SA 
BRANCH   7   9
HETATM    9  C   UNL     1     -12.147  13.918  66.239  1.00  0.00    -0.451 C  
HETATM   10  O   UNL     1     -11.153  13.115  64.170  1.00  0.00    -0.375 OA 
HETATM   11  O   UNL     1     -13.268  12.507  64.642  1.00  0.00    -0.848 OA 
HETATM   12  C   UNL     1     -12.255  13.116  64.955  1.00  0.00    -0.428 C  
ENDBRANCH   7   9
BRANCH   8  13
HETATM   13  C   UNL     1     -11.474  16.001  70.638  1.00  0.00    -0.402 C  
HETATM   14  C   UNL     1     -12.288  15.466  71.803  1.00  0.00    -0.381 C  
HETATM   15  O   UNL     1     -12.605  14.153  71.741  1.00  0.00    -0.332 OA 
HETATM   16  O   UNL     1     -12.623  16.168  72.747  1.00  0.00    -0.452 OA 
ENDBRANCH   8  13
ENDBRANCH   3   5
TORSDOF 3
ENDMDL
MODEL       23
REMARK 921   NORMALIZED FREE ENERGY PREDICTED BY IDOCK:   -5.10 KCAL/MOL
REMARK 922        TOTAL FREE ENERGY PREDICTED BY IDOCK:   -6.25 KCAL/MOL
REMARK 923 INTER-LIGAND FREE ENERGY PREDICTED BY IDOCK:   -5.93 KCAL/MOL
REMARK 924 INTRA-LIGAND FREE ENERGY PREDICTED BY IDOCK:   -0.32 KCAL/MOL
REMARK 927      BINDING AFFINITY PREDICTED BY RF-SCORE:    0.00 PKD
ROOT
HETATM    1  O   UNL     1     -12.394  13.898  66.918  1.00  0.00    -0.410 OA 
HETATM    2  C   UNL     1     -11.307  14.469  67.484  1.00  0.00    -0.340 C  
HETATM    3  C   UNL     1     -10.776  13.782  68.729  1.00  0.00    -0.249 C  
HETATM    4  O   UNL     1     -10.782  15.467  67.005  1.00  0.00    -0.314 OA 
ENDROOT
BRANCH   3   5
HETATM    5  S   UNL     1     -11.836  12.373  69.219  1.00  0.00    -0.277 SA 
HETATM    6  C   UNL     1     -12.250  12.804  70.955  1.00  0.00    -0.191 C  
HETATM    7  S   UNL     1     -13.245  14.349  70.960  1.00  0.00    -0.283 SA 
HETATM    8  S   UNL     1     -13.272  11.437  71.644  1.00  0.00    -0.179 SA 
BRANCH   7   9
HETATM    9  C   UNL     1     -13.497  14.594  72.759  1.00  0.00    -0.473 C  
HETATM   10  O   UNL     1     -11.952  16.436  72.395  1.00  0.00    -0.530 OA 
HETATM   11  O   UNL     1     -12.754  16.112  74.474  1.00  0.00    -0.707 OA 
HETATM   12  C   UNL     1     -12.710  15.774  73.299  1.00  0.00    -0.525 C  
ENDBRANCH   7   9
BRANCH   8  13
HETATM   13  C   UNL     1     -12.087  10.041  71.563  1.00  0.00    -0.387 C  
HETATM   14  C   UNL     1     -12.759   8.703  71.816  1.00  0.00    -0.359 C  
HETATM   15  O   UNL     1     -14.099   8.746  71.986  1.00  0.00    -0.423 OA 
HETATM   16  O   UNL     1     -12.137   7.651  71.847  1.00  0.00    -0.282 OA 
ENDBRANCH   8  13
ENDBRANCH   3   5
TORSDOF 3
ENDMDL
MODEL       24
REMARK 921   NORMALIZED FREE ENERGY PREDICTED BY IDOCK:   -5.08 KCAL/MOL
REMARK 922        TOTAL FREE ENERGY PREDICTED BY IDOCK:   -6.23 KCAL/MOL
REMARK 923 INTER-LIGAND FREE ENERGY PREDICTED BY IDOCK:   -5.95 KCAL/MOL
REMARK 924 INTRA-LIGAND FREE ENERGY PREDICTED BY IDOCK:   -0.27 KCAL/MOL
REMARK 927      BINDING AFFINITY PREDICTED BY RF-SCORE:    0.00 PKD
ROOT
HETATM    1  O   UNL     1     -10.272  19.906  68.820  1.00  0.00    -0.451 OA 
HETATM    2  C   UNL     1     -10.255  19.440  67.551  1.00  0.00    -0.425 C  
HETATM    3  C   UNL     1     -10.412  17.938  67.398  1.00  0.00    -0.383 C  
HETATM    4  O   UNL     1     -10.134  20.193  66.591  1.00  0.00    -0.434 OA 
ENDROOT
BRANCH   3   5
HETATM    5  S   UNL     1     -10.486  17.105  69.026  1.00  0.00    -0.273 SA 
HETATM    6  C   UNL     1     -11.499  15.623  68.639  1.00  0.00    -0.375 C  
HETATM    7  S   UNL     1     -10.574  14.567  67.453  1.00  0.00    -0.274 SA 
HETATM    8  S   UNL     1     -11.742  14.686  70.204  1.00  0.00    -0.311 SA 
BRANCH   7   9
HETATM    9  C   UNL     1     -11.773  13.205  67.194  1.00  0.00    -0.377 C  
HETATM   10  O   UNL     1     -10.124  11.948  68.465  1.00  0.00    -0.211 OA 
HETATM   11  O   UNL     1     -11.986  10.881  67.785  1.00  0.00    -0.553 OA 
HETATM   12  C   UNL     1     -11.320  11.905  67.833  1.00  0.00    -0.291 C  
ENDBRANCH   7   9
BRANCH   8  13
HETATM   13  C   UNL     1     -12.686  15.904  71.197  1.00  0.00    -0.291 C  
HETATM   14  C   UNL     1     -13.488  15.243  72.304  1.00  0.00    -0.450 C  
HETATM   15  O   UNL     1     -13.327  13.906  72.424  1.00  0.00    -0.445 OA 
HETATM   16  O   UNL     1     -14.218  15.876  73.054  1.00  0.00    -0.410 OA 
ENDBRANCH   8  13
ENDBRANCH   3   5
TORSDOF 3
ENDMDL
MODEL       25
REMARK 921   NORMALIZED FREE ENERGY PREDICTED BY IDOCK:   -5.07 KCAL/MOL
REMARK 922        TOTAL FREE ENERGY PREDICTED BY IDOCK:   -6.21 KCAL/MOL
REMARK 923 INTER-LIGAND FREE ENERGY PREDICTED BY IDOCK:   -5.92 KCAL/MOL
REMARK 924 INTRA-LIGAND FREE ENERGY PREDICTED BY IDOCK:   -0.30 KCAL/MOL
REMARK 927      BINDING AFFINITY PREDICTED BY RF-SCORE:    0.00 PKD
ROOT
HETATM    1  O   UNL     1     -11.083  18.091  64.929  1.00  0.00    -0.738 OA 
HETATM    2  C   UNL     1     -10.197  17.787  65.905  1.00  0.00    -0.225 C  
HETATM    3  C   UNL     1      -9.981  16.307  66.162  1.00  0.00    -0.334 C  
HETATM    4  O   UNL     1      -9.600  18.660  66.524  1.00  0.00    -0.315 OA 
ENDROOT
BRANCH   3   5
HETATM    5  S   UNL     1     -11.084  15.281  65.123  1.00  0.00    -0.400 SA 
HETATM    6  C   UNL     1     -11.067  13.683  66.028  1.00  0.00    -0.293 C  
HETATM    7  S   UNL     1     -11.835  13.929  67.679  1.00  0.00    -0.379 SA 
HETATM    8  S   UNL     1     -12.085  12.485  65.071  1.00  0.00    -0.430 SA 
BRANCH   7   9
HETATM    9  C   UNL     1     -11.670  12.249  68.393  1.00  0.00    -0.337 C  
HETATM   10  O   UNL     1     -12.312  13.405  70.433  1.00  0.00    -0.336 OA 
HETATM   11  O   UNL     1     -11.945  11.187  70.536  1.00  0.00    -0.336 OA 
HETATM   12  C   UNL     1     -11.983  12.216  69.877  1.00  0.00    -0.309 C  
ENDBRANCH   7   9
BRANCH   8  13
HETATM   13  C   UNL     1     -11.129  12.384  63.510  1.00  0.00    -0.458 C  
HETATM   14  C   UNL     1     -10.048  11.320  63.569  1.00  0.00    -0.396 C  
HETATM   15  O   UNL     1     -10.008  10.588  64.705  1.00  0.00    -0.308 OA 
HETATM   16  O   UNL     1      -9.272  11.120  62.644  1.00  0.00    -0.323 OA 
ENDBRANCH   8  13
ENDBRANCH   3   5
TORSDOF 3
ENDMDL
MODEL       26
REMARK 921   NORMALIZED FREE ENERGY PREDICTED BY IDOCK:   -5.04 KCAL/MOL
REMARK 922        TOTAL FREE ENERGY PREDICTED BY IDOCK:   -6.19 KCAL/MOL
REMARK 923 INTER-LIGAND FREE ENERGY PREDICTED BY IDOCK:   -5.89 KCAL/MOL
REMARK 924 INTRA-LIGAND FREE ENERGY PREDICTED BY IDOCK:   -0.29 KCAL/MOL
REMARK 927      BINDING AFFINITY PREDICTED BY RF-SCORE:    0.00 PKD
ROOT
HETATM    1  O   UNL     1     -10.193  10.426  64.706  1.00  0.00    -0.345 OA 
HETATM    2  C   UNL     1     -10.173  11.104  63.535  1.00  0.00    -0.390 C  
HETATM    3  C   UNL     1     -11.073  12.324  63.464  1.00  0.00    -0.464 C  
HETATM    4  O   UNL     1      -9.458  10.754  62.603  1.00  0.00    -0.297 OA 
ENDROOT
BRANCH   3   5
HETATM    5  S   UNL     1     -12.061  12.515  64.993  1.00  0.00    -0.430 SA 
HETATM    6  C   UNL     1     -11.042  13.708  65.947  1.00  0.00    -0.284 C  
HETATM    7  S   UNL     1     -10.999  15.307  65.042  1.00  0.00    -0.436 SA 
HETATM    8  S   UNL     1     -11.861  13.969  67.574  1.00  0.00    -0.402 SA 
BRANCH   7   9
HETATM    9  C   UNL     1      -9.918  16.299  66.140  1.00  0.00    -0.334 C  
HETATM   10  O   UNL     1     -10.960  18.149  64.955  1.00  0.00    -0.726 OA 
HETATM   11  O   UNL     1      -9.455  18.624  66.561  1.00  0.00    -0.306 OA 
HETATM   12  C   UNL     1     -10.078  17.791  65.917  1.00  0.00    -0.174 C  
ENDBRANCH   7   9
BRANCH   8  13
HETATM   13  C   UNL     1     -11.765  12.283  68.287  1.00  0.00    -0.336 C  
HETATM   14  C   UNL     1     -11.977  12.284  69.791  1.00  0.00    -0.295 C  
HETATM   15  O   UNL     1     -12.265  13.484  70.340  1.00  0.00    -0.339 OA 
HETATM   16  O   UNL     1     -11.911  11.264  70.464  1.00  0.00    -0.338 OA 
ENDBRANCH   8  13
ENDBRANCH   3   5
TORSDOF 3
ENDMDL
MODEL       27
REMARK 921   NORMALIZED FREE ENERGY PREDICTED BY IDOCK:   -4.99 KCAL/MOL
REMARK 922        TOTAL FREE ENERGY PREDICTED BY IDOCK:   -6.12 KCAL/MOL
REMARK 923 INTER-LIGAND FREE ENERGY PREDICTED BY IDOCK:   -5.77 KCAL/MOL
REMARK 924 INTRA-LIGAND FREE ENERGY PREDICTED BY IDOCK:   -0.35 KCAL/MOL
REMARK 927      BINDING AFFINITY PREDICTED BY RF-SCORE:    0.00 PKD
ROOT
HETATM    1  O   UNL     1      -9.920  11.643  68.611  1.00  0.00    -0.209 OA 
HETATM    2  C   UNL     1     -11.142  11.572  68.038  1.00  0.00    -0.254 C  
HETATM    3  C   UNL     1     -11.746  12.896  67.605  1.00  0.00    -0.370 C  
HETATM    4  O   UNL     1     -11.711  10.500  67.868  1.00  0.00    -0.453 OA 
ENDROOT
BRANCH   3   5
HETATM    5  S   UNL     1     -10.675  14.304  68.076  1.00  0.00    -0.242 SA 
HETATM    6  C   UNL     1     -11.807  15.295  69.129  1.00  0.00    -0.321 C  
HETATM    7  S   UNL     1     -12.230  14.319  70.627  1.00  0.00    -0.379 SA 
HETATM    8  S   UNL     1     -10.906  16.815  69.644  1.00  0.00    -0.062 SA 
BRANCH   7   9
HETATM    9  C   UNL     1     -13.371  15.471  71.481  1.00  0.00    -0.509 C  
HETATM   10  O   UNL     1     -11.911  15.004  73.369  1.00  0.00    -0.368 OA 
HETATM   11  O   UNL     1     -13.623  16.434  73.674  1.00  0.00    -0.592 OA 
HETATM   12  C   UNL     1     -12.995  15.689  72.935  1.00  0.00    -0.497 C  
ENDBRANCH   7   9
BRANCH   8  13
HETATM   13  C   UNL     1     -10.621  17.619  68.021  1.00  0.00    -0.376 C  
HETATM   14  C   UNL     1     -10.180  19.064  68.168  1.00  0.00    -0.396 C  
HETATM   15  O   UNL     1     -10.005  19.496  69.437  1.00  0.00    -0.384 OA 
HETATM   16  O   UNL     1      -9.978  19.790  67.204  1.00  0.00    -0.357 OA 
ENDBRANCH   8  13
ENDBRANCH   3   5
TORSDOF 3
ENDMDL
MODEL       28
REMARK 921   NORMALIZED FREE ENERGY PREDICTED BY IDOCK:   -4.92 KCAL/MOL
REMARK 922        TOTAL FREE ENERGY PREDICTED BY IDOCK:   -6.04 KCAL/MOL
REMARK 923 INTER-LIGAND FREE ENERGY PREDICTED BY IDOCK:   -5.79 KCAL/MOL
REMARK 924 INTRA-LIGAND FREE ENERGY PREDICTED BY IDOCK:   -0.26 KCAL/MOL
REMARK 927      BINDING AFFINITY PREDICTED BY RF-SCORE:    0.00 PKD
ROOT
HETATM    1  O   UNL     1     -13.849  15.867  71.037  1.00  0.00    -0.355 OA 
HETATM    2  C   UNL     1     -12.665  15.602  71.633  1.00  0.00    -0.456 C  
HETATM    3  C   UNL     1     -11.521  15.249  70.700  1.00  0.00    -0.319 C  
HETATM    4  O   UNL     1     -12.531  15.660  72.850  1.00  0.00    -0.357 OA 
ENDROOT
BRANCH   3   5
HETATM    5  S   UNL     1     -12.079  15.173  68.959  1.00  0.00    -0.149 SA 
HETATM    6  C   UNL     1     -10.970  13.882  68.269  1.00  0.00    -0.255 C  
HETATM    7  S   UNL     1     -11.333  12.283  69.099  1.00  0.00    -0.266 SA 
HETATM    8  S   UNL     1     -11.347  13.719  66.475  1.00  0.00    -0.337 SA 
BRANCH   7   9
HETATM    9  C   UNL     1     -10.106  11.187  68.293  1.00  0.00    -0.185 C  
HETATM   10  O   UNL     1     -10.299   9.970  70.389  1.00  0.00    -0.282 OA 
HETATM   11  O   UNL     1      -8.914   9.160  68.811  1.00  0.00    -0.135 OA 
HETATM   12  C   UNL     1      -9.711  10.014  69.172  1.00  0.00    -0.209 C  
ENDBRANCH   7   9
BRANCH   8  13
HETATM   13  C   UNL     1     -10.892  15.389  65.870  1.00  0.00    -0.325 C  
HETATM   14  C   UNL     1     -11.606  15.744  64.578  1.00  0.00    -0.247 C  
HETATM   15  O   UNL     1     -12.492  14.827  64.128  1.00  0.00    -0.758 OA 
HETATM   16  O   UNL     1     -11.410  16.797  63.987  1.00  0.00    -1.153 OA 
ENDBRANCH   8  13
ENDBRANCH   3   5
TORSDOF 3
ENDMDL
MODEL       29
REMARK 921   NORMALIZED FREE ENERGY PREDICTED BY IDOCK:   -4.92 KCAL/MOL
REMARK 922        TOTAL FREE ENERGY PREDICTED BY IDOCK:   -6.04 KCAL/MOL
REMARK 923 INTER-LIGAND FREE ENERGY PREDICTED BY IDOCK:   -5.76 KCAL/MOL
REMARK 924 INTRA-LIGAND FREE ENERGY PREDICTED BY IDOCK:   -0.28 KCAL/MOL
REMARK 927      BINDING AFFINITY PREDICTED BY RF-SCORE:    0.00 PKD
ROOT
HETATM    1  O   UNL     1     -12.950  13.995  64.973  1.00  0.00    -0.728 OA 
HETATM    2  C   UNL     1     -12.380  13.034  64.211  1.00  0.00    -0.366 C  
HETATM    3  C   UNL     1     -10.867  12.942  64.288  1.00  0.00    -0.397 C  
HETATM    4  O   UNL     1     -13.054  12.280  63.518  1.00  0.00    -0.766 OA 
ENDROOT
BRANCH   3   5
HETATM    5  S   UNL     1     -10.171  14.262  65.347  1.00  0.00    -0.367 SA 
HETATM    6  C   UNL     1     -10.345  13.525  67.021  1.00  0.00    -0.252 C  
HETATM    7  S   UNL     1      -9.281  12.031  67.125  1.00  0.00    -0.196 SA 
HETATM    8  S   UNL     1      -9.750  14.765  68.243  1.00  0.00    -0.224 SA 
BRANCH   7   9
HETATM    9  C   UNL     1      -9.646  11.463  68.828  1.00  0.00    -0.129 C  
HETATM   10  O   UNL     1     -11.653  10.599  67.763  1.00  0.00    -0.501 OA 
HETATM   11  O   UNL     1     -11.379  10.242  69.969  1.00  0.00    -0.260 OA 
HETATM   12  C   UNL     1     -10.962  10.714  68.921  1.00  0.00    -0.249 C  
ENDBRANCH   7   9
BRANCH   8  13
HETATM   13  C   UNL     1     -10.953  16.123  67.978  1.00  0.00    -0.338 C  
HETATM   14  C   UNL     1     -10.269  17.434  67.630  1.00  0.00    -0.342 C  
HETATM   15  O   UNL     1      -8.925  17.377  67.506  1.00  0.00    -0.228 OA 
HETATM   16  O   UNL     1     -10.891  18.473  67.455  1.00  0.00    -0.422 OA 
ENDBRANCH   8  13
ENDBRANCH   3   5
TORSDOF 3
ENDMDL
MODEL       30
REMARK 921   NORMALIZED FREE ENERGY PREDICTED BY IDOCK:   -4.86 KCAL/MOL
REMARK 922        TOTAL FREE ENERGY PREDICTED BY IDOCK:   -5.97 KCAL/MOL
REMARK 923 INTER-LIGAND FREE ENERGY PREDICTED BY IDOCK:   -5.67 KCAL/MOL
REMARK 924 INTRA-LIGAND FREE ENERGY PREDICTED BY IDOCK:   -0.30 KCAL/MOL
REMARK 927      BINDING AFFINITY PREDICTED BY RF-SCORE:    0.00 PKD
ROOT
HETATM    1  O   UNL     1     -12.398  13.834  70.555  1.00  0.00    -0.329 OA 
HETATM    2  C   UNL     1     -11.963  12.632  70.114  1.00  0.00    -0.299 C  
HETATM    3  C   UNL     1     -11.302  12.630  68.748  1.00  0.00    -0.289 C  
HETATM    4  O   UNL     1     -12.087  11.617  70.790  1.00  0.00    -0.364 OA 
ENDROOT
BRANCH   3   5
HETATM    5  S   UNL     1     -11.353  14.291  67.980  1.00  0.00    -0.312 SA 
HETATM    6  C   UNL     1     -10.725  13.938  66.290  1.00  0.00    -0.285 C  
HETATM    7  S   UNL     1     -11.916  12.830  65.435  1.00  0.00    -0.456 SA 
HETATM    8  S   UNL     1     -10.638  15.534  65.380  1.00  0.00    -0.429 SA 
BRANCH   7   9
HETATM    9  C   UNL     1     -11.075  12.594  63.824  1.00  0.00    -0.453 C  
HETATM   10  O   UNL     1     -10.259  10.579  64.914  1.00  0.00    -0.328 OA 
HETATM   11  O   UNL     1      -9.628  10.971  62.789  1.00  0.00    -0.313 OA 
HETATM   12  C   UNL     1     -10.255  11.318  63.781  1.00  0.00    -0.377 C  
ENDBRANCH   7   9
BRANCH   8  13
HETATM   13  C   UNL     1      -9.399  16.441  66.381  1.00  0.00    -0.292 C  
HETATM   14  C   UNL     1      -9.585  17.945  66.298  1.00  0.00    -0.241 C  
HETATM   15  O   UNL     1     -10.649  18.364  65.577  1.00  0.00    -0.627 OA 
HETATM   16  O   UNL     1      -8.836  18.732  66.861  1.00  0.00    -0.277 OA 
ENDBRANCH   8  13
ENDBRANCH   3   5
TORSDOF 3
ENDMDL
MODEL       31
REMARK 921   NORMALIZED FREE ENERGY PREDICTED BY IDOCK:   -4.84 KCAL/MOL
REMARK 922        TOTAL FREE ENERGY PREDICTED BY IDOCK:   -5.95 KCAL/MOL
REMARK 923 INTER-LIGAND FREE ENERGY PREDICTED BY IDOCK:   -5.62 KCAL/MOL
REMARK 924 INTRA-LIGAND FREE ENERGY PREDICTED BY IDOCK:   -0.34 KCAL/MOL
REMARK 927      BINDING AFFINITY PREDICTED BY RF-SCORE:    0.00 PKD
ROOT
HETATM    1  O   UNL     1     -10.737  18.129  66.570  1.00  0.00    -0.302 OA 
HETATM    2  C   UNL     1     -10.289  18.487  67.795  1.00  0.00    -0.402 C  
HETATM    3  C   UNL     1     -10.212  17.371  68.821  1.00  0.00    -0.361 C  
HETATM    4  O   UNL     1      -9.955  19.639  68.046  1.00  0.00    -0.376 OA 
ENDROOT
BRANCH   3   5
HETATM    5  S   UNL     1     -10.860  15.798  68.147  1.00  0.00    -0.319 SA 
HETATM    6  C   UNL     1     -11.213  14.853  69.681  1.00  0.00    -0.275 C  
HETATM    7  S   UNL     1     -12.542  15.713  70.614  1.00  0.00    -0.331 SA 
HETATM    8  S   UNL     1     -11.817  13.186  69.187  1.00  0.00    -0.297 SA 
BRANCH   7   9
HETATM    9  C   UNL     1     -12.688  14.632  72.087  1.00  0.00    -0.334 C  
HETATM   10  O   UNL     1     -11.823  16.603  73.217  1.00  0.00    -0.451 OA 
HETATM   11  O   UNL     1     -12.290  14.783  74.457  1.00  0.00    -0.447 OA 
HETATM   12  C   UNL     1     -12.254  15.329  73.363  1.00  0.00    -0.482 C  
ENDBRANCH   7   9
BRANCH   8  13
HETATM   13  C   UNL     1     -10.345  12.526  68.315  1.00  0.00    -0.236 C  
HETATM   14  C   UNL     1     -10.660  12.120  66.887  1.00  0.00    -0.229 C  
HETATM   15  O   UNL     1     -11.923  12.368  66.473  1.00  0.00    -0.564 OA 
HETATM   16  O   UNL     1      -9.825  11.618  66.147  1.00  0.00    -0.210 OA 
ENDBRANCH   8  13
ENDBRANCH   3   5
TORSDOF 3
ENDMDL
MODEL       32
REMARK 921   NORMALIZED FREE ENERGY PREDICTED BY IDOCK:   -4.81 KCAL/MOL
REMARK 922        TOTAL FREE ENERGY PREDICTED BY IDOCK:   -5.91 KCAL/MOL
REMARK 923 INTER-LIGAND FREE ENERGY PREDICTED BY IDOCK:   -5.61 KCAL/MOL
REMARK 924 INTRA-LIGAND FREE ENERGY PREDICTED BY IDOCK:   -0.30 KCAL/MOL
REMARK 927      BINDING AFFINITY PREDICTED BY RF-SCORE:    0.00 PKD
ROOT
HETATM    1  O   UNL     1     -14.049  15.453  71.889  1.00  0.00    -0.490 OA 
HETATM    2  C   UNL     1     -13.537  14.202  71.874  1.00  0.00    -0.417 C  
HETATM    3  C   UNL     1     -12.410  13.962  70.886  1.00  0.00    -0.377 C  
HETATM    4  O   UNL     1     -13.953  13.328  72.625  1.00  0.00    -0.741 OA 
ENDROOT
BRANCH   3   5
HETATM    5  S   UNL     1     -12.090  15.448  69.866  1.00  0.00    -0.338 SA 
HETATM    6  C   UNL     1     -11.002  14.769  68.551  1.00  0.00    -0.258 C  
HETATM    7  S   UNL     1     -11.955  13.544  67.567  1.00  0.00    -0.311 SA 
HETATM    8  S   UNL     1     -10.512  16.162  67.453  1.00  0.00    -0.310 SA 
BRANCH   7   9
HETATM    9  C   UNL     1     -10.679  12.990  66.374  1.00  0.00    -0.282 C  
HETATM   10  O   UNL     1     -10.697  11.002  67.775  1.00  0.00    -0.196 OA 
HETATM   11  O   UNL     1      -9.316  11.041  65.997  1.00  0.00    -0.187 OA 
HETATM   12  C   UNL     1     -10.162  11.597  66.684  1.00  0.00    -0.216 C  
ENDBRANCH   7   9
BRANCH   8  13
HETATM   13  C   UNL     1      -9.574  17.217  68.624  1.00  0.00    -0.281 C  
HETATM   14  C   UNL     1      -9.817  18.696  68.383  1.00  0.00    -0.384 C  
HETATM   15  O   UNL     1     -10.715  18.991  67.417  1.00  0.00    -0.461 OA 
HETATM   16  O   UNL     1      -9.253  19.568  69.030  1.00  0.00    -0.364 OA 
ENDBRANCH   8  13
ENDBRANCH   3   5
TORSDOF 3
ENDMDL
MODEL       33
REMARK 921   NORMALIZED FREE ENERGY PREDICTED BY IDOCK:   -4.80 KCAL/MOL
REMARK 922        TOTAL FREE ENERGY PREDICTED BY IDOCK:   -5.90 KCAL/MOL
REMARK 923 INTER-LIGAND FREE ENERGY PREDICTED BY IDOCK:   -5.57 KCAL/MOL
REMARK 924 INTRA-LIGAND FREE ENERGY PREDICTED BY IDOCK:   -0.33 KCAL/MOL
REMARK 927      BINDING AFFINITY PREDICTED BY RF-SCORE:    0.00 PKD
ROOT
HETATM    1  O   UNL     1     -12.823  13.209  65.168  1.00  0.00    -0.669 OA 
HETATM    2  C   UNL     1     -12.077  13.400  64.056  1.00  0.00    -0.449 C  
HETATM    3  C   UNL     1     -10.576  13.263  64.238  1.00  0.00    -0.384 C  
HETATM    4  O   UNL     1     -12.591  13.653  62.973  1.00  0.00    -0.729 OA 
ENDROOT
BRANCH   3   5
HETATM    5  S   UNL     1     -10.140  12.964  65.990  1.00  0.00    -0.285 SA 
HETATM    6  C   UNL     1      -9.355  14.558  66.455  1.00  0.00    -0.284 C  
HETATM    7  S   UNL     1     -10.617  15.890  66.357  1.00  0.00    -0.268 SA 
HETATM    8  S   UNL     1      -8.779  14.411  68.197  1.00  0.00    -0.182 SA 
BRANCH   7   9
HETATM    9  C   UNL     1      -9.613  17.353  66.815  1.00  0.00    -0.277 C  
HETATM   10  O   UNL     1     -10.986  18.422  65.116  1.00  0.00    -0.604 OA 
HETATM   11  O   UNL     1      -9.455  19.674  66.192  1.00  0.00    -0.380 OA 
HETATM   12  C   UNL     1      -9.997  18.590  66.025  1.00  0.00    -0.222 C  
ENDBRANCH   7   9
BRANCH   8  13
HETATM   13  C   UNL     1      -7.538  13.071  68.043  1.00  0.00    -0.139 C  
HETATM   14  C   UNL     1      -6.178  13.596  67.618  1.00  0.00    -0.119 C  
HETATM   15  O   UNL     1      -6.083  14.938  67.493  1.00  0.00    -0.307 OA 
HETATM   16  O   UNL     1      -5.223  12.858  67.419  1.00  0.00    -0.273 OA 
ENDBRANCH   8  13
ENDBRANCH   3   5
TORSDOF 3
ENDMDL
MODEL       34
REMARK 921   NORMALIZED FREE ENERGY PREDICTED BY IDOCK:   -4.71 KCAL/MOL
REMARK 922        TOTAL FREE ENERGY PREDICTED BY IDOCK:   -5.79 KCAL/MOL
REMARK 923 INTER-LIGAND FREE ENERGY PREDICTED BY IDOCK:   -5.58 KCAL/MOL
REMARK 924 INTRA-LIGAND FREE ENERGY PREDICTED BY IDOCK:   -0.21 KCAL/MOL
REMARK 927      BINDING AFFINITY PREDICTED BY RF-SCORE:    0.00 PKD
ROOT
HETATM    1  O   UNL     1      -9.967   9.280  65.595  1.00  0.00    -0.277 OA 
HETATM    2  C   UNL     1     -10.396   9.047  66.856  1.00  0.00    -0.254 C  
HETATM    3  C   UNL     1     -10.457  10.260  67.766  1.00  0.00    -0.226 C  
HETATM    4  O   UNL     1     -10.728   7.926  67.225  1.00  0.00    -0.301 OA 
ENDROOT
BRANCH   3   5
HETATM    5  S   UNL     1      -9.819  11.757  66.928  1.00  0.00    -0.206 SA 
HETATM    6  C   UNL     1     -11.107  12.996  67.348  1.00  0.00    -0.272 C  
HETATM    7  S   UNL     1     -11.101  13.263  69.166  1.00  0.00    -0.164 SA 
HETATM    8  S   UNL     1     -10.659  14.575  66.514  1.00  0.00    -0.304 SA 
BRANCH   7   9
HETATM    9  C   UNL     1     -12.462  14.478  69.343  1.00  0.00    -0.078 C  
HETATM   10  O   UNL     1     -11.880  14.300  71.697  1.00  0.00    -0.222 OA 
HETATM   11  O   UNL     1     -13.540  15.704  71.113  1.00  0.00    -0.582 OA 
HETATM   12  C   UNL     1     -12.687  14.890  70.786  1.00  0.00    -0.363 C  
ENDBRANCH   7   9
BRANCH   8  13
HETATM   13  C   UNL     1     -10.754  14.078  64.752  1.00  0.00    -0.427 C  
HETATM   14  C   UNL     1     -12.187  13.984  64.260  1.00  0.00    -0.418 C  
HETATM   15  O   UNL     1     -13.137  14.340  65.154  1.00  0.00    -0.704 OA 
HETATM   16  O   UNL     1     -12.470  13.628  63.124  1.00  0.00    -0.786 OA 
ENDBRANCH   8  13
ENDBRANCH   3   5
TORSDOF 3
ENDMDL
MODEL       35
REMARK 921   NORMALIZED FREE ENERGY PREDICTED BY IDOCK:   -4.71 KCAL/MOL
REMARK 922        TOTAL FREE ENERGY PREDICTED BY IDOCK:   -5.79 KCAL/MOL
REMARK 923 INTER-LIGAND FREE ENERGY PREDICTED BY IDOCK:   -5.47 KCAL/MOL
REMARK 924 INTRA-LIGAND FREE ENERGY PREDICTED BY IDOCK:   -0.32 KCAL/MOL
REMARK 927      BINDING AFFINITY PREDICTED BY RF-SCORE:    0.00 PKD
ROOT
HETATM    1  O   UNL     1     -11.203  17.227  64.489  1.00  0.00    -1.083 OA 
HETATM    2  C   UNL     1     -10.585  17.664  65.609  1.00  0.00    -0.135 C  
HETATM    3  C   UNL     1     -10.414  16.636  66.712  1.00  0.00    -0.261 C  
HETATM    4  O   UNL     1     -10.179  18.816  65.711  1.00  0.00    -0.541 OA 
ENDROOT
BRANCH   3   5
HETATM    5  S   UNL     1     -11.202  15.044  66.269  1.00  0.00    -0.265 SA 
HETATM    6  C   UNL     1      -9.786  13.881  66.391  1.00  0.00    -0.297 C  
HETATM    7  S   UNL     1      -9.219  13.819  68.138  1.00  0.00    -0.201 SA 
HETATM    8  S   UNL     1     -10.387  12.212  65.901  1.00  0.00    -0.264 SA 
BRANCH   7   9
HETATM    9  C   UNL     1      -7.810  12.654  68.004  1.00  0.00    -0.149 C  
HETATM   10  O   UNL     1      -6.592  14.696  67.492  1.00  0.00    -0.220 OA 
HETATM   11  O   UNL     1      -5.450  12.756  67.538  1.00  0.00    -0.154 OA 
HETATM   12  C   UNL     1      -6.509  13.355  67.658  1.00  0.00    -0.162 C  
ENDBRANCH   7   9
BRANCH   8  13
HETATM   13  C   UNL     1     -10.863  12.511  64.156  1.00  0.00    -0.382 C  
HETATM   14  C   UNL     1     -12.365  12.429  63.950  1.00  0.00    -0.508 C  
HETATM   15  O   UNL     1     -13.098  12.225  65.067  1.00  0.00    -0.546 OA 
HETATM   16  O   UNL     1     -12.885  12.557  62.850  1.00  0.00    -0.297 OA 
ENDBRANCH   8  13
ENDBRANCH   3   5
TORSDOF 3
ENDMDL
MODEL       36
REMARK 921   NORMALIZED FREE ENERGY PREDICTED BY IDOCK:   -4.70 KCAL/MOL
REMARK 922        TOTAL FREE ENERGY PREDICTED BY IDOCK:   -5.78 KCAL/MOL
REMARK 923 INTER-LIGAND FREE ENERGY PREDICTED BY IDOCK:   -5.48 KCAL/MOL
REMARK 924 INTRA-LIGAND FREE ENERGY PREDICTED BY IDOCK:   -0.31 KCAL/MOL
REMARK 927      BINDING AFFINITY PREDICTED BY RF-SCORE:    0.00 PKD
ROOT
HETATM    1  O   UNL     1      -8.299  17.981  68.136  1.00  0.00    -0.253 OA 
HETATM    2  C   UNL     1      -7.507  17.025  68.672  1.00  0.00    -0.229 C  
HETATM    3  C   UNL     1      -7.689  15.627  68.111  1.00  0.00    -0.124 C  
HETATM    4  O   UNL     1      -6.687  17.285  69.545  1.00  0.00    -0.227 OA 
ENDROOT
BRANCH   3   5
HETATM    5  S   UNL     1      -9.046  15.571  66.883  1.00  0.00    -0.261 SA 
HETATM    6  C   UNL     1     -10.283  14.521  67.744  1.00  0.00    -0.226 C  
HETATM    7  S   UNL     1     -10.857  15.397  69.253  1.00  0.00    -0.273 SA 
HETATM    8  S   UNL     1     -11.713  14.293  66.608  1.00  0.00    -0.409 SA 
BRANCH   7   9
HETATM    9  C   UNL     1     -12.024  14.166  69.946  1.00  0.00    -0.338 C  
HETATM   10  O   UNL     1     -12.650  16.039  71.364  1.00  0.00    -0.443 OA 
HETATM   11  O   UNL     1     -13.736  14.085  71.638  1.00  0.00    -0.357 OA 
HETATM   12  C   UNL     1     -12.884  14.742  71.056  1.00  0.00    -0.352 C  
ENDBRANCH   7   9
BRANCH   8  13
HETATM   13  C   UNL     1     -10.917  13.396  65.220  1.00  0.00    -0.295 C  
HETATM   14  C   UNL     1     -11.914  12.572  64.426  1.00  0.00    -0.404 C  
HETATM   15  O   UNL     1     -13.204  12.682  64.812  1.00  0.00    -0.846 OA 
HETATM   16  O   UNL     1     -11.579  11.866  63.484  1.00  0.00    -0.439 OA 
ENDBRANCH   8  13
ENDBRANCH   3   5
TORSDOF 3
ENDMDL
MODEL       37
REMARK 921   NORMALIZED FREE ENERGY PREDICTED BY IDOCK:   -4.69 KCAL/MOL
REMARK 922        TOTAL FREE ENERGY PREDICTED BY IDOCK:   -5.77 KCAL/MOL
REMARK 923 INTER-LIGAND FREE ENERGY PREDICTED BY IDOCK:   -5.51 KCAL/MOL
REMARK 924 INTRA-LIGAND FREE ENERGY PREDICTED BY IDOCK:   -0.26 KCAL/MOL
REMARK 927      BINDING AFFINITY PREDICTED BY RF-SCORE:    0.00 PKD
ROOT
HETATM    1  O   UNL     1     -11.604  10.871  67.485  1.00  0.00    -0.526 OA 
HETATM    2  C   UNL     1     -10.863  11.496  66.541  1.00  0.00    -0.288 C  
HETATM    3  C   UNL     1     -10.940  13.012  66.539  1.00  0.00    -0.285 C  
HETATM    4  O   UNL     1     -10.164  10.869  65.753  1.00  0.00    -0.244 OA 
ENDROOT
BRANCH   3   5
HETATM    5  S   UNL     1     -12.131  13.622  67.788  1.00  0.00    -0.196 SA 
HETATM    6  C   UNL     1     -11.095  14.794  68.749  1.00  0.00    -0.265 C  
HETATM    7  S   UNL     1     -10.595  16.180  67.652  1.00  0.00    -0.315 SA 
HETATM    8  S   UNL     1     -12.127  15.462  70.119  1.00  0.00    -0.381 SA 
BRANCH   7   9
HETATM    9  C   UNL     1      -9.562  17.172  68.795  1.00  0.00    -0.269 C  
HETATM   10  O   UNL     1      -7.975  17.041  66.957  1.00  0.00    -0.180 OA 
HETATM   11  O   UNL     1      -7.379  18.188  68.800  1.00  0.00    -0.274 OA 
HETATM   12  C   UNL     1      -8.209  17.519  68.201  1.00  0.00    -0.251 C  
ENDBRANCH   7   9
BRANCH   8  13
HETATM   13  C   UNL     1     -12.474  13.935  71.072  1.00  0.00    -0.377 C  
HETATM   14  C   UNL     1     -13.713  14.070  71.938  1.00  0.00    -0.444 C  
HETATM   15  O   UNL     1     -14.386  15.236  71.819  1.00  0.00    -0.513 OA 
HETATM   16  O   UNL     1     -14.094  13.178  72.683  1.00  0.00    -0.701 OA 
ENDBRANCH   8  13
ENDBRANCH   3   5
TORSDOF 3
ENDMDL
MODEL       38
REMARK 921   NORMALIZED FREE ENERGY PREDICTED BY IDOCK:   -4.67 KCAL/MOL
REMARK 922        TOTAL FREE ENERGY PREDICTED BY IDOCK:   -5.75 KCAL/MOL
REMARK 923 INTER-LIGAND FREE ENERGY PREDICTED BY IDOCK:   -5.43 KCAL/MOL
REMARK 924 INTRA-LIGAND FREE ENERGY PREDICTED BY IDOCK:   -0.32 KCAL/MOL
REMARK 927      BINDING AFFINITY PREDICTED BY RF-SCORE:    0.00 PKD
ROOT
HETATM    1  O   UNL     1     -13.281  14.959  70.413  1.00  0.00    -0.248 OA 
HETATM    2  C   UNL     1     -12.415  15.640  71.196  1.00  0.00    -0.448 C  
HETATM    3  C   UNL     1     -10.984  15.708  70.694  1.00  0.00    -0.340 C  
HETATM    4  O   UNL     1     -12.776  16.178  72.237  1.00  0.00    -0.438 OA 
ENDROOT
BRANCH   3   5
HETATM    5  S   UNL     1     -10.769  14.735  69.158  1.00  0.00    -0.257 SA 
HETATM    6  C   UNL     1     -10.205  16.024  67.978  1.00  0.00    -0.245 C  
HETATM    7  S   UNL     1      -8.574  16.663  68.532  1.00  0.00    -0.242 SA 
HETATM    8  S   UNL     1     -10.004  15.227  66.331  1.00  0.00    -0.294 SA 
BRANCH   7   9
HETATM    9  C   UNL     1      -8.245  17.932  67.251  1.00  0.00    -0.217 C  
HETATM   10  O   UNL     1      -6.515  16.355  66.595  1.00  0.00    -0.277 OA 
HETATM   11  O   UNL     1      -6.741  18.248  65.398  1.00  0.00    -0.447 OA 
HETATM   12  C   UNL     1      -7.106  17.542  66.327  1.00  0.00    -0.305 C  
ENDBRANCH   7   9
BRANCH   8  13
HETATM   13  C   UNL     1     -11.726  14.703  65.983  1.00  0.00    -0.306 C  
HETATM   14  C   UNL     1     -11.786  13.551  64.997  1.00  0.00    -0.334 C  
HETATM   15  O   UNL     1     -10.591  13.060  64.598  1.00  0.00    -0.334 OA 
HETATM   16  O   UNL     1     -12.843  13.080  64.600  1.00  0.00    -0.700 OA 
ENDBRANCH   8  13
ENDBRANCH   3   5
TORSDOF 3
ENDMDL
MODEL       39
REMARK 921   NORMALIZED FREE ENERGY PREDICTED BY IDOCK:   -4.65 KCAL/MOL
REMARK 922        TOTAL FREE ENERGY PREDICTED BY IDOCK:   -5.72 KCAL/MOL
REMARK 923 INTER-LIGAND FREE ENERGY PREDICTED BY IDOCK:   -5.43 KCAL/MOL
REMARK 924 INTRA-LIGAND FREE ENERGY PREDICTED BY IDOCK:   -0.29 KCAL/MOL
REMARK 927      BINDING AFFINITY PREDICTED BY RF-SCORE:    0.00 PKD
ROOT
HETATM    1  O   UNL     1     -10.620  17.982  66.913  1.00  0.00    -0.348 OA 
HETATM    2  C   UNL     1     -10.146  17.722  68.153  1.00  0.00    -0.362 C  
HETATM    3  C   UNL     1     -10.184  16.266  68.581  1.00  0.00    -0.254 C  
HETATM    4  O   UNL     1      -9.703  18.611  68.871  1.00  0.00    -0.359 OA 
ENDROOT
BRANCH   3   5
HETATM    5  S   UNL     1     -10.977  15.216  67.309  1.00  0.00    -0.329 SA 
HETATM    6  C   UNL     1     -11.036  13.588  68.155  1.00  0.00    -0.257 C  
HETATM    7  S   UNL     1     -12.142  13.719  69.617  1.00  0.00    -0.314 SA 
HETATM    8  S   UNL     1     -11.752  12.369  66.977  1.00  0.00    -0.301 SA 
BRANCH   7   9
HETATM    9  C   UNL     1     -12.012  12.025  70.304  1.00  0.00    -0.314 C  
HETATM   10  O   UNL     1     -13.694  12.870  71.843  1.00  0.00    -0.351 OA 
HETATM   11  O   UNL     1     -13.017  10.735  72.072  1.00  0.00    -0.463 OA 
HETATM   12  C   UNL     1     -12.943  11.804  71.482  1.00  0.00    -0.341 C  
ENDBRANCH   7   9
BRANCH   8  13
HETATM   13  C   UNL     1     -10.492  12.389  65.645  1.00  0.00    -0.261 C  
HETATM   14  C   UNL     1     -11.109  12.604  64.275  1.00  0.00    -0.362 C  
HETATM   15  O   UNL     1     -12.445  12.811  64.262  1.00  0.00    -0.529 OA 
HETATM   16  O   UNL     1     -10.445  12.609  63.248  1.00  0.00    -0.286 OA 
ENDBRANCH   8  13
ENDBRANCH   3   5
TORSDOF 3
ENDMDL
MODEL       40
REMARK 921   NORMALIZED FREE ENERGY PREDICTED BY IDOCK:   -4.64 KCAL/MOL
REMARK 922        TOTAL FREE ENERGY PREDICTED BY IDOCK:   -5.71 KCAL/MOL
REMARK 923 INTER-LIGAND FREE ENERGY PREDICTED BY IDOCK:   -5.38 KCAL/MOL
REMARK 924 INTRA-LIGAND FREE ENERGY PREDICTED BY IDOCK:   -0.33 KCAL/MOL
REMARK 927      BINDING AFFINITY PREDICTED BY RF-SCORE:    0.00 PKD
ROOT
HETATM    1  O   UNL     1     -10.470  17.535  65.388  1.00  0.00    -0.647 OA 
HETATM    2  C   UNL     1      -9.480  17.786  66.275  1.00  0.00    -0.217 C  
HETATM    3  C   UNL     1      -9.471  16.915  67.517  1.00  0.00    -0.241 C  
HETATM    4  O   UNL     1      -8.640  18.654  66.070  1.00  0.00    -0.488 OA 
ENDROOT
BRANCH   3   5
HETATM    5  S   UNL     1     -10.906  15.779  67.548  1.00  0.00    -0.293 SA 
HETATM    6  C   UNL     1     -10.141  14.200  67.004  1.00  0.00    -0.261 C  
HETATM    7  S   UNL     1      -8.914  13.671  68.265  1.00  0.00    -0.168 SA 
HETATM    8  S   UNL     1     -11.475  12.937  66.905  1.00  0.00    -0.361 SA 
BRANCH   7   9
HETATM    9  C   UNL     1      -8.272  12.134  67.501  1.00  0.00    -0.167 C  
HETATM   10  O   UNL     1      -6.280  13.497  67.210  1.00  0.00    -0.313 OA 
HETATM   11  O   UNL     1      -6.226  11.363  66.493  1.00  0.00    -0.142 OA 
HETATM   12  C   UNL     1      -6.841  12.280  67.019  1.00  0.00    -0.031 C  
ENDBRANCH   7   9
BRANCH   8  13
HETATM   13  C   UNL     1     -12.539  13.654  65.596  1.00  0.00    -0.484 C  
HETATM   14  C   UNL     1     -12.020  13.346  64.203  1.00  0.00    -0.450 C  
HETATM   15  O   UNL     1     -10.926  12.554  64.149  1.00  0.00    -0.326 OA 
HETATM   16  O   UNL     1     -12.563  13.768  63.191  1.00  0.00    -0.793 OA 
ENDBRANCH   8  13
ENDBRANCH   3   5
TORSDOF 3
ENDMDL
MODEL       41
REMARK 921   NORMALIZED FREE ENERGY PREDICTED BY IDOCK:   -4.62 KCAL/MOL
REMARK 922        TOTAL FREE ENERGY PREDICTED BY IDOCK:   -5.69 KCAL/MOL
REMARK 923 INTER-LIGAND FREE ENERGY PREDICTED BY IDOCK:   -5.32 KCAL/MOL
REMARK 924 INTRA-LIGAND FREE ENERGY PREDICTED BY IDOCK:   -0.37 KCAL/MOL
REMARK 927      BINDING AFFINITY PREDICTED BY RF-SCORE:    0.00 PKD
ROOT
HETATM    1  O   UNL     1     -11.149  10.150  68.177  1.00  0.00    -0.266 OA 
HETATM    2  C   UNL     1     -10.330  10.587  69.160  1.00  0.00    -0.220 C  
HETATM    3  C   UNL     1      -9.215  11.520  68.724  1.00  0.00    -0.067 C  
HETATM    4  O   UNL     1     -10.495  10.256  70.329  1.00  0.00    -0.265 OA 
ENDROOT
BRANCH   3   5
HETATM    5  S   UNL     1      -9.204  11.743  66.907  1.00  0.00    -0.194 SA 
HETATM    6  C   UNL     1     -10.220  13.260  66.713  1.00  0.00    -0.254 C  
HETATM    7  S   UNL     1      -9.344  14.666  67.508  1.00  0.00    -0.200 SA 
HETATM    8  S   UNL     1     -10.379  13.601  64.911  1.00  0.00    -0.359 SA 
BRANCH   7   9
HETATM    9  C   UNL     1     -10.541  16.025  67.226  1.00  0.00    -0.313 C  
HETATM   10  O   UNL     1      -8.700  16.941  65.928  1.00  0.00    -0.516 OA 
HETATM   11  O   UNL     1     -10.620  18.111  66.027  1.00  0.00    -0.390 OA 
HETATM   12  C   UNL     1      -9.974  17.123  66.345  1.00  0.00    -0.306 C  
ENDBRANCH   7   9
BRANCH   8  13
HETATM   13  C   UNL     1     -11.286  12.108  64.352  1.00  0.00    -0.341 C  
HETATM   14  C   UNL     1     -12.541  12.459  63.575  1.00  0.00    -0.425 C  
HETATM   15  O   UNL     1     -12.749  13.778  63.363  1.00  0.00    -0.795 OA 
HETATM   16  O   UNL     1     -13.310  11.607  63.149  1.00  0.00    -0.410 OA 
ENDBRANCH   8  13
ENDBRANCH   3   5
TORSDOF 3
ENDMDL
MODEL       42
REMARK 921   NORMALIZED FREE ENERGY PREDICTED BY IDOCK:   -4.62 KCAL/MOL
REMARK 922        TOTAL FREE ENERGY PREDICTED BY IDOCK:   -5.69 KCAL/MOL
REMARK 923 INTER-LIGAND FREE ENERGY PREDICTED BY IDOCK:   -5.31 KCAL/MOL
REMARK 924 INTRA-LIGAND FREE ENERGY PREDICTED BY IDOCK:   -0.38 KCAL/MOL
REMARK 927      BINDING AFFINITY PREDICTED BY RF-SCORE:    0.00 PKD
ROOT
HETATM    1  O   UNL     1     -11.810  14.864  72.931  1.00  0.00    -0.279 OA 
HETATM    2  C   UNL     1     -13.005  15.313  72.485  1.00  0.00    -0.393 C  
HETATM    3  C   UNL     1     -13.400  14.861  71.091  1.00  0.00    -0.418 C  
HETATM    4  O   UNL     1     -13.723  16.026  73.177  1.00  0.00    -0.597 OA 
ENDROOT
BRANCH   3   5
HETATM    5  S   UNL     1     -12.072  13.876  70.306  1.00  0.00    -0.358 SA 
HETATM    6  C   UNL     1     -11.697  14.879  68.814  1.00  0.00    -0.325 C  
HETATM    7  S   UNL     1     -11.022  16.503  69.346  1.00  0.00    -0.239 SA 
HETATM    8  S   UNL     1     -10.409  13.988  67.849  1.00  0.00    -0.243 SA 
BRANCH   7   9
HETATM    9  C   UNL     1     -10.768  17.321  67.726  1.00  0.00    -0.333 C  
HETATM   10  O   UNL     1      -9.984  19.142  69.134  1.00  0.00    -0.400 OA 
HETATM   11  O   UNL     1      -9.942  19.427  66.902  1.00  0.00    -0.324 OA 
HETATM   12  C   UNL     1     -10.197  18.720  67.866  1.00  0.00    -0.396 C  
ENDBRANCH   7   9
BRANCH   8  13
HETATM   13  C   UNL     1     -11.302  12.446  67.415  1.00  0.00    -0.321 C  
HETATM   14  C   UNL     1     -10.572  11.206  67.900  1.00  0.00    -0.198 C  
HETATM   15  O   UNL     1      -9.448  11.431  68.615  1.00  0.00    -0.192 OA 
HETATM   16  O   UNL     1     -10.980  10.075  67.676  1.00  0.00    -0.290 OA 
ENDBRANCH   8  13
ENDBRANCH   3   5
TORSDOF 3
ENDMDL
MODEL       43
REMARK 921   NORMALIZED FREE ENERGY PREDICTED BY IDOCK:   -4.61 KCAL/MOL
REMARK 922        TOTAL FREE ENERGY PREDICTED BY IDOCK:   -5.68 KCAL/MOL
REMARK 923 INTER-LIGAND FREE ENERGY PREDICTED BY IDOCK:   -5.41 KCAL/MOL
REMARK 924 INTRA-LIGAND FREE ENERGY PREDICTED BY IDOCK:   -0.27 KCAL/MOL
REMARK 927      BINDING AFFINITY PREDICTED BY RF-SCORE:    0.00 PKD
ROOT
HETATM    1  O   UNL     1      -9.353  11.315  62.796  1.00  0.00    -0.345 OA 
HETATM    2  C   UNL     1      -9.361  10.228  63.602  1.00  0.00    -0.296 C  
HETATM    3  C   UNL     1      -9.825  10.467  65.027  1.00  0.00    -0.306 C  
HETATM    4  O   UNL     1      -9.028   9.123  63.192  1.00  0.00    -0.162 OA 
ENDROOT
BRANCH   3   5
HETATM    5  S   UNL     1     -10.171  12.240  65.328  1.00  0.00    -0.276 SA 
HETATM    6  C   UNL     1     -11.427  12.151  66.665  1.00  0.00    -0.365 C  
HETATM    7  S   UNL     1     -10.652  11.415  68.159  1.00  0.00    -0.200 SA 
HETATM    8  S   UNL     1     -11.953  13.871  67.054  1.00  0.00    -0.412 SA 
BRANCH   7   9
HETATM    9  C   UNL     1     -12.074  11.394  69.314  1.00  0.00    -0.289 C  
HETATM   10  O   UNL     1     -10.558  10.038  70.645  1.00  0.00    -0.295 OA 
HETATM   11  O   UNL     1     -12.601  10.481  71.479  1.00  0.00    -0.382 OA 
HETATM   12  C   UNL     1     -11.785  10.603  70.576  1.00  0.00    -0.356 C  
ENDBRANCH   7   9
BRANCH   8  13
HETATM   13  C   UNL     1     -12.703  14.376  65.459  1.00  0.00    -0.293 C  
HETATM   14  C   UNL     1     -11.900  15.464  64.768  1.00  0.00    -0.169 C  
HETATM   15  O   UNL     1     -10.754  15.827  65.386  1.00  0.00    -0.368 OA 
HETATM   16  O   UNL     1     -12.253  15.969  63.711  1.00  0.00    -0.895 OA 
ENDBRANCH   8  13
ENDBRANCH   3   5
TORSDOF 3
ENDMDL
MODEL       44
REMARK 921   NORMALIZED FREE ENERGY PREDICTED BY IDOCK:   -4.61 KCAL/MOL
REMARK 922        TOTAL FREE ENERGY PREDICTED BY IDOCK:   -5.67 KCAL/MOL
REMARK 923 INTER-LIGAND FREE ENERGY PREDICTED BY IDOCK:   -5.32 KCAL/MOL
REMARK 924 INTRA-LIGAND FREE ENERGY PREDICTED BY IDOCK:   -0.36 KCAL/MOL
REMARK 927      BINDING AFFINITY PREDICTED BY RF-SCORE:    0.00 PKD
ROOT
HETATM    1  O   UNL     1     -11.239  10.223  70.954  1.00  0.00    -0.336 OA 
HETATM    2  C   UNL     1     -12.024  11.258  70.578  1.00  0.00    -0.371 C  
HETATM    3  C   UNL     1     -11.746  11.828  69.199  1.00  0.00    -0.325 C  
HETATM    4  O   UNL     1     -12.909  11.691  71.306  1.00  0.00    -0.391 OA 
ENDROOT
BRANCH   3   5
HETATM    5  S   UNL     1     -10.310  11.008  68.413  1.00  0.00    -0.193 SA 
HETATM    6  C   UNL     1     -10.558  11.439  66.645  1.00  0.00    -0.258 C  
HETATM    7  S   UNL     1     -10.405  13.260  66.452  1.00  0.00    -0.291 SA 
HETATM    8  S   UNL     1      -9.221  10.624  65.678  1.00  0.00    -0.207 SA 
BRANCH   7   9
HETATM    9  C   UNL     1     -10.722  13.446  64.657  1.00  0.00    -0.411 C  
HETATM   10  O   UNL     1     -12.970  13.946  65.436  1.00  0.00    -0.722 OA 
HETATM   11  O   UNL     1     -12.571  14.009  63.221  1.00  0.00    -0.801 OA 
HETATM   12  C   UNL     1     -12.161  13.824  64.358  1.00  0.00    -0.436 C  
ENDBRANCH   7   9
BRANCH   8  13
HETATM   13  C   UNL     1      -9.588   8.856  65.996  1.00  0.00    -0.250 C  
HETATM   14  C   UNL     1      -8.450   8.156  66.717  1.00  0.00    -0.123 C  
HETATM   15  O   UNL     1      -7.406   8.942  67.063  1.00  0.00    -0.082 OA 
HETATM   16  O   UNL     1      -8.478   6.963  66.987  1.00  0.00    -0.119 OA 
ENDBRANCH   8  13
ENDBRANCH   3   5
TORSDOF 3
ENDMDL
MODEL       45
REMARK 921   NORMALIZED FREE ENERGY PREDICTED BY IDOCK:   -4.60 KCAL/MOL
REMARK 922        TOTAL FREE ENERGY PREDICTED BY IDOCK:   -5.67 KCAL/MOL
REMARK 923 INTER-LIGAND FREE ENERGY PREDICTED BY IDOCK:   -5.21 KCAL/MOL
REMARK 924 INTRA-LIGAND FREE ENERGY PREDICTED BY IDOCK:   -0.45 KCAL/MOL
REMARK 927      BINDING AFFINITY PREDICTED BY RF-SCORE:    0.00 PKD
ROOT
HETATM    1  O   UNL     1     -13.262  12.475  64.656  1.00  0.00    -0.848 OA 
HETATM    2  C   UNL     1     -12.280  13.194  64.066  1.00  0.00    -0.414 C  
HETATM    3  C   UNL     1     -10.866  12.869  64.510  1.00  0.00    -0.363 C  
HETATM    4  O   UNL     1     -12.528  14.042  63.216  1.00  0.00    -0.795 OA 
ENDROOT
BRANCH   3   5
HETATM    5  S   UNL     1     -10.857  11.617  65.845  1.00  0.00    -0.271 SA 
HETATM    6  C   UNL     1     -10.209  12.589  67.262  1.00  0.00    -0.216 C  
HETATM    7  S   UNL     1     -11.414  13.914  67.673  1.00  0.00    -0.345 SA 
HETATM    8  S   UNL     1     -10.061  11.452  68.701  1.00  0.00    -0.193 SA 
BRANCH   7   9
HETATM    9  C   UNL     1     -10.550  14.753  69.054  1.00  0.00    -0.248 C  
HETATM   10  O   UNL     1     -12.664  14.355  70.188  1.00  0.00    -0.334 OA 
HETATM   11  O   UNL     1     -11.018  15.380  71.332  1.00  0.00    -0.331 OA 
HETATM   12  C   UNL     1     -11.416  14.865  70.296  1.00  0.00    -0.271 C  
ENDBRANCH   7   9
BRANCH   8  13
HETATM   13  C   UNL     1      -8.816  10.260  68.079  1.00  0.00    -0.122 C  
HETATM   14  C   UNL     1      -9.351   8.839  68.042  1.00  0.00    -0.142 C  
HETATM   15  O   UNL     1     -10.647   8.694  68.397  1.00  0.00    -0.197 OA 
HETATM   16  O   UNL     1      -8.664   7.888  67.696  1.00  0.00    -0.126 OA 
ENDBRANCH   8  13
ENDBRANCH   3   5
TORSDOF 3
ENDMDL
MODEL       46
REMARK 921   NORMALIZED FREE ENERGY PREDICTED BY IDOCK:   -4.59 KCAL/MOL
REMARK 922        TOTAL FREE ENERGY PREDICTED BY IDOCK:   -5.65 KCAL/MOL
REMARK 923 INTER-LIGAND FREE ENERGY PREDICTED BY IDOCK:   -5.35 KCAL/MOL
REMARK 924 INTRA-LIGAND FREE ENERGY PREDICTED BY IDOCK:   -0.31 KCAL/MOL
REMARK 927      BINDING AFFINITY PREDICTED BY RF-SCORE:    0.00 PKD
ROOT
HETATM    1  O   UNL     1     -11.692  14.908  65.443  1.00  0.00    -0.326 OA 
HETATM    2  C   UNL     1     -12.148  13.898  64.667  1.00  0.00    -0.431 C  
HETATM    3  C   UNL     1     -12.172  12.527  65.317  1.00  0.00    -0.433 C  
HETATM    4  O   UNL     1     -12.529  14.092  63.519  1.00  0.00    -0.817 OA 
ENDROOT
BRANCH   3   5
HETATM    5  S   UNL     1     -11.462  12.574  67.003  1.00  0.00    -0.374 SA 
HETATM    6  C   UNL     1     -11.272  10.786  67.376  1.00  0.00    -0.241 C  
HETATM    7  S   UNL     1     -10.044  10.066  66.215  1.00  0.00    -0.226 SA 
HETATM    8  S   UNL     1     -10.624  10.638  69.093  1.00  0.00    -0.240 SA 
BRANCH   7   9
HETATM    9  C   UNL     1     -10.053   8.312  66.743  1.00  0.00    -0.303 C  
HETATM   10  O   UNL     1      -7.731   8.798  67.277  1.00  0.00    -0.095 OA 
HETATM   11  O   UNL     1      -8.511   6.729  67.701  1.00  0.00    -0.121 OA 
HETATM   12  C   UNL     1      -8.708   7.862  67.284  1.00  0.00    -0.131 C  
ENDBRANCH   7   9
BRANCH   8  13
HETATM   13  C   UNL     1     -12.000  11.381  70.050  1.00  0.00    -0.363 C  
HETATM   14  C   UNL     1     -12.349  10.564  71.281  1.00  0.00    -0.397 C  
HETATM   15  O   UNL     1     -11.565   9.486  71.508  1.00  0.00    -0.357 OA 
HETATM   16  O   UNL     1     -13.266  10.866  72.032  1.00  0.00    -0.492 OA 
ENDBRANCH   8  13
ENDBRANCH   3   5
TORSDOF 3
ENDMDL
MODEL       47
REMARK 921   NORMALIZED FREE ENERGY PREDICTED BY IDOCK:   -4.59 KCAL/MOL
REMARK 922        TOTAL FREE ENERGY PREDICTED BY IDOCK:   -5.65 KCAL/MOL
REMARK 923 INTER-LIGAND FREE ENERGY PREDICTED BY IDOCK:   -5.33 KCAL/MOL
REMARK 924 INTRA-LIGAND FREE ENERGY PREDICTED BY IDOCK:   -0.32 KCAL/MOL
REMARK 927      BINDING AFFINITY PREDICTED BY RF-SCORE:    0.00 PKD
ROOT
HETATM    1  O   UNL     1     -10.557  10.048  68.141  1.00  0.00    -0.198 OA 
HETATM    2  C   UNL     1      -9.584  10.489  68.971  1.00  0.00    -0.202 C  
HETATM    3  C   UNL     1      -8.929  11.800  68.579  1.00  0.00    -0.132 C  
HETATM    4  O   UNL     1      -9.271   9.869  69.980  1.00  0.00    -0.226 OA 
ENDROOT
BRANCH   3   5
HETATM    5  S   UNL     1      -9.573  12.418  66.981  1.00  0.00    -0.216 SA 
HETATM    6  C   UNL     1     -11.020  13.411  67.523  1.00  0.00    -0.267 C  
HETATM    7  S   UNL     1     -10.423  14.827  68.531  1.00  0.00    -0.257 SA 
HETATM    8  S   UNL     1     -11.848  14.063  66.015  1.00  0.00    -0.406 SA 
BRANCH   7   9
HETATM    9  C   UNL     1     -12.010  15.627  68.979  1.00  0.00    -0.304 C  
HETATM   10  O   UNL     1     -11.699  14.357  71.028  1.00  0.00    -0.290 OA 
HETATM   11  O   UNL     1     -13.521  15.668  70.853  1.00  0.00    -0.569 OA 
HETATM   12  C   UNL     1     -12.489  15.231  70.362  1.00  0.00    -0.381 C  
ENDBRANCH   7   9
BRANCH   8  13
HETATM   13  C   UNL     1     -12.369  12.505  65.201  1.00  0.00    -0.429 C  
HETATM   14  C   UNL     1     -12.772  12.722  63.753  1.00  0.00    -0.180 C  
HETATM   15  O   UNL     1     -12.620  13.981  63.286  1.00  0.00    -0.801 OA 
HETATM   16  O   UNL     1     -13.190  11.816  63.045  1.00  0.00    -0.474 OA 
ENDBRANCH   8  13
ENDBRANCH   3   5
TORSDOF 3
ENDMDL
MODEL       48
REMARK 921   NORMALIZED FREE ENERGY PREDICTED BY IDOCK:   -4.59 KCAL/MOL
REMARK 922        TOTAL FREE ENERGY PREDICTED BY IDOCK:   -5.65 KCAL/MOL
REMARK 923 INTER-LIGAND FREE ENERGY PREDICTED BY IDOCK:   -5.42 KCAL/MOL
REMARK 924 INTRA-LIGAND FREE ENERGY PREDICTED BY IDOCK:   -0.22 KCAL/MOL
REMARK 927      BINDING AFFINITY PREDICTED BY RF-SCORE:    0.00 PKD
ROOT
HETATM    1  O   UNL     1      -6.165  13.605  67.236  1.00  0.00    -0.313 OA 
HETATM    2  C   UNL     1      -6.702  12.372  67.090  1.00  0.00    -0.081 C  
HETATM    3  C   UNL     1      -8.154  12.231  67.508  1.00  0.00    -0.170 C  
HETATM    4  O   UNL     1      -6.052  11.438  66.634  1.00  0.00    -0.130 OA 
ENDROOT
BRANCH   3   5
HETATM    5  S   UNL     1      -8.799  13.790  68.219  1.00  0.00    -0.172 SA 
HETATM    6  C   UNL     1     -10.069  14.266  66.981  1.00  0.00    -0.260 C  
HETATM    7  S   UNL     1     -11.399  12.998  66.980  1.00  0.00    -0.317 SA 
HETATM    8  S   UNL     1     -10.786  15.878  67.504  1.00  0.00    -0.306 SA 
BRANCH   7   9
HETATM    9  C   UNL     1     -12.502  13.653  65.671  1.00  0.00    -0.496 C  
HETATM   10  O   UNL     1     -10.755  12.786  64.218  1.00  0.00    -0.345 OA 
HETATM   11  O   UNL     1     -12.546  13.765  63.266  1.00  0.00    -0.830 OA 
HETATM   12  C   UNL     1     -11.952  13.415  64.277  1.00  0.00    -0.430 C  
ENDBRANCH   7   9
BRANCH   8  13
HETATM   13  C   UNL     1      -9.312  16.964  67.405  1.00  0.00    -0.235 C  
HETATM   14  C   UNL     1      -9.375  17.909  66.219  1.00  0.00    -0.197 C  
HETATM   15  O   UNL     1     -10.508  17.850  65.485  1.00  0.00    -0.650 OA 
HETATM   16  O   UNL     1      -8.470  18.687  65.950  1.00  0.00    -0.491 OA 
ENDBRANCH   8  13
ENDBRANCH   3   5
TORSDOF 3
ENDMDL
MODEL       49
REMARK 921   NORMALIZED FREE ENERGY PREDICTED BY IDOCK:   -4.56 KCAL/MOL
REMARK 922        TOTAL FREE ENERGY PREDICTED BY IDOCK:   -5.61 KCAL/MOL
REMARK 923 INTER-LIGAND FREE ENERGY PREDICTED BY IDOCK:   -5.36 KCAL/MOL
REMARK 924 INTRA-LIGAND FREE ENERGY PREDICTED BY IDOCK:   -0.25 KCAL/MOL
REMARK 927      BINDING AFFINITY PREDICTED BY RF-SCORE:    0.00 PKD
ROOT
HETATM    1  O   UNL     1      -8.300   7.200  65.785  1.00  0.00    -0.132 OA 
HETATM    2  C   UNL     1      -9.294   6.731  66.573  1.00  0.00    -0.161 C  
HETATM    3  C   UNL     1     -10.307   7.761  67.040  1.00  0.00    -0.334 C  
HETATM    4  O   UNL     1      -9.372   5.545  66.872  1.00  0.00    -0.122 OA 
ENDROOT
BRANCH   3   5
HETATM    5  S   UNL     1      -9.853   9.444  66.482  1.00  0.00    -0.278 SA 
HETATM    6  C   UNL     1     -11.030  10.482  67.437  1.00  0.00    -0.288 C  
HETATM    7  S   UNL     1     -10.654  10.308  69.228  1.00  0.00    -0.246 SA 
HETATM    8  S   UNL     1     -10.762  12.234  66.941  1.00  0.00    -0.240 SA 
BRANCH   7   9
HETATM    9  C   UNL     1     -11.950  11.376  69.960  1.00  0.00    -0.363 C  
HETATM   10  O   UNL     1     -11.869   9.709  71.728  1.00  0.00    -0.386 OA 
HETATM   11  O   UNL     1     -13.294  11.436  71.957  1.00  0.00    -0.467 OA 
HETATM   12  C   UNL     1     -12.440  10.858  71.300  1.00  0.00    -0.388 C  
ENDBRANCH   7   9
BRANCH   8  13
HETATM   13  C   UNL     1     -11.214  12.167  65.166  1.00  0.00    -0.329 C  
HETATM   14  C   UNL     1     -12.305  13.162  64.815  1.00  0.00    -0.423 C  
HETATM   15  O   UNL     1     -12.710  13.966  65.823  1.00  0.00    -0.504 OA 
HETATM   16  O   UNL     1     -12.779  13.248  63.690  1.00  0.00    -0.704 OA 
ENDBRANCH   8  13
ENDBRANCH   3   5
TORSDOF 3
ENDMDL
MODEL       50
REMARK 921   NORMALIZED FREE ENERGY PREDICTED BY IDOCK:   -4.56 KCAL/MOL
REMARK 922        TOTAL FREE ENERGY PREDICTED BY IDOCK:   -5.61 KCAL/MOL
REMARK 923 INTER-LIGAND FREE ENERGY PREDICTED BY IDOCK:   -5.27 KCAL/MOL
REMARK 924 INTRA-LIGAND FREE ENERGY PREDICTED BY IDOCK:   -0.34 KCAL/MOL
REMARK 927      BINDING AFFINITY PREDICTED BY RF-SCORE:    0.00 PKD
ROOT
HETATM    1  O   UNL     1     -11.386  14.936  71.706  1.00  0.00    -0.313 OA 
HETATM    2  C   UNL     1     -12.343  15.345  70.843  1.00  0.00    -0.398 C  
HETATM    3  C   UNL     1     -11.950  15.355  69.377  1.00  0.00    -0.327 C  
HETATM    4  O   UNL     1     -13.460  15.671  71.229  1.00  0.00    -0.512 OA 
ENDROOT
BRANCH   3   5
HETATM    5  S   UNL     1     -10.193  14.891  69.154  1.00  0.00    -0.224 SA 
HETATM    6  C   UNL     1     -10.227  14.090  67.502  1.00  0.00    -0.244 C  
HETATM    7  S   UNL     1     -10.693  15.346  66.244  1.00  0.00    -0.303 SA 
HETATM    8  S   UNL     1      -8.527  13.486  67.137  1.00  0.00    -0.123 SA 
BRANCH   7   9
HETATM    9  C   UNL     1     -10.698  14.327  64.721  1.00  0.00    -0.416 C  
HETATM   10  O   UNL     1     -13.078  14.200  65.204  1.00  0.00    -0.757 OA 
HETATM   11  O   UNL     1     -12.305  13.149  63.369  1.00  0.00    -0.705 OA 
HETATM   12  C   UNL     1     -12.087  13.833  64.359  1.00  0.00    -0.436 C  
ENDBRANCH   7   9
BRANCH   8  13
HETATM   13  C   UNL     1      -8.300  12.254  68.477  1.00  0.00    -0.084 C  
HETATM   14  C   UNL     1      -8.822  10.883  68.088  1.00  0.00    -0.137 C  
HETATM   15  O   UNL     1      -9.294  10.773  66.827  1.00  0.00    -0.158 OA 
HETATM   16  O   UNL     1      -8.802   9.931  68.856  1.00  0.00    -0.131 OA 
ENDBRANCH   8  13
ENDBRANCH   3   5
TORSDOF 3
ENDMDL
MODEL       51
REMARK 921   NORMALIZED FREE ENERGY PREDICTED BY IDOCK:   -4.55 KCAL/MOL
REMARK 922        TOTAL FREE ENERGY PREDICTED BY IDOCK:   -5.60 KCAL/MOL
REMARK 923 INTER-LIGAND FREE ENERGY PREDICTED BY IDOCK:   -5.34 KCAL/MOL
REMARK 924 INTRA-LIGAND FREE ENERGY PREDICTED BY IDOCK:   -0.27 KCAL/MOL
REMARK 927      BINDING AFFINITY PREDICTED BY RF-SCORE:    0.00 PKD
ROOT
HETATM    1  O   UNL     1     -10.062   8.845  66.220  1.00  0.00    -0.293 OA 
HETATM    2  C   UNL     1      -9.043   9.556  65.687  1.00  0.00    -0.201 C  
HETATM    3  C   UNL     1      -9.162  11.065  65.797  1.00  0.00    -0.205 C  
HETATM    4  O   UNL     1      -8.080   9.006  65.164  1.00  0.00    -0.116 OA 
ENDROOT
BRANCH   3   5
HETATM    5  S   UNL     1     -10.753  11.555  66.559  1.00  0.00    -0.281 SA 
HETATM    6  C   UNL     1     -10.485  13.347  66.860  1.00  0.00    -0.273 C  
HETATM    7  S   UNL     1     -10.293  14.197  65.242  1.00  0.00    -0.394 SA 
HETATM    8  S   UNL     1     -11.983  14.004  67.702  1.00  0.00    -0.318 SA 
BRANCH   7   9
HETATM    9  C   UNL     1     -10.004  15.922  65.789  1.00  0.00    -0.360 C  
HETATM   10  O   UNL     1     -11.642  16.401  64.057  1.00  0.00    -1.071 OA 
HETATM   11  O   UNL     1     -10.806  18.125  65.240  1.00  0.00    -0.628 OA 
HETATM   12  C   UNL     1     -10.842  16.923  65.016  1.00  0.00    -0.064 C  
ENDBRANCH   7   9
BRANCH   8  13
HETATM   13  C   UNL     1     -11.952  13.048  69.266  1.00  0.00    -0.278 C  
HETATM   14  C   UNL     1     -12.204  13.925  70.479  1.00  0.00    -0.373 C  
HETATM   15  O   UNL     1     -12.475  15.223  70.216  1.00  0.00    -0.357 OA 
HETATM   16  O   UNL     1     -12.184  13.488  71.622  1.00  0.00    -0.124 OA 
ENDBRANCH   8  13
ENDBRANCH   3   5
TORSDOF 3
ENDMDL
MODEL       52
REMARK 921   NORMALIZED FREE ENERGY PREDICTED BY IDOCK:   -4.52 KCAL/MOL
REMARK 922        TOTAL FREE ENERGY PREDICTED BY IDOCK:   -5.58 KCAL/MOL
REMARK 923 INTER-LIGAND FREE ENERGY PREDICTED BY IDOCK:   -5.44 KCAL/MOL
REMARK 924 INTRA-LIGAND FREE ENERGY PREDICTED BY IDOCK:   -0.14 KCAL/MOL
REMARK 927      BINDING AFFINITY PREDICTED BY RF-SCORE:    0.00 PKD
ROOT
HETATM    1  O   UNL     1     -12.791  12.820  71.468  1.00  0.00    -0.354 OA 
HETATM    2  C   UNL     1     -13.128  13.946  70.799  1.00  0.00    -0.137 C  
HETATM    3  C   UNL     1     -12.428  14.157  69.469  1.00  0.00    -0.123 C  
HETATM    4  O   UNL     1     -13.958  14.732  71.241  1.00  0.00    -0.408 OA 
ENDROOT
BRANCH   3   5
HETATM    5  S   UNL     1     -11.195  12.843  69.147  1.00  0.00    -0.204 SA 
HETATM    6  C   UNL     1     -11.204  12.766  67.312  1.00  0.00    -0.295 C  
HETATM    7  S   UNL     1     -10.584  14.364  66.649  1.00  0.00    -0.286 SA 
HETATM    8  S   UNL     1     -10.054  11.424  66.802  1.00  0.00    -0.223 SA 
BRANCH   7   9
HETATM    9  C   UNL     1     -10.721  14.067  64.846  1.00  0.00    -0.418 C  
HETATM   10  O   UNL     1     -13.095  14.299  65.316  1.00  0.00    -0.707 OA 
HETATM   11  O   UNL     1     -12.462  13.923  63.188  1.00  0.00    -0.766 OA 
HETATM   12  C   UNL     1     -12.159  14.087  64.362  1.00  0.00    -0.458 C  
ENDBRANCH   7   9
BRANCH   8  13
HETATM   13  C   UNL     1     -10.875   9.960  67.540  1.00  0.00    -0.243 C  
HETATM   14  C   UNL     1     -10.444   8.665  66.875  1.00  0.00    -0.258 C  
HETATM   15  O   UNL     1      -9.497   8.787  65.918  1.00  0.00    -0.235 OA 
HETATM   16  O   UNL     1     -10.907   7.578  67.192  1.00  0.00    -0.324 OA 
ENDBRANCH   8  13
ENDBRANCH   3   5
TORSDOF 3
ENDMDL
MODEL       53
REMARK 921   NORMALIZED FREE ENERGY PREDICTED BY IDOCK:   -4.52 KCAL/MOL
REMARK 922        TOTAL FREE ENERGY PREDICTED BY IDOCK:   -5.57 KCAL/MOL
REMARK 923 INTER-LIGAND FREE ENERGY PREDICTED BY IDOCK:   -5.28 KCAL/MOL
REMARK 924 INTRA-LIGAND FREE ENERGY PREDICTED BY IDOCK:   -0.29 KCAL/MOL
REMARK 927      BINDING AFFINITY PREDICTED BY RF-SCORE:    0.00 PKD
ROOT
HETATM    1  O   UNL     1     -12.150   9.819  71.466  1.00  0.00    -0.363 OA 
HETATM    2  C   UNL     1     -12.418  11.089  71.084  1.00  0.00    -0.397 C  
HETATM    3  C   UNL     1     -11.740  11.551  69.808  1.00  0.00    -0.353 C  
HETATM    4  O   UNL     1     -13.174  11.806  71.728  1.00  0.00    -0.457 OA 
ENDROOT
BRANCH   3   5
HETATM    5  S   UNL     1     -10.619  10.266  69.143  1.00  0.00    -0.246 SA 
HETATM    6  C   UNL     1     -10.924  10.404  67.338  1.00  0.00    -0.270 C  
HETATM    7  S   UNL     1     -10.365  12.058  66.767  1.00  0.00    -0.210 SA 
HETATM    8  S   UNL     1      -9.915   9.113  66.499  1.00  0.00    -0.286 SA 
BRANCH   7   9
HETATM    9  C   UNL     1     -10.797  11.977  64.988  1.00  0.00    -0.304 C  
HETATM   10  O   UNL     1     -12.834  13.051  65.767  1.00  0.00    -0.411 OA 
HETATM   11  O   UNL     1     -12.626  12.630  63.565  1.00  0.00    -0.696 OA 
HETATM   12  C   UNL     1     -12.160  12.576  64.695  1.00  0.00    -0.428 C  
ENDBRANCH   7   9
BRANCH   8  13
HETATM   13  C   UNL     1     -10.656   7.586  67.191  1.00  0.00    -0.345 C  
HETATM   14  C   UNL     1     -10.009   6.332  66.632  1.00  0.00    -0.153 C  
HETATM   15  O   UNL     1      -8.971   6.534  65.791  1.00  0.00    -0.134 OA 
HETATM   16  O   UNL     1     -10.386   5.208  66.934  1.00  0.00    -0.224 OA 
ENDBRANCH   8  13
ENDBRANCH   3   5
TORSDOF 3
ENDMDL
MODEL       54
REMARK 921   NORMALIZED FREE ENERGY PREDICTED BY IDOCK:   -4.51 KCAL/MOL
REMARK 922        TOTAL FREE ENERGY PREDICTED BY IDOCK:   -5.56 KCAL/MOL
REMARK 923 INTER-LIGAND FREE ENERGY PREDICTED BY IDOCK:   -5.19 KCAL/MOL
REMARK 924 INTRA-LIGAND FREE ENERGY PREDICTED BY IDOCK:   -0.37 KCAL/MOL
REMARK 927      BINDING AFFINITY PREDICTED BY RF-SCORE:    0.00 PKD
ROOT
HETATM    1  O   UNL     1     -13.267  12.367  64.539  1.00  0.00    -0.834 OA 
HETATM    2  C   UNL     1     -12.311  12.999  63.821  1.00  0.00    -0.397 C  
HETATM    3  C   UNL     1     -10.885  12.793  64.296  1.00  0.00    -0.390 C  
HETATM    4  O   UNL     1     -12.589  13.679  62.840  1.00  0.00    -0.621 OA 
ENDROOT
BRANCH   3   5
HETATM    5  S   UNL     1     -10.829  11.792  65.828  1.00  0.00    -0.287 SA 
HETATM    6  C   UNL     1     -10.376  13.056  67.081  1.00  0.00    -0.243 C  
HETATM    7  S   UNL     1     -11.736  14.285  67.201  1.00  0.00    -0.418 SA 
HETATM    8  S   UNL     1     -10.202  12.201  68.701  1.00  0.00    -0.125 SA 
BRANCH   7   9
HETATM    9  C   UNL     1     -11.054  15.437  68.453  1.00  0.00    -0.301 C  
HETATM   10  O   UNL     1     -10.640  16.810  66.489  1.00  0.00    -0.287 OA 
HETATM   11  O   UNL     1     -10.053  17.627  68.503  1.00  0.00    -0.333 OA 
HETATM   12  C   UNL     1     -10.535  16.723  67.835  1.00  0.00    -0.335 C  
ENDBRANCH   7   9
BRANCH   8  13
HETATM   13  C   UNL     1      -8.802  11.070  68.351  1.00  0.00    -0.151 C  
HETATM   14  C   UNL     1      -9.189   9.612  68.517  1.00  0.00    -0.137 C  
HETATM   15  O   UNL     1     -10.486   9.382  68.819  1.00  0.00    -0.205 OA 
HETATM   16  O   UNL     1      -8.388   8.699  68.370  1.00  0.00    -0.124 OA 
ENDBRANCH   8  13
ENDBRANCH   3   5
TORSDOF 3
ENDMDL
MODEL       55
REMARK 921   NORMALIZED FREE ENERGY PREDICTED BY IDOCK:   -4.47 KCAL/MOL
REMARK 922        TOTAL FREE ENERGY PREDICTED BY IDOCK:   -5.51 KCAL/MOL
REMARK 923 INTER-LIGAND FREE ENERGY PREDICTED BY IDOCK:   -5.26 KCAL/MOL
REMARK 924 INTRA-LIGAND FREE ENERGY PREDICTED BY IDOCK:   -0.25 KCAL/MOL
REMARK 927      BINDING AFFINITY PREDICTED BY RF-SCORE:    0.00 PKD
ROOT
HETATM    1  O   UNL     1      -9.617   9.722  70.298  1.00  0.00    -0.249 OA 
HETATM    2  C   UNL     1     -10.920  10.076  70.370  1.00  0.00    -0.320 C  
HETATM    3  C   UNL     1     -11.501  10.715  69.122  1.00  0.00    -0.280 C  
HETATM    4  O   UNL     1     -11.586   9.874  71.380  1.00  0.00    -0.374 OA 
ENDROOT
BRANCH   3   5
HETATM    5  S   UNL     1     -10.222  10.943  67.832  1.00  0.00    -0.186 SA 
HETATM    6  C   UNL     1     -11.184  11.752  66.494  1.00  0.00    -0.321 C  
HETATM    7  S   UNL     1     -11.755  13.395  67.086  1.00  0.00    -0.389 SA 
HETATM    8  S   UNL     1     -10.055  11.997  65.061  1.00  0.00    -0.248 SA 
BRANCH   7   9
HETATM    9  C   UNL     1     -12.701  13.979  65.629  1.00  0.00    -0.481 C  
HETATM   10  O   UNL     1     -10.799  15.477  65.401  1.00  0.00    -0.353 OA 
HETATM   11  O   UNL     1     -12.446  15.606  63.872  1.00  0.00    -0.693 OA 
HETATM   12  C   UNL     1     -11.987  15.090  64.881  1.00  0.00    -0.255 C  
ENDBRANCH   7   9
BRANCH   8  13
HETATM   13  C   UNL     1      -9.646  10.260  64.639  1.00  0.00    -0.312 C  
HETATM   14  C   UNL     1      -9.091  10.128  63.232  1.00  0.00    -0.271 C  
HETATM   15  O   UNL     1      -8.925  11.288  62.558  1.00  0.00    -0.327 OA 
HETATM   16  O   UNL     1      -8.795   9.047  62.741  1.00  0.00    -0.200 OA 
ENDBRANCH   8  13
ENDBRANCH   3   5
TORSDOF 3
ENDMDL
MODEL       56
REMARK 921   NORMALIZED FREE ENERGY PREDICTED BY IDOCK:   -4.44 KCAL/MOL
REMARK 922        TOTAL FREE ENERGY PREDICTED BY IDOCK:   -5.47 KCAL/MOL
REMARK 923 INTER-LIGAND FREE ENERGY PREDICTED BY IDOCK:   -5.17 KCAL/MOL
REMARK 924 INTRA-LIGAND FREE ENERGY PREDICTED BY IDOCK:   -0.30 KCAL/MOL
REMARK 927      BINDING AFFINITY PREDICTED BY RF-SCORE:    0.00 PKD
ROOT
HETATM    1  O   UNL     1     -10.001  15.879  69.514  1.00  0.00    -0.255 OA 
HETATM    2  C   UNL     1      -9.846  16.920  68.666  1.00  0.00    -0.270 C  
HETATM    3  C   UNL     1      -9.226  16.588  67.321  1.00  0.00    -0.216 C  
HETATM    4  O   UNL     1     -10.200  18.054  68.968  1.00  0.00    -0.386 OA 
ENDROOT
BRANCH   3   5
HETATM    5  S   UNL     1      -8.741  14.826  67.226  1.00  0.00    -0.222 SA 
HETATM    6  C   UNL     1     -10.313  14.035  66.701  1.00  0.00    -0.278 C  
HETATM    7  S   UNL     1     -10.749  14.641  65.023  1.00  0.00    -0.435 SA 
HETATM    8  S   UNL     1     -10.028  12.219  66.622  1.00  0.00    -0.220 SA 
BRANCH   7   9
HETATM    9  C   UNL     1     -12.334  13.765  64.738  1.00  0.00    -0.386 C  
HETATM   10  O   UNL     1     -10.993  12.540  63.121  1.00  0.00    -0.343 OA 
HETATM   11  O   UNL     1     -13.157  11.970  63.360  1.00  0.00    -0.747 OA 
HETATM   12  C   UNL     1     -12.215  12.679  63.684  1.00  0.00    -0.536 C  
ENDBRANCH   7   9
BRANCH   8  13
HETATM   13  C   UNL     1      -9.642  11.849  68.376  1.00  0.00    -0.196 C  
HETATM   14  C   UNL     1     -10.139  10.477  68.795  1.00  0.00    -0.191 C  
HETATM   15  O   UNL     1     -10.708   9.737  67.817  1.00  0.00    -0.255 OA 
HETATM   16  O   UNL     1     -10.018  10.055  69.937  1.00  0.00    -0.237 OA 
ENDBRANCH   8  13
ENDBRANCH   3   5
TORSDOF 3
ENDMDL
MODEL       57
REMARK 921   NORMALIZED FREE ENERGY PREDICTED BY IDOCK:   -4.41 KCAL/MOL
REMARK 922        TOTAL FREE ENERGY PREDICTED BY IDOCK:   -5.45 KCAL/MOL
REMARK 923 INTER-LIGAND FREE ENERGY PREDICTED BY IDOCK:   -5.15 KCAL/MOL
REMARK 924 INTRA-LIGAND FREE ENERGY PREDICTED BY IDOCK:   -0.29 KCAL/MOL
REMARK 927      BINDING AFFINITY PREDICTED BY RF-SCORE:    0.00 PKD
ROOT
HETATM    1  O   UNL     1      -8.312  18.684  68.256  1.00  0.00    -0.303 OA 
HETATM    2  C   UNL     1      -9.654  18.661  68.087  1.00  0.00    -0.331 C  
HETATM    3  C   UNL     1     -10.247  17.318  67.705  1.00  0.00    -0.333 C  
HETATM    4  O   UNL     1     -10.339  19.664  68.250  1.00  0.00    -0.431 OA 
ENDROOT
BRANCH   3   5
HETATM    5  S   UNL     1      -8.943  16.056  67.464  1.00  0.00    -0.196 SA 
HETATM    6  C   UNL     1      -9.941  14.538  67.192  1.00  0.00    -0.252 C  
HETATM    7  S   UNL     1     -10.901  14.731  65.638  1.00  0.00    -0.359 SA 
HETATM    8  S   UNL     1      -8.774  13.128  67.000  1.00  0.00    -0.150 SA 
BRANCH   7   9
HETATM    9  C   UNL     1     -11.824  13.148  65.602  1.00  0.00    -0.387 C  
HETATM   10  O   UNL     1     -12.569  14.006  63.452  1.00  0.00    -0.845 OA 
HETATM   11  O   UNL     1     -13.313  11.985  64.108  1.00  0.00    -0.725 OA 
HETATM   12  C   UNL     1     -12.638  12.980  64.332  1.00  0.00    -0.285 C  
ENDBRANCH   7   9
BRANCH   8  13
HETATM   13  C   UNL     1      -7.967  13.115  68.646  1.00  0.00    -0.033 C  
HETATM   14  C   UNL     1      -6.492  13.467  68.563  1.00  0.00    -0.090 C  
HETATM   15  O   UNL     1      -6.037  13.794  67.333  1.00  0.00    -0.344 OA 
HETATM   16  O   UNL     1      -5.762  13.474  69.545  1.00  0.00    -0.088 OA 
ENDBRANCH   8  13
ENDBRANCH   3   5
TORSDOF 3
ENDMDL
MODEL       58
REMARK 921   NORMALIZED FREE ENERGY PREDICTED BY IDOCK:   -4.41 KCAL/MOL
REMARK 922        TOTAL FREE ENERGY PREDICTED BY IDOCK:   -5.44 KCAL/MOL
REMARK 923 INTER-LIGAND FREE ENERGY PREDICTED BY IDOCK:   -5.21 KCAL/MOL
REMARK 924 INTRA-LIGAND FREE ENERGY PREDICTED BY IDOCK:   -0.23 KCAL/MOL
REMARK 927      BINDING AFFINITY PREDICTED BY RF-SCORE:    0.00 PKD
ROOT
HETATM    1  O   UNL     1      -6.096  15.426  69.907  1.00  0.00    -0.138 OA 
HETATM    2  C   UNL     1      -6.592  14.267  69.417  1.00  0.00    -0.132 C  
HETATM    3  C   UNL     1      -7.855  14.390  68.584  1.00  0.00    -0.140 C  
HETATM    4  O   UNL     1      -6.040  13.193  69.626  1.00  0.00    -0.107 OA 
ENDROOT
BRANCH   3   5
HETATM    5  S   UNL     1      -8.459  16.118  68.537  1.00  0.00    -0.208 SA 
HETATM    6  C   UNL     1      -9.184  16.212  66.853  1.00  0.00    -0.225 C  
HETATM    7  S   UNL     1     -10.614  15.061  66.758  1.00  0.00    -0.307 SA 
HETATM    8  S   UNL     1      -9.788  17.931  66.598  1.00  0.00    -0.358 SA 
BRANCH   7   9
HETATM    9  C   UNL     1     -11.134  15.296  65.017  1.00  0.00    -0.426 C  
HETATM   10  O   UNL     1     -12.493  13.338  65.499  1.00  0.00    -0.458 OA 
HETATM   11  O   UNL     1     -12.632  14.253  63.447  1.00  0.00    -0.777 OA 
HETATM   12  C   UNL     1     -12.150  14.260  64.571  1.00  0.00    -0.480 C  
ENDBRANCH   7   9
BRANCH   8  13
HETATM   13  C   UNL     1      -8.219  18.873  66.707  1.00  0.00    -0.279 C  
HETATM   14  C   UNL     1      -8.445  20.317  67.114  1.00  0.00    -0.339 C  
HETATM   15  O   UNL     1      -9.724  20.653  67.393  1.00  0.00    -0.457 OA 
HETATM   16  O   UNL     1      -7.530  21.125  67.204  1.00  0.00    -0.380 OA 
ENDBRANCH   8  13
ENDBRANCH   3   5
TORSDOF 3
ENDMDL
MODEL       59
REMARK 921   NORMALIZED FREE ENERGY PREDICTED BY IDOCK:   -4.41 KCAL/MOL
REMARK 922        TOTAL FREE ENERGY PREDICTED BY IDOCK:   -5.44 KCAL/MOL
REMARK 923 INTER-LIGAND FREE ENERGY PREDICTED BY IDOCK:   -5.01 KCAL/MOL
REMARK 924 INTRA-LIGAND FREE ENERGY PREDICTED BY IDOCK:   -0.43 KCAL/MOL
REMARK 927      BINDING AFFINITY PREDICTED BY RF-SCORE:    0.00 PKD
ROOT
HETATM    1  O   UNL     1     -11.413  16.127  69.023  1.00  0.00    -0.347 OA 
HETATM    2  C   UNL     1     -11.559  15.259  70.049  1.00  0.00    -0.305 C  
HETATM    3  C   UNL     1     -11.834  13.818  69.660  1.00  0.00    -0.333 C  
HETATM    4  O   UNL     1     -11.459  15.621  71.216  1.00  0.00    -0.343 OA 
ENDROOT
BRANCH   3   5
HETATM    5  S   UNL     1     -12.001  13.636  67.846  1.00  0.00    -0.299 SA 
HETATM    6  C   UNL     1     -10.281  13.225  67.354  1.00  0.00    -0.229 C  
HETATM    7  S   UNL     1      -9.825  11.605  68.092  1.00  0.00    -0.195 SA 
HETATM    8  S   UNL     1     -10.244  13.074  65.520  1.00  0.00    -0.267 SA 
BRANCH   7   9
HETATM    9  C   UNL     1      -8.097  11.431  67.508  1.00  0.00    -0.127 C  
HETATM   10  O   UNL     1      -9.027   9.513  66.339  1.00  0.00    -0.145 OA 
HETATM   11  O   UNL     1      -6.839   9.969  66.066  1.00  0.00    -0.093 OA 
HETATM   12  C   UNL     1      -7.916  10.247  66.576  1.00  0.00    -0.118 C  
ENDBRANCH   7   9
BRANCH   8  13
HETATM   13  C   UNL     1     -10.696  14.779  65.020  1.00  0.00    -0.433 C  
HETATM   14  C   UNL     1     -11.983  14.817  64.216  1.00  0.00    -0.368 C  
HETATM   15  O   UNL     1     -12.612  13.631  64.061  1.00  0.00    -0.672 OA 
HETATM   16  O   UNL     1     -12.437  15.854  63.752  1.00  0.00    -0.735 OA 
ENDBRANCH   8  13
ENDBRANCH   3   5
TORSDOF 3
ENDMDL
MODEL       60
REMARK 921   NORMALIZED FREE ENERGY PREDICTED BY IDOCK:   -4.41 KCAL/MOL
REMARK 922        TOTAL FREE ENERGY PREDICTED BY IDOCK:   -5.44 KCAL/MOL
REMARK 923 INTER-LIGAND FREE ENERGY PREDICTED BY IDOCK:   -5.17 KCAL/MOL
REMARK 924 INTRA-LIGAND FREE ENERGY PREDICTED BY IDOCK:   -0.26 KCAL/MOL
REMARK 927      BINDING AFFINITY PREDICTED BY RF-SCORE:    0.00 PKD
ROOT
HETATM    1  O   UNL     1     -11.094   9.960  67.961  1.00  0.00    -0.249 OA 
HETATM    2  C   UNL     1     -10.274  10.516  68.881  1.00  0.00    -0.208 C  
HETATM    3  C   UNL     1      -9.570  11.790  68.452  1.00  0.00    -0.191 C  
HETATM    4  O   UNL     1     -10.127  10.022  69.993  1.00  0.00    -0.248 OA 
ENDROOT
BRANCH   3   5
HETATM    5  S   UNL     1      -9.945  12.206  66.709  1.00  0.00    -0.206 SA 
HETATM    6  C   UNL     1     -10.167  14.027  66.802  1.00  0.00    -0.264 C  
HETATM    7  S   UNL     1      -8.569  14.795  67.284  1.00  0.00    -0.224 SA 
HETATM    8  S   UNL     1     -10.629  14.621  65.123  1.00  0.00    -0.441 SA 
BRANCH   7   9
HETATM    9  C   UNL     1      -9.039  16.565  67.348  1.00  0.00    -0.204 C  
HETATM   10  O   UNL     1      -7.444  16.588  69.183  1.00  0.00    -0.226 OA 
HETATM   11  O   UNL     1      -8.464  18.518  68.633  1.00  0.00    -0.326 OA 
HETATM   12  C   UNL     1      -8.301  17.322  68.437  1.00  0.00    -0.261 C  
ENDBRANCH   7   9
BRANCH   8  13
HETATM   13  C   UNL     1     -12.229  13.761  64.876  1.00  0.00    -0.415 C  
HETATM   14  C   UNL     1     -12.143  12.687  63.806  1.00  0.00    -0.522 C  
HETATM   15  O   UNL     1     -10.918  12.493  63.270  1.00  0.00    -0.425 OA 
HETATM   16  O   UNL     1     -13.112  12.025  63.461  1.00  0.00    -0.764 OA 
ENDBRANCH   8  13
ENDBRANCH   3   5
TORSDOF 3
ENDMDL
MODEL       61
REMARK 921   NORMALIZED FREE ENERGY PREDICTED BY IDOCK:   -4.40 KCAL/MOL
REMARK 922        TOTAL FREE ENERGY PREDICTED BY IDOCK:   -5.43 KCAL/MOL
REMARK 923 INTER-LIGAND FREE ENERGY PREDICTED BY IDOCK:   -5.05 KCAL/MOL
REMARK 924 INTRA-LIGAND FREE ENERGY PREDICTED BY IDOCK:   -0.38 KCAL/MOL
REMARK 927      BINDING AFFINITY PREDICTED BY RF-SCORE:    0.00 PKD
ROOT
HETATM    1  O   UNL     1      -6.835  11.783  66.946  1.00  0.00    -0.142 OA 
HETATM    2  C   UNL     1      -7.176  12.137  68.206  1.00  0.00    -0.095 C  
HETATM    3  C   UNL     1      -8.576  12.700  68.376  1.00  0.00    -0.122 C  
HETATM    4  O   UNL     1      -6.402  11.995  69.145  1.00  0.00    -0.078 OA 
ENDROOT
BRANCH   3   5
HETATM    5  S   UNL     1      -9.435  12.852  66.767  1.00  0.00    -0.248 SA 
HETATM    6  C   UNL     1      -9.993  14.601  66.808  1.00  0.00    -0.261 C  
HETATM    7  S   UNL     1      -8.516  15.694  66.820  1.00  0.00    -0.288 SA 
HETATM    8  S   UNL     1     -10.955  14.919  65.272  1.00  0.00    -0.405 SA 
BRANCH   7   9
HETATM    9  C   UNL     1      -9.307  17.346  66.900  1.00  0.00    -0.263 C  
HETATM   10  O   UNL     1      -7.304  18.005  65.690  1.00  0.00    -0.532 OA 
HETATM   11  O   UNL     1      -8.838  19.586  66.154  1.00  0.00    -0.356 OA 
HETATM   12  C   UNL     1      -8.477  18.420  66.222  1.00  0.00    -0.196 C  
ENDBRANCH   7   9
BRANCH   8  13
HETATM   13  C   UNL     1     -12.359  13.760  65.493  1.00  0.00    -0.475 C  
HETATM   14  C   UNL     1     -12.502  12.804  64.323  1.00  0.00    -0.382 C  
HETATM   15  O   UNL     1     -11.556  12.908  63.363  1.00  0.00    -0.498 OA 
HETATM   16  O   UNL     1     -13.402  11.978  64.255  1.00  0.00    -0.709 OA 
ENDBRANCH   8  13
ENDBRANCH   3   5
TORSDOF 3
ENDMDL
MODEL       62
REMARK 921   NORMALIZED FREE ENERGY PREDICTED BY IDOCK:   -4.39 KCAL/MOL
REMARK 922        TOTAL FREE ENERGY PREDICTED BY IDOCK:   -5.41 KCAL/MOL
REMARK 923 INTER-LIGAND FREE ENERGY PREDICTED BY IDOCK:   -5.06 KCAL/MOL
REMARK 924 INTRA-LIGAND FREE ENERGY PREDICTED BY IDOCK:   -0.36 KCAL/MOL
REMARK 927      BINDING AFFINITY PREDICTED BY RF-SCORE:    0.00 PKD
ROOT
HETATM    1  O   UNL     1     -11.552   9.250  71.550  1.00  0.00    -0.329 OA 
HETATM    2  C   UNL     1     -10.816   9.241  70.415  1.00  0.00    -0.254 C  
HETATM    3  C   UNL     1     -10.821  10.532  69.616  1.00  0.00    -0.274 C  
HETATM    4  O   UNL     1     -10.178   8.253  70.070  1.00  0.00    -0.194 OA 
ENDROOT
BRANCH   3   5
HETATM    5  S   UNL     1     -11.935  11.777  70.365  1.00  0.00    -0.255 SA 
HETATM    6  C   UNL     1     -11.497  13.286  69.415  1.00  0.00    -0.263 C  
HETATM    7  S   UNL     1     -11.958  13.032  67.654  1.00  0.00    -0.230 SA 
HETATM    8  S   UNL     1     -12.487  14.681  70.093  1.00  0.00    -0.286 SA 
BRANCH   7   9
HETATM    9  C   UNL     1     -11.403  14.616  66.918  1.00  0.00    -0.356 C  
HETATM   10  O   UNL     1      -9.452  13.287  66.335  1.00  0.00    -0.258 OA 
HETATM   11  O   UNL     1      -9.498  15.447  65.702  1.00  0.00    -0.318 OA 
HETATM   12  C   UNL     1     -10.039  14.504  66.262  1.00  0.00    -0.295 C  
ENDBRANCH   7   9
BRANCH   8  13
HETATM   13  C   UNL     1     -11.850  14.760  71.810  1.00  0.00    -0.303 C  
HETATM   14  C   UNL     1     -12.940  14.516  72.837  1.00  0.00    -0.488 C  
HETATM   15  O   UNL     1     -14.160  14.217  72.336  1.00  0.00    -0.524 OA 
HETATM   16  O   UNL     1     -12.732  14.566  74.042  1.00  0.00    -0.431 OA 
ENDBRANCH   8  13
ENDBRANCH   3   5
TORSDOF 3
ENDMDL
MODEL       63
REMARK 921   NORMALIZED FREE ENERGY PREDICTED BY IDOCK:   -4.37 KCAL/MOL
REMARK 922        TOTAL FREE ENERGY PREDICTED BY IDOCK:   -5.39 KCAL/MOL
REMARK 923 INTER-LIGAND FREE ENERGY PREDICTED BY IDOCK:   -5.11 KCAL/MOL
REMARK 924 INTRA-LIGAND FREE ENERGY PREDICTED BY IDOCK:   -0.28 KCAL/MOL
REMARK 927      BINDING AFFINITY PREDICTED BY RF-SCORE:    0.00 PKD
ROOT
HETATM    1  O   UNL     1     -10.307  18.403  65.741  1.00  0.00    -0.588 OA 
HETATM    2  C   UNL     1      -9.365  18.920  66.562  1.00  0.00    -0.335 C  
HETATM    3  C   UNL     1      -9.182  18.204  67.888  1.00  0.00    -0.269 C  
HETATM    4  O   UNL     1      -8.697  19.895  66.239  1.00  0.00    -0.352 OA 
ENDROOT
BRANCH   3   5
HETATM    5  S   UNL     1     -10.390  16.843  68.085  1.00  0.00    -0.354 SA 
HETATM    6  C   UNL     1      -9.369  15.377  67.661  1.00  0.00    -0.203 C  
HETATM    7  S   UNL     1      -8.037  15.200  68.914  1.00  0.00    -0.192 SA 
HETATM    8  S   UNL     1     -10.458  13.895  67.737  1.00  0.00    -0.245 SA 
BRANCH   7   9
HETATM    9  C   UNL     1      -7.150  13.730  68.272  1.00  0.00    -0.109 C  
HETATM   10  O   UNL     1      -6.064  13.840  70.445  1.00  0.00    -0.158 OA 
HETATM   11  O   UNL     1      -5.469  12.186  69.039  1.00  0.00    -0.054 OA 
HETATM   12  C   UNL     1      -6.152  13.173  69.271  1.00  0.00    -0.098 C  
ENDBRANCH   7   9
BRANCH   8  13
HETATM   13  C   UNL     1     -11.665  14.279  66.412  1.00  0.00    -0.391 C  
HETATM   14  C   UNL     1     -12.250  13.025  65.789  1.00  0.00    -0.453 C  
HETATM   15  O   UNL     1     -11.854  11.858  66.342  1.00  0.00    -0.561 OA 
HETATM   16  O   UNL     1     -13.044  13.063  64.859  1.00  0.00    -0.745 OA 
ENDBRANCH   8  13
ENDBRANCH   3   5
TORSDOF 3
ENDMDL
MODEL       64
REMARK 921   NORMALIZED FREE ENERGY PREDICTED BY IDOCK:   -4.35 KCAL/MOL
REMARK 922        TOTAL FREE ENERGY PREDICTED BY IDOCK:   -5.37 KCAL/MOL
REMARK 923 INTER-LIGAND FREE ENERGY PREDICTED BY IDOCK:   -4.97 KCAL/MOL
REMARK 924 INTRA-LIGAND FREE ENERGY PREDICTED BY IDOCK:   -0.40 KCAL/MOL
REMARK 927      BINDING AFFINITY PREDICTED BY RF-SCORE:    0.00 PKD
ROOT
HETATM    1  O   UNL     1     -11.644  12.188  64.294  1.00  0.00    -0.338 OA 
HETATM    2  C   UNL     1     -11.915  13.469  63.956  1.00  0.00    -0.449 C  
HETATM    3  C   UNL     1     -11.070  14.525  64.644  1.00  0.00    -0.346 C  
HETATM    4  O   UNL     1     -12.780  13.747  63.133  1.00  0.00    -0.743 OA 
ENDROOT
BRANCH   3   5
HETATM    5  S   UNL     1      -9.933  13.778  65.869  1.00  0.00    -0.267 SA 
HETATM    6  C   UNL     1     -10.157  14.891  67.312  1.00  0.00    -0.235 C  
HETATM    7  S   UNL     1     -11.888  14.742  67.912  1.00  0.00    -0.227 SA 
HETATM    8  S   UNL     1      -9.017  14.324  68.640  1.00  0.00    -0.109 SA 
BRANCH   7   9
HETATM    9  C   UNL     1     -11.880  15.945  69.294  1.00  0.00    -0.318 C  
HETATM   10  O   UNL     1     -12.822  14.062  70.510  1.00  0.00    -0.310 OA 
HETATM   11  O   UNL     1     -12.481  15.987  71.625  1.00  0.00    -0.461 OA 
HETATM   12  C   UNL     1     -12.417  15.351  70.583  1.00  0.00    -0.428 C  
ENDBRANCH   7   9
BRANCH   8  13
HETATM   13  C   UNL     1      -7.389  14.583  67.837  1.00  0.00    -0.156 C  
HETATM   14  C   UNL     1      -6.629  13.283  67.649  1.00  0.00    -0.167 C  
HETATM   15  O   UNL     1      -7.284  12.163  68.028  1.00  0.00    -0.083 OA 
HETATM   16  O   UNL     1      -5.504  13.242  67.169  1.00  0.00    -0.328 OA 
ENDBRANCH   8  13
ENDBRANCH   3   5
TORSDOF 3
ENDMDL
MODEL       65
REMARK 921   NORMALIZED FREE ENERGY PREDICTED BY IDOCK:   -4.34 KCAL/MOL
REMARK 922        TOTAL FREE ENERGY PREDICTED BY IDOCK:   -5.36 KCAL/MOL
REMARK 923 INTER-LIGAND FREE ENERGY PREDICTED BY IDOCK:   -5.03 KCAL/MOL
REMARK 924 INTRA-LIGAND FREE ENERGY PREDICTED BY IDOCK:   -0.33 KCAL/MOL
REMARK 927      BINDING AFFINITY PREDICTED BY RF-SCORE:    0.00 PKD
ROOT
HETATM    1  O   UNL     1     -12.176   8.473  72.475  1.00  0.00    -0.389 OA 
HETATM    2  C   UNL     1     -13.300   9.127  72.104  1.00  0.00    -0.463 C  
HETATM    3  C   UNL     1     -13.139  10.129  70.976  1.00  0.00    -0.375 C  
HETATM    4  O   UNL     1     -14.379   8.905  72.641  1.00  0.00    -0.613 OA 
ENDROOT
BRANCH   3   5
HETATM    5  S   UNL     1     -11.389  10.274  70.457  1.00  0.00    -0.348 SA 
HETATM    6  C   UNL     1     -11.474  11.652  69.246  1.00  0.00    -0.300 C  
HETATM    7  S   UNL     1     -11.981  13.184  70.125  1.00  0.00    -0.248 SA 
HETATM    8  S   UNL     1      -9.786  11.895  68.554  1.00  0.00    -0.143 SA 
BRANCH   7   9
HETATM    9  C   UNL     1     -12.034  14.380  68.738  1.00  0.00    -0.295 C  
HETATM   10  O   UNL     1     -10.595  15.665  70.218  1.00  0.00    -0.316 OA 
HETATM   11  O   UNL     1     -11.106  16.537  68.206  1.00  0.00    -0.355 OA 
HETATM   12  C   UNL     1     -11.212  15.625  69.014  1.00  0.00    -0.306 C  
ENDBRANCH   7   9
BRANCH   8  13
HETATM   13  C   UNL     1      -9.515  10.284  67.722  1.00  0.00    -0.148 C  
HETATM   14  C   UNL     1      -9.913  10.322  66.257  1.00  0.00    -0.235 C  
HETATM   15  O   UNL     1     -10.325  11.523  65.794  1.00  0.00    -0.232 OA 
HETATM   16  O   UNL     1      -9.848   9.338  65.533  1.00  0.00    -0.265 OA 
ENDBRANCH   8  13
ENDBRANCH   3   5
TORSDOF 3
ENDMDL
MODEL       66
REMARK 921   NORMALIZED FREE ENERGY PREDICTED BY IDOCK:   -4.34 KCAL/MOL
REMARK 922        TOTAL FREE ENERGY PREDICTED BY IDOCK:   -5.36 KCAL/MOL
REMARK 923 INTER-LIGAND FREE ENERGY PREDICTED BY IDOCK:   -5.01 KCAL/MOL
REMARK 924 INTRA-LIGAND FREE ENERGY PREDICTED BY IDOCK:   -0.34 KCAL/MOL
REMARK 927      BINDING AFFINITY PREDICTED BY RF-SCORE:    0.00 PKD
ROOT
HETATM    1  O   UNL     1      -9.320  17.659  65.640  1.00  0.00    -0.435 OA 
HETATM    2  C   UNL     1      -8.197  17.171  66.213  1.00  0.00    -0.271 C  
HETATM    3  C   UNL     1      -8.371  15.906  67.033  1.00  0.00    -0.223 C  
HETATM    4  O   UNL     1      -7.109  17.716  66.060  1.00  0.00    -0.289 OA 
ENDROOT
BRANCH   3   5
HETATM    5  S   UNL     1     -10.129  15.405  67.123  1.00  0.00    -0.249 SA 
HETATM    6  C   UNL     1     -10.018  13.601  66.798  1.00  0.00    -0.270 C  
HETATM    7  S   UNL     1      -9.084  12.809  68.168  1.00  0.00    -0.189 SA 
HETATM    8  S   UNL     1     -11.731  12.929  66.779  1.00  0.00    -0.385 SA 
BRANCH   7   9
HETATM    9  C   UNL     1      -9.071  11.062  67.614  1.00  0.00    -0.145 C  
HETATM   10  O   UNL     1     -10.540  10.781  69.530  1.00  0.00    -0.223 OA 
HETATM   11  O   UNL     1     -10.062   8.971  68.281  1.00  0.00    -0.177 OA 
HETATM   12  C   UNL     1      -9.927  10.168  68.492  1.00  0.00    -0.163 C  
ENDBRANCH   7   9
BRANCH   8  13
HETATM   13  C   UNL     1     -12.442  13.827  65.348  1.00  0.00    -0.500 C  
HETATM   14  C   UNL     1     -12.261  13.066  64.047  1.00  0.00    -0.417 C  
HETATM   15  O   UNL     1     -11.683  11.849  64.156  1.00  0.00    -0.363 OA 
HETATM   16  O   UNL     1     -12.629  13.512  62.968  1.00  0.00    -0.716 OA 
ENDBRANCH   8  13
ENDBRANCH   3   5
TORSDOF 3
ENDMDL
MODEL       67
REMARK 921   NORMALIZED FREE ENERGY PREDICTED BY IDOCK:   -4.33 KCAL/MOL
REMARK 922        TOTAL FREE ENERGY PREDICTED BY IDOCK:   -5.35 KCAL/MOL
REMARK 923 INTER-LIGAND FREE ENERGY PREDICTED BY IDOCK:   -4.99 KCAL/MOL
REMARK 924 INTRA-LIGAND FREE ENERGY PREDICTED BY IDOCK:   -0.36 KCAL/MOL
REMARK 927      BINDING AFFINITY PREDICTED BY RF-SCORE:    0.00 PKD
ROOT
HETATM    1  O   UNL     1     -12.732  13.798  63.303  1.00  0.00    -0.783 OA 
HETATM    2  C   UNL     1     -12.529  12.498  63.616  1.00  0.00    -0.470 C  
HETATM    3  C   UNL     1     -11.380  12.220  64.568  1.00  0.00    -0.329 C  
HETATM    4  O   UNL     1     -13.243  11.609  63.165  1.00  0.00    -0.471 OA 
ENDROOT
BRANCH   3   5
HETATM    5  S   UNL     1     -10.473  13.755  64.984  1.00  0.00    -0.405 SA 
HETATM    6  C   UNL     1      -9.891  13.392  66.688  1.00  0.00    -0.278 C  
HETATM    7  S   UNL     1      -8.714  11.982  66.625  1.00  0.00    -0.132 SA 
HETATM    8  S   UNL     1      -9.003  14.880  67.306  1.00  0.00    -0.210 SA 
BRANCH   7   9
HETATM    9  C   UNL     1      -8.313  11.785  68.402  1.00  0.00    -0.153 C  
HETATM   10  O   UNL     1      -6.044  12.122  67.593  1.00  0.00    -0.081 OA 
HETATM   11  O   UNL     1      -6.354  11.820  69.803  1.00  0.00    -0.125 OA 
HETATM   12  C   UNL     1      -6.825  11.907  68.677  1.00  0.00    -0.086 C  
ENDBRANCH   7   9
BRANCH   8  13
HETATM   13  C   UNL     1     -10.356  16.118  67.307  1.00  0.00    -0.287 C  
HETATM   14  C   UNL     1      -9.978  17.379  66.550  1.00  0.00    -0.311 C  
HETATM   15  O   UNL     1      -8.766  17.361  65.952  1.00  0.00    -0.522 OA 
HETATM   16  O   UNL     1     -10.726  18.344  66.468  1.00  0.00    -0.342 OA 
ENDBRANCH   8  13
ENDBRANCH   3   5
TORSDOF 3
ENDMDL
MODEL       68
REMARK 921   NORMALIZED FREE ENERGY PREDICTED BY IDOCK:   -4.31 KCAL/MOL
REMARK 922        TOTAL FREE ENERGY PREDICTED BY IDOCK:   -5.32 KCAL/MOL
REMARK 923 INTER-LIGAND FREE ENERGY PREDICTED BY IDOCK:   -5.01 KCAL/MOL
REMARK 924 INTRA-LIGAND FREE ENERGY PREDICTED BY IDOCK:   -0.32 KCAL/MOL
REMARK 927      BINDING AFFINITY PREDICTED BY RF-SCORE:    0.00 PKD
ROOT
HETATM    1  O   UNL     1      -6.132  14.573  67.433  1.00  0.00    -0.340 OA 
HETATM    2  C   UNL     1      -7.108  15.446  67.771  1.00  0.00    -0.165 C  
HETATM    3  C   UNL     1      -8.424  14.828  68.205  1.00  0.00    -0.149 C  
HETATM    4  O   UNL     1      -6.925  16.657  67.741  1.00  0.00    -0.127 OA 
ENDROOT
BRANCH   3   5
HETATM    5  S   UNL     1      -8.386  13.003  68.059  1.00  0.00    -0.179 SA 
HETATM    6  C   UNL     1     -10.085  12.643  67.462  1.00  0.00    -0.212 C  
HETATM    7  S   UNL     1     -10.299  13.386  65.796  1.00  0.00    -0.297 SA 
HETATM    8  S   UNL     1     -10.254  10.815  67.324  1.00  0.00    -0.216 SA 
BRANCH   7   9
HETATM    9  C   UNL     1     -12.039  12.939  65.436  1.00  0.00    -0.454 C  
HETATM   10  O   UNL     1     -11.109  12.398  63.256  1.00  0.00    -0.438 OA 
HETATM   11  O   UNL     1     -13.311  12.064  63.588  1.00  0.00    -0.676 OA 
HETATM   12  C   UNL     1     -12.226  12.428  64.019  1.00  0.00    -0.490 C  
ENDBRANCH   7   9
BRANCH   8  13
HETATM   13  C   UNL     1     -10.035  10.311  69.073  1.00  0.00    -0.213 C  
HETATM   14  C   UNL     1     -11.321  10.431  69.870  1.00  0.00    -0.302 C  
HETATM   15  O   UNL     1     -12.411  10.812  69.167  1.00  0.00    -0.400 OA 
HETATM   16  O   UNL     1     -11.378  10.182  71.066  1.00  0.00    -0.347 OA 
ENDBRANCH   8  13
ENDBRANCH   3   5
TORSDOF 3
ENDMDL
MODEL       69
REMARK 921   NORMALIZED FREE ENERGY PREDICTED BY IDOCK:   -4.31 KCAL/MOL
REMARK 922        TOTAL FREE ENERGY PREDICTED BY IDOCK:   -5.32 KCAL/MOL
REMARK 923 INTER-LIGAND FREE ENERGY PREDICTED BY IDOCK:   -5.01 KCAL/MOL
REMARK 924 INTRA-LIGAND FREE ENERGY PREDICTED BY IDOCK:   -0.31 KCAL/MOL
REMARK 927      BINDING AFFINITY PREDICTED BY RF-SCORE:    0.00 PKD
ROOT
HETATM    1  O   UNL     1     -12.825  10.507  71.651  1.00  0.00    -0.412 OA 
HETATM    2  C   UNL     1     -11.690   9.882  71.263  1.00  0.00    -0.392 C  
HETATM    3  C   UNL     1     -10.943  10.528  70.111  1.00  0.00    -0.270 C  
HETATM    4  O   UNL     1     -11.291   8.868  71.824  1.00  0.00    -0.314 OA 
ENDROOT
BRANCH   3   5
HETATM    5  S   UNL     1     -11.849  11.976  69.454  1.00  0.00    -0.307 SA 
HETATM    6  C   UNL     1     -10.816  12.437  68.008  1.00  0.00    -0.221 C  
HETATM    7  S   UNL     1     -10.872  11.071  66.780  1.00  0.00    -0.216 SA 
HETATM    8  S   UNL     1     -11.550  13.946  67.253  1.00  0.00    -0.387 SA 
BRANCH   7   9
HETATM    9  C   UNL     1      -9.763  11.729  65.478  1.00  0.00    -0.224 C  
HETATM   10  O   UNL     1     -11.756  11.474  64.107  1.00  0.00    -0.263 OA 
HETATM   11  O   UNL     1      -9.896  12.299  63.142  1.00  0.00    -0.373 OA 
HETATM   12  C   UNL     1     -10.460  11.864  64.137  1.00  0.00    -0.349 C  
ENDBRANCH   7   9
BRANCH   8  13
HETATM   13  C   UNL     1     -11.363  15.149  68.623  1.00  0.00    -0.310 C  
HETATM   14  C   UNL     1     -10.684  16.430  68.172  1.00  0.00    -0.336 C  
HETATM   15  O   UNL     1     -10.398  16.507  66.854  1.00  0.00    -0.295 OA 
HETATM   16  O   UNL     1     -10.427  17.344  68.944  1.00  0.00    -0.345 OA 
ENDBRANCH   8  13
ENDBRANCH   3   5
TORSDOF 3
ENDMDL
MODEL       70
REMARK 921   NORMALIZED FREE ENERGY PREDICTED BY IDOCK:   -4.29 KCAL/MOL
REMARK 922        TOTAL FREE ENERGY PREDICTED BY IDOCK:   -5.30 KCAL/MOL
REMARK 923 INTER-LIGAND FREE ENERGY PREDICTED BY IDOCK:   -5.04 KCAL/MOL
REMARK 924 INTRA-LIGAND FREE ENERGY PREDICTED BY IDOCK:   -0.26 KCAL/MOL
REMARK 927      BINDING AFFINITY PREDICTED BY RF-SCORE:    0.00 PKD
ROOT
HETATM    1  O   UNL     1      -7.812  12.396  67.221  1.00  0.00    -0.163 OA 
HETATM    2  C   UNL     1      -9.004  11.951  66.764  1.00  0.00    -0.196 C  
HETATM    3  C   UNL     1     -10.047  13.019  66.491  1.00  0.00    -0.270 C  
HETATM    4  O   UNL     1      -9.213  10.758  66.570  1.00  0.00    -0.163 OA 
ENDROOT
BRANCH   3   5
HETATM    5  S   UNL     1      -9.440  14.680  66.962  1.00  0.00    -0.251 SA 
HETATM    6  C   UNL     1     -10.857  15.332  67.931  1.00  0.00    -0.288 C  
HETATM    7  S   UNL     1     -11.064  14.306  69.441  1.00  0.00    -0.216 SA 
HETATM    8  S   UNL     1     -10.446  17.054  68.435  1.00  0.00    -0.386 SA 
BRANCH   7   9
HETATM    9  C   UNL     1     -12.525  15.106  70.207  1.00  0.00    -0.342 C  
HETATM   10  O   UNL     1     -12.765  12.924  71.253  1.00  0.00    -0.367 OA 
HETATM   11  O   UNL     1     -14.267  14.522  71.763  1.00  0.00    -0.439 OA 
HETATM   12  C   UNL     1     -13.271  14.174  71.143  1.00  0.00    -0.301 C  
ENDBRANCH   7   9
BRANCH   8  13
HETATM   13  C   UNL     1     -10.316  17.875  66.800  1.00  0.00    -0.355 C  
HETATM   14  C   UNL     1     -10.258  19.387  66.921  1.00  0.00    -0.410 C  
HETATM   15  O   UNL     1     -10.240  19.872  68.182  1.00  0.00    -0.425 OA 
HETATM   16  O   UNL     1     -10.212  20.122  65.945  1.00  0.00    -0.464 OA 
ENDBRANCH   8  13
ENDBRANCH   3   5
TORSDOF 3
ENDMDL
MODEL       71
REMARK 921   NORMALIZED FREE ENERGY PREDICTED BY IDOCK:   -4.27 KCAL/MOL
REMARK 922        TOTAL FREE ENERGY PREDICTED BY IDOCK:   -5.27 KCAL/MOL
REMARK 923 INTER-LIGAND FREE ENERGY PREDICTED BY IDOCK:   -4.99 KCAL/MOL
REMARK 924 INTRA-LIGAND FREE ENERGY PREDICTED BY IDOCK:   -0.28 KCAL/MOL
REMARK 927      BINDING AFFINITY PREDICTED BY RF-SCORE:    0.00 PKD
ROOT
HETATM    1  O   UNL     1     -11.894  15.158  68.402  1.00  0.00    -0.328 OA 
HETATM    2  C   UNL     1     -11.774  14.471  67.244  1.00  0.00    -0.406 C  
HETATM    3  C   UNL     1     -11.666  12.963  67.379  1.00  0.00    -0.372 C  
HETATM    4  O   UNL     1     -11.769  15.038  66.157  1.00  0.00    -0.242 OA 
ENDROOT
BRANCH   3   5
HETATM    5  S   UNL     1     -11.623  12.452  69.137  1.00  0.00    -0.327 SA 
HETATM    6  C   UNL     1     -11.079  10.703  69.002  1.00  0.00    -0.254 C  
HETATM    7  S   UNL     1      -9.377  10.664  68.311  1.00  0.00    -0.162 SA 
HETATM    8  S   UNL     1     -11.048   9.994  70.700  1.00  0.00    -0.329 SA 
BRANCH   7   9
HETATM    9  C   UNL     1      -9.075   8.858  68.235  1.00  0.00    -0.140 C  
HETATM   10  O   UNL     1      -9.812   9.159  65.938  1.00  0.00    -0.286 OA 
HETATM   11  O   UNL     1      -9.217   7.093  66.604  1.00  0.00    -0.148 OA 
HETATM   12  C   UNL     1      -9.369   8.278  66.864  1.00  0.00    -0.176 C  
ENDBRANCH   7   9
BRANCH   8  13
HETATM   13  C   UNL     1     -12.819  10.113  71.161  1.00  0.00    -0.399 C  
HETATM   14  C   UNL     1     -13.215   9.068  72.188  1.00  0.00    -0.446 C  
HETATM   15  O   UNL     1     -12.212   8.284  72.641  1.00  0.00    -0.364 OA 
HETATM   16  O   UNL     1     -14.362   8.952  72.598  1.00  0.00    -0.613 OA 
ENDBRANCH   8  13
ENDBRANCH   3   5
TORSDOF 3
ENDMDL
MODEL       72
REMARK 921   NORMALIZED FREE ENERGY PREDICTED BY IDOCK:   -4.25 KCAL/MOL
REMARK 922        TOTAL FREE ENERGY PREDICTED BY IDOCK:   -5.25 KCAL/MOL
REMARK 923 INTER-LIGAND FREE ENERGY PREDICTED BY IDOCK:   -4.98 KCAL/MOL
REMARK 924 INTRA-LIGAND FREE ENERGY PREDICTED BY IDOCK:   -0.27 KCAL/MOL
REMARK 927      BINDING AFFINITY PREDICTED BY RF-SCORE:    0.00 PKD
ROOT
HETATM    1  O   UNL     1     -12.493  14.145  63.517  1.00  0.00    -0.817 OA 
HETATM    2  C   UNL     1     -12.484  12.825  63.811  1.00  0.00    -0.383 C  
HETATM    3  C   UNL     1     -11.768  12.440  65.093  1.00  0.00    -0.382 C  
HETATM    4  O   UNL     1     -13.035  12.002  63.089  1.00  0.00    -0.662 OA 
ENDROOT
BRANCH   3   5
HETATM    5  S   UNL     1     -10.991  13.895  65.886  1.00  0.00    -0.288 SA 
HETATM    6  C   UNL     1     -10.385  13.178  67.464  1.00  0.00    -0.225 C  
HETATM    7  S   UNL     1      -9.096  11.924  67.089  1.00  0.00    -0.184 SA 
HETATM    8  S   UNL     1      -9.623  14.539  68.442  1.00  0.00    -0.216 SA 
BRANCH   7   9
HETATM    9  C   UNL     1      -8.682  11.335  68.774  1.00  0.00    -0.103 C  
HETATM   10  O   UNL     1     -10.320   9.623  68.227  1.00  0.00    -0.186 OA 
HETATM   11  O   UNL     1      -9.313   9.530  70.238  1.00  0.00    -0.229 OA 
HETATM   12  C   UNL     1      -9.456  10.087  69.159  1.00  0.00    -0.207 C  
ENDBRANCH   7   9
BRANCH   8  13
HETATM   13  C   UNL     1     -11.072  15.629  68.712  1.00  0.00    -0.307 C  
HETATM   14  C   UNL     1     -11.993  15.099  69.797  1.00  0.00    -0.334 C  
HETATM   15  O   UNL     1     -11.573  13.977  70.423  1.00  0.00    -0.240 OA 
HETATM   16  O   UNL     1     -13.038  15.657  70.101  1.00  0.00    -0.216 OA 
ENDBRANCH   8  13
ENDBRANCH   3   5
TORSDOF 3
ENDMDL
MODEL       73
REMARK 921   NORMALIZED FREE ENERGY PREDICTED BY IDOCK:   -4.23 KCAL/MOL
REMARK 922        TOTAL FREE ENERGY PREDICTED BY IDOCK:   -5.22 KCAL/MOL
REMARK 923 INTER-LIGAND FREE ENERGY PREDICTED BY IDOCK:   -4.89 KCAL/MOL
REMARK 924 INTRA-LIGAND FREE ENERGY PREDICTED BY IDOCK:   -0.33 KCAL/MOL
REMARK 927      BINDING AFFINITY PREDICTED BY RF-SCORE:    0.00 PKD
ROOT
HETATM    1  O   UNL     1      -8.760   9.477  63.956  1.00  0.00    -0.198 OA 
HETATM    2  C   UNL     1      -8.295   8.737  64.989  1.00  0.00    -0.170 C  
HETATM    3  C   UNL     1      -8.069   9.487  66.288  1.00  0.00    -0.111 C  
HETATM    4  O   UNL     1      -8.088   7.534  64.875  1.00  0.00    -0.131 OA 
ENDROOT
BRANCH   3   5
HETATM    5  S   UNL     1      -8.398  11.277  66.093  1.00  0.00    -0.057 SA 
HETATM    6  C   UNL     1     -10.067  11.432  66.842  1.00  0.00    -0.214 C  
HETATM    7  S   UNL     1      -9.955  11.022  68.630  1.00  0.00    -0.203 SA 
HETATM    8  S   UNL     1     -10.600  13.185  66.667  1.00  0.00    -0.282 SA 
BRANCH   7   9
HETATM    9  C   UNL     1     -11.706  11.204  69.138  1.00  0.00    -0.338 C  
HETATM   10  O   UNL     1     -10.987   9.765  70.962  1.00  0.00    -0.320 OA 
HETATM   11  O   UNL     1     -13.129  10.456  70.931  1.00  0.00    -0.384 OA 
HETATM   12  C   UNL     1     -12.019  10.450  70.418  1.00  0.00    -0.320 C  
ENDBRANCH   7   9
BRANCH   8  13
HETATM   13  C   UNL     1     -10.664  13.349  64.842  1.00  0.00    -0.369 C  
HETATM   14  C   UNL     1     -12.056  13.094  64.293  1.00  0.00    -0.414 C  
HETATM   15  O   UNL     1     -13.016  12.862  65.216  1.00  0.00    -0.703 OA 
HETATM   16  O   UNL     1     -12.304  13.113  63.095  1.00  0.00    -0.677 OA 
ENDBRANCH   8  13
ENDBRANCH   3   5
TORSDOF 3
ENDMDL
MODEL       74
REMARK 921   NORMALIZED FREE ENERGY PREDICTED BY IDOCK:   -4.22 KCAL/MOL
REMARK 922        TOTAL FREE ENERGY PREDICTED BY IDOCK:   -5.22 KCAL/MOL
REMARK 923 INTER-LIGAND FREE ENERGY PREDICTED BY IDOCK:   -4.87 KCAL/MOL
REMARK 924 INTRA-LIGAND FREE ENERGY PREDICTED BY IDOCK:   -0.35 KCAL/MOL
REMARK 927      BINDING AFFINITY PREDICTED BY RF-SCORE:    0.00 PKD
ROOT
HETATM    1  O   UNL     1     -11.231  12.060  63.875  1.00  0.00    -0.350 OA 
HETATM    2  C   UNL     1     -12.236  12.390  64.718  1.00  0.00    -0.423 C  
HETATM    3  C   UNL     1     -11.816  12.792  66.120  1.00  0.00    -0.425 C  
HETATM    4  O   UNL     1     -13.407  12.376  64.357  1.00  0.00    -0.789 OA 
ENDROOT
BRANCH   3   5
HETATM    5  S   UNL     1     -10.007  12.626  66.349  1.00  0.00    -0.259 SA 
HETATM    6  C   UNL     1      -9.912  11.877  68.023  1.00  0.00    -0.190 C  
HETATM    7  S   UNL     1     -10.678  10.208  67.971  1.00  0.00    -0.273 SA 
HETATM    8  S   UNL     1      -8.132  11.701  68.457  1.00  0.00    -0.123 SA 
BRANCH   7   9
HETATM    9  C   UNL     1     -10.503   9.691  69.720  1.00  0.00    -0.238 C  
HETATM   10  O   UNL     1     -12.701  10.715  69.903  1.00  0.00    -0.241 OA 
HETATM   11  O   UNL     1     -11.798   9.792  71.748  1.00  0.00    -0.383 OA 
HETATM   12  C   UNL     1     -11.713  10.062  70.558  1.00  0.00    -0.318 C  
ENDBRANCH   7   9
BRANCH   8  13
HETATM   13  C   UNL     1      -7.601  13.456  68.474  1.00  0.00    -0.127 C  
HETATM   14  C   UNL     1      -6.284  13.663  67.748  1.00  0.00    -0.152 C  
HETATM   15  O   UNL     1      -5.762  12.564  67.159  1.00  0.00    -0.275 OA 
HETATM   16  O   UNL     1      -5.736  14.754  67.680  1.00  0.00    -0.299 OA 
ENDBRANCH   8  13
ENDBRANCH   3   5
TORSDOF 3
ENDMDL
MODEL       75
REMARK 921   NORMALIZED FREE ENERGY PREDICTED BY IDOCK:   -4.22 KCAL/MOL
REMARK 922        TOTAL FREE ENERGY PREDICTED BY IDOCK:   -5.21 KCAL/MOL
REMARK 923 INTER-LIGAND FREE ENERGY PREDICTED BY IDOCK:   -4.89 KCAL/MOL
REMARK 924 INTRA-LIGAND FREE ENERGY PREDICTED BY IDOCK:   -0.32 KCAL/MOL
REMARK 927      BINDING AFFINITY PREDICTED BY RF-SCORE:    0.00 PKD
ROOT
HETATM    1  O   UNL     1      -7.361   9.486  71.021  1.00  0.00    -0.283 OA 
HETATM    2  C   UNL     1      -7.723  10.287  69.993  1.00  0.00    -0.074 C  
HETATM    3  C   UNL     1      -9.116  10.056  69.436  1.00  0.00    -0.215 C  
HETATM    4  O   UNL     1      -6.972  11.151  69.556  1.00  0.00    -0.121 OA 
ENDROOT
BRANCH   3   5
HETATM    5  S   UNL     1      -9.938   8.642  70.259  1.00  0.00    -0.192 SA 
HETATM    6  C   UNL     1     -11.039   9.498  71.454  1.00  0.00    -0.368 C  
HETATM    7  S   UNL     1     -12.286  10.472  70.520  1.00  0.00    -0.363 SA 
HETATM    8  S   UNL     1     -11.908   8.207  72.438  1.00  0.00    -0.367 SA 
BRANCH   7   9
HETATM    9  C   UNL     1     -13.220  11.247  71.892  1.00  0.00    -0.386 C  
HETATM   10  O   UNL     1     -12.482  13.294  70.808  1.00  0.00    -0.353 OA 
HETATM   11  O   UNL     1     -13.766  13.467  72.649  1.00  0.00    -0.687 OA 
HETATM   12  C   UNL     1     -13.190  12.763  71.831  1.00  0.00    -0.412 C  
ENDBRANCH   7   9
BRANCH   8  13
HETATM   13  C   UNL     1     -10.495   7.401  73.283  1.00  0.00    -0.374 C  
HETATM   14  C   UNL     1     -10.651   5.893  73.348  1.00  0.00    -0.258 C  
HETATM   15  O   UNL     1     -11.742   5.391  72.728  1.00  0.00    -0.295 OA 
HETATM   16  O   UNL     1      -9.837   5.172  73.908  1.00  0.00    -0.146 OA 
ENDBRANCH   8  13
ENDBRANCH   3   5
TORSDOF 3
ENDMDL
MODEL       76
REMARK 921   NORMALIZED FREE ENERGY PREDICTED BY IDOCK:   -4.21 KCAL/MOL
REMARK 922        TOTAL FREE ENERGY PREDICTED BY IDOCK:   -5.21 KCAL/MOL
REMARK 923 INTER-LIGAND FREE ENERGY PREDICTED BY IDOCK:   -4.89 KCAL/MOL
REMARK 924 INTRA-LIGAND FREE ENERGY PREDICTED BY IDOCK:   -0.32 KCAL/MOL
REMARK 927      BINDING AFFINITY PREDICTED BY RF-SCORE:    0.00 PKD
ROOT
HETATM    1  O   UNL     1      -9.900  15.920  66.608  1.00  0.00    -0.236 OA 
HETATM    2  C   UNL     1     -10.565  16.133  67.766  1.00  0.00    -0.309 C  
HETATM    3  C   UNL     1     -11.500  15.020  68.204  1.00  0.00    -0.339 C  
HETATM    4  O   UNL     1     -10.403  17.156  68.421  1.00  0.00    -0.318 OA 
ENDROOT
BRANCH   3   5
HETATM    5  S   UNL     1     -11.567  13.677  66.962  1.00  0.00    -0.382 SA 
HETATM    6  C   UNL     1     -10.729  12.307  67.852  1.00  0.00    -0.215 C  
HETATM    7  S   UNL     1     -11.743  11.841  69.312  1.00  0.00    -0.347 SA 
HETATM    8  S   UNL     1     -10.639  10.868  66.708  1.00  0.00    -0.247 SA 
BRANCH   7   9
HETATM    9  C   UNL     1     -10.710  10.517  70.044  1.00  0.00    -0.224 C  
HETATM   10  O   UNL     1     -12.639  10.266  71.503  1.00  0.00    -0.374 OA 
HETATM   11  O   UNL     1     -10.886   8.885  71.807  1.00  0.00    -0.317 OA 
HETATM   12  C   UNL     1     -11.403   9.809  71.194  1.00  0.00    -0.389 C  
ENDBRANCH   7   9
BRANCH   8  13
HETATM   13  C   UNL     1      -9.582  11.548  65.374  1.00  0.00    -0.224 C  
HETATM   14  C   UNL     1     -10.331  11.679  64.060  1.00  0.00    -0.357 C  
HETATM   15  O   UNL     1     -11.641  11.350  64.099  1.00  0.00    -0.240 OA 
HETATM   16  O   UNL     1      -9.794  12.074  63.034  1.00  0.00    -0.372 OA 
ENDBRANCH   8  13
ENDBRANCH   3   5
TORSDOF 3
ENDMDL
MODEL       77
REMARK 921   NORMALIZED FREE ENERGY PREDICTED BY IDOCK:   -4.21 KCAL/MOL
REMARK 922        TOTAL FREE ENERGY PREDICTED BY IDOCK:   -5.20 KCAL/MOL
REMARK 923 INTER-LIGAND FREE ENERGY PREDICTED BY IDOCK:   -4.81 KCAL/MOL
REMARK 924 INTRA-LIGAND FREE ENERGY PREDICTED BY IDOCK:   -0.39 KCAL/MOL
REMARK 927      BINDING AFFINITY PREDICTED BY RF-SCORE:    0.00 PKD
ROOT
HETATM    1  O   UNL     1     -12.376  13.677  70.917  1.00  0.00    -0.351 OA 
HETATM    2  C   UNL     1     -12.321  14.806  70.175  1.00  0.00    -0.330 C  
HETATM    3  C   UNL     1     -11.260  14.831  69.089  1.00  0.00    -0.271 C  
HETATM    4  O   UNL     1     -13.094  15.738  70.365  1.00  0.00    -0.399 OA 
ENDROOT
BRANCH   3   5
HETATM    5  S   UNL     1     -10.229  13.319  69.129  1.00  0.00     0.338 SA 
HETATM    6  C   UNL     1     -10.836  12.416  67.650  1.00  0.00    -0.225 C  
HETATM    7  S   UNL     1     -10.429  13.395  66.150  1.00  0.00    -0.300 SA 
HETATM    8  S   UNL     1      -9.944  10.808  67.570  1.00  0.00    -0.179 SA 
BRANCH   7   9
HETATM    9  C   UNL     1     -11.151  12.337  64.839  1.00  0.00    -0.311 C  
HETATM   10  O   UNL     1     -13.076  13.782  65.185  1.00  0.00    -0.762 OA 
HETATM   11  O   UNL     1     -13.222  12.167  63.623  1.00  0.00    -0.770 OA 
HETATM   12  C   UNL     1     -12.571  12.740  64.485  1.00  0.00    -0.389 C  
ENDBRANCH   7   9
BRANCH   8  13
HETATM   13  C   UNL     1     -10.513  10.015  69.122  1.00  0.00    -0.219 C  
HETATM   14  C   UNL     1      -9.359   9.683  70.052  1.00  0.00    -0.241 C  
HETATM   15  O   UNL     1      -8.137  10.077  69.631  1.00  0.00    -0.143 OA 
HETATM   16  O   UNL     1      -9.521   9.112  71.121  1.00  0.00    -0.261 OA 
ENDBRANCH   8  13
ENDBRANCH   3   5
TORSDOF 3
ENDMDL
MODEL       78
REMARK 921   NORMALIZED FREE ENERGY PREDICTED BY IDOCK:   -4.19 KCAL/MOL
REMARK 922        TOTAL FREE ENERGY PREDICTED BY IDOCK:   -5.18 KCAL/MOL
REMARK 923 INTER-LIGAND FREE ENERGY PREDICTED BY IDOCK:   -4.84 KCAL/MOL
REMARK 924 INTRA-LIGAND FREE ENERGY PREDICTED BY IDOCK:   -0.34 KCAL/MOL
REMARK 927      BINDING AFFINITY PREDICTED BY RF-SCORE:    0.00 PKD
ROOT
HETATM    1  O   UNL     1     -10.715  16.336  67.573  1.00  0.00    -0.316 OA 
HETATM    2  C   UNL     1     -10.019  15.818  68.610  1.00  0.00    -0.208 C  
HETATM    3  C   UNL     1      -9.980  14.302  68.687  1.00  0.00    -0.234 C  
HETATM    4  O   UNL     1      -9.446  16.535  69.421  1.00  0.00    -0.195 OA 
ENDROOT
BRANCH   3   5
HETATM    5  S   UNL     1     -11.002  13.541  67.372  1.00  0.00    -0.277 SA 
HETATM    6  C   UNL     1      -9.890  12.215  66.759  1.00  0.00    -0.206 C  
HETATM    7  S   UNL     1      -9.619  10.997  68.107  1.00  0.00    -0.177 SA 
HETATM    8  S   UNL     1     -10.739  11.374  65.359  1.00  0.00    -0.220 SA 
BRANCH   7   9
HETATM    9  C   UNL     1      -8.476   9.821  67.290  1.00  0.00    -0.125 C  
HETATM   10  O   UNL     1     -10.424   8.368  67.380  1.00  0.00    -0.263 OA 
HETATM   11  O   UNL     1      -8.542   7.571  66.435  1.00  0.00    -0.126 OA 
HETATM   12  C   UNL     1      -9.133   8.486  66.991  1.00  0.00    -0.143 C  
ENDBRANCH   7   9
BRANCH   8  13
HETATM   13  C   UNL     1     -10.874  12.749  64.155  1.00  0.00    -0.406 C  
HETATM   14  C   UNL     1     -12.315  13.155  63.907  1.00  0.00    -0.365 C  
HETATM   15  O   UNL     1     -13.241  12.503  64.646  1.00  0.00    -0.848 OA 
HETATM   16  O   UNL     1     -12.624  14.026  63.105  1.00  0.00    -0.733 OA 
ENDBRANCH   8  13
ENDBRANCH   3   5
TORSDOF 3
ENDMDL
MODEL       79
REMARK 921   NORMALIZED FREE ENERGY PREDICTED BY IDOCK:   -4.18 KCAL/MOL
REMARK 922        TOTAL FREE ENERGY PREDICTED BY IDOCK:   -5.17 KCAL/MOL
REMARK 923 INTER-LIGAND FREE ENERGY PREDICTED BY IDOCK:   -4.87 KCAL/MOL
REMARK 924 INTRA-LIGAND FREE ENERGY PREDICTED BY IDOCK:   -0.30 KCAL/MOL
REMARK 927      BINDING AFFINITY PREDICTED BY RF-SCORE:    0.00 PKD
ROOT
HETATM    1  O   UNL     1      -9.441  17.571  65.712  1.00  0.00    -0.519 OA 
HETATM    2  C   UNL     1      -8.614  17.385  66.765  1.00  0.00    -0.260 C  
HETATM    3  C   UNL     1      -8.647  16.003  67.394  1.00  0.00    -0.178 C  
HETATM    4  O   UNL     1      -7.877  18.277  67.169  1.00  0.00    -0.213 OA 
ENDROOT
BRANCH   3   5
HETATM    5  S   UNL     1      -9.910  14.940  66.604  1.00  0.00    -0.272 SA 
HETATM    6  C   UNL     1     -10.520  13.963  68.034  1.00  0.00    -0.243 C  
HETATM    7  S   UNL     1     -11.335  15.101  69.224  1.00  0.00    -0.324 SA 
HETATM    8  S   UNL     1     -11.770  12.768  67.404  1.00  0.00    -0.348 SA 
BRANCH   7   9
HETATM    9  C   UNL     1     -11.814  13.930  70.551  1.00  0.00    -0.247 C  
HETATM   10  O   UNL     1     -13.359  15.718  71.124  1.00  0.00    -0.564 OA 
HETATM   11  O   UNL     1     -13.391  13.843  72.368  1.00  0.00    -0.445 OA 
HETATM   12  C   UNL     1     -12.920  14.477  71.435  1.00  0.00    -0.333 C  
ENDBRANCH   7   9
BRANCH   8  13
HETATM   13  C   UNL     1     -10.741  11.746  66.282  1.00  0.00    -0.270 C  
HETATM   14  C   UNL     1     -10.313  10.440  66.927  1.00  0.00    -0.240 C  
HETATM   15  O   UNL     1     -10.803  10.212  68.166  1.00  0.00    -0.233 OA 
HETATM   16  O   UNL     1      -9.587   9.635  66.361  1.00  0.00    -0.179 OA 
ENDBRANCH   8  13
ENDBRANCH   3   5
TORSDOF 3
ENDMDL
MODEL       80
REMARK 921   NORMALIZED FREE ENERGY PREDICTED BY IDOCK:   -4.17 KCAL/MOL
REMARK 922        TOTAL FREE ENERGY PREDICTED BY IDOCK:   -5.16 KCAL/MOL
REMARK 923 INTER-LIGAND FREE ENERGY PREDICTED BY IDOCK:   -4.77 KCAL/MOL
REMARK 924 INTRA-LIGAND FREE ENERGY PREDICTED BY IDOCK:   -0.40 KCAL/MOL
REMARK 927      BINDING AFFINITY PREDICTED BY RF-SCORE:    0.00 PKD
ROOT
HETATM    1  O   UNL     1      -9.788  10.138  68.583  1.00  0.00    -0.153 OA 
HETATM    2  C   UNL     1      -8.550  10.270  68.053  1.00  0.00    -0.118 C  
HETATM    3  C   UNL     1      -8.084  11.694  67.813  1.00  0.00    -0.139 C  
HETATM    4  O   UNL     1      -7.852   9.295  67.802  1.00  0.00    -0.092 OA 
ENDROOT
BRANCH   3   5
HETATM    5  S   UNL     1      -9.396  12.904  68.221  1.00  0.00    -0.160 SA 
HETATM    6  C   UNL     1      -9.876  13.507  66.554  1.00  0.00    -0.291 C  
HETATM    7  S   UNL     1     -10.603  12.111  65.605  1.00  0.00    -0.272 SA 
HETATM    8  S   UNL     1     -11.160  14.807  66.777  1.00  0.00    -0.342 SA 
BRANCH   7   9
HETATM    9  C   UNL     1     -10.959  12.928  64.004  1.00  0.00    -0.411 C  
HETATM   10  O   UNL     1     -13.259  12.494  64.664  1.00  0.00    -0.848 OA 
HETATM   11  O   UNL     1     -12.892  13.550  62.710  1.00  0.00    -0.304 OA 
HETATM   12  C   UNL     1     -12.446  13.026  63.721  1.00  0.00    -0.311 C  
ENDBRANCH   7   9
BRANCH   8  13
HETATM   13  C   UNL     1     -10.215  16.075  67.704  1.00  0.00    -0.262 C  
HETATM   14  C   UNL     1      -9.606  17.120  66.787  1.00  0.00    -0.270 C  
HETATM   15  O   UNL     1      -9.907  16.994  65.475  1.00  0.00    -0.551 OA 
HETATM   16  O   UNL     1      -8.903  18.030  67.204  1.00  0.00    -0.240 OA 
ENDBRANCH   8  13
ENDBRANCH   3   5
TORSDOF 3
ENDMDL
MODEL       81
REMARK 921   NORMALIZED FREE ENERGY PREDICTED BY IDOCK:   -4.14 KCAL/MOL
REMARK 922        TOTAL FREE ENERGY PREDICTED BY IDOCK:   -5.12 KCAL/MOL
REMARK 923 INTER-LIGAND FREE ENERGY PREDICTED BY IDOCK:   -4.79 KCAL/MOL
REMARK 924 INTRA-LIGAND FREE ENERGY PREDICTED BY IDOCK:   -0.33 KCAL/MOL
REMARK 927      BINDING AFFINITY PREDICTED BY RF-SCORE:    0.00 PKD
ROOT
HETATM    1  O   UNL     1     -10.650  10.240  65.579  1.00  0.00    -0.142 OA 
HETATM    2  C   UNL     1     -10.348  11.011  64.510  1.00  0.00    -0.354 C  
HETATM    3  C   UNL     1     -10.884  12.430  64.549  1.00  0.00    -0.321 C  
HETATM    4  O   UNL     1      -9.671  10.585  63.581  1.00  0.00    -0.291 OA 
ENDROOT
BRANCH   3   5
HETATM    5  S   UNL     1     -11.919  12.714  66.032  1.00  0.00    -0.367 SA 
HETATM    6  C   UNL     1     -10.806  13.742  67.070  1.00  0.00    -0.284 C  
HETATM    7  S   UNL     1     -10.510  15.342  66.215  1.00  0.00    -0.319 SA 
HETATM    8  S   UNL     1     -11.669  14.070  68.662  1.00  0.00    -0.372 SA 
BRANCH   7   9
HETATM    9  C   UNL     1      -9.370  16.159  67.394  1.00  0.00    -0.217 C  
HETATM   10  O   UNL     1     -11.024  17.936  67.258  1.00  0.00    -0.243 OA 
HETATM   11  O   UNL     1      -9.248  18.235  68.609  1.00  0.00    -0.313 OA 
HETATM   12  C   UNL     1      -9.859  17.533  67.816  1.00  0.00    -0.286 C  
ENDBRANCH   7   9
BRANCH   8  13
HETATM   13  C   UNL     1     -11.828  12.369  69.329  1.00  0.00    -0.304 C  
HETATM   14  C   UNL     1     -12.451  12.353  70.713  1.00  0.00    -0.267 C  
HETATM   15  O   UNL     1     -12.843  13.555  71.192  1.00  0.00    -0.338 OA 
HETATM   16  O   UNL     1     -12.607  11.322  71.352  1.00  0.00    -0.377 OA 
ENDBRANCH   8  13
ENDBRANCH   3   5
TORSDOF 3
ENDMDL
MODEL       82
REMARK 921   NORMALIZED FREE ENERGY PREDICTED BY IDOCK:   -4.14 KCAL/MOL
REMARK 922        TOTAL FREE ENERGY PREDICTED BY IDOCK:   -5.12 KCAL/MOL
REMARK 923 INTER-LIGAND FREE ENERGY PREDICTED BY IDOCK:   -4.72 KCAL/MOL
REMARK 924 INTRA-LIGAND FREE ENERGY PREDICTED BY IDOCK:   -0.40 KCAL/MOL
REMARK 927      BINDING AFFINITY PREDICTED BY RF-SCORE:    0.00 PKD
ROOT
HETATM    1  O   UNL     1      -8.105   8.287  67.926  1.00  0.00    -0.123 OA 
HETATM    2  C   UNL     1      -9.319   7.741  68.163  1.00  0.00    -0.145 C  
HETATM    3  C   UNL     1     -10.461   8.284  67.324  1.00  0.00    -0.303 C  
HETATM    4  O   UNL     1      -9.473   6.853  68.993  1.00  0.00    -0.139 OA 
ENDROOT
BRANCH   3   5
HETATM    5  S   UNL     1      -9.905   9.653  66.244  1.00  0.00    -0.267 SA 
HETATM    6  C   UNL     1     -10.952  11.041  66.834  1.00  0.00    -0.249 C  
HETATM    7  S   UNL     1     -10.509  11.418  68.577  1.00  0.00    -0.210 SA 
HETATM    8  S   UNL     1     -10.572  12.511  65.793  1.00  0.00    -0.278 SA 
BRANCH   7   9
HETATM    9  C   UNL     1     -11.684  12.774  68.948  1.00  0.00    -0.326 C  
HETATM   10  O   UNL     1      -9.647  14.102  68.946  1.00  0.00    -0.163 OA 
HETATM   11  O   UNL     1     -11.603  15.151  69.328  1.00  0.00    -0.287 OA 
HETATM   12  C   UNL     1     -10.992  14.117  69.094  1.00  0.00    -0.251 C  
ENDBRANCH   7   9
BRANCH   8  13
HETATM   13  C   UNL     1     -11.109  11.918  64.143  1.00  0.00    -0.375 C  
HETATM   14  C   UNL     1     -12.572  12.218  63.875  1.00  0.00    -0.440 C  
HETATM   15  O   UNL     1     -13.212  12.918  64.838  1.00  0.00    -0.782 OA 
HETATM   16  O   UNL     1     -13.137  11.869  62.848  1.00  0.00    -0.380 OA 
ENDBRANCH   8  13
ENDBRANCH   3   5
TORSDOF 3
ENDMDL
MODEL       83
REMARK 921   NORMALIZED FREE ENERGY PREDICTED BY IDOCK:   -4.13 KCAL/MOL
REMARK 922        TOTAL FREE ENERGY PREDICTED BY IDOCK:   -5.11 KCAL/MOL
REMARK 923 INTER-LIGAND FREE ENERGY PREDICTED BY IDOCK:   -4.78 KCAL/MOL
REMARK 924 INTRA-LIGAND FREE ENERGY PREDICTED BY IDOCK:   -0.33 KCAL/MOL
REMARK 927      BINDING AFFINITY PREDICTED BY RF-SCORE:    0.00 PKD
ROOT
HETATM    1  O   UNL     1     -11.858  12.247  63.766  1.00  0.00    -0.413 OA 
HETATM    2  C   UNL     1     -12.268  13.511  64.017  1.00  0.00    -0.402 C  
HETATM    3  C   UNL     1     -12.263  13.928  65.476  1.00  0.00    -0.444 C  
HETATM    4  O   UNL     1     -12.604  14.268  63.114  1.00  0.00    -0.615 OA 
ENDROOT
BRANCH   3   5
HETATM    5  S   UNL     1     -11.785  12.538  66.567  1.00  0.00    -0.366 SA 
HETATM    6  C   UNL     1      -9.967  12.770  66.690  1.00  0.00    -0.245 C  
HETATM    7  S   UNL     1      -9.630  14.362  67.543  1.00  0.00    -0.219 SA 
HETATM    8  S   UNL     1      -9.294  11.394  67.710  1.00  0.00    -0.166 SA 
BRANCH   7   9
HETATM    9  C   UNL     1      -7.798  14.391  67.512  1.00  0.00    -0.190 C  
HETATM   10  O   UNL     1      -8.170  16.660  66.721  1.00  0.00    -0.190 OA 
HETATM   11  O   UNL     1      -6.047  15.953  66.970  1.00  0.00    -0.328 OA 
HETATM   12  C   UNL     1      -7.247  15.726  67.047  1.00  0.00    -0.173 C  
ENDBRANCH   7   9
BRANCH   8  13
HETATM   13  C   UNL     1      -9.718   9.947  66.667  1.00  0.00    -0.198 C  
HETATM   14  C   UNL     1     -10.355   8.829  67.472  1.00  0.00    -0.268 C  
HETATM   15  O   UNL     1     -10.569   9.097  68.779  1.00  0.00    -0.218 OA 
HETATM   16  O   UNL     1     -10.675   7.759  66.972  1.00  0.00    -0.347 OA 
ENDBRANCH   8  13
ENDBRANCH   3   5
TORSDOF 3
ENDMDL
MODEL       84
REMARK 921   NORMALIZED FREE ENERGY PREDICTED BY IDOCK:   -4.12 KCAL/MOL
REMARK 922        TOTAL FREE ENERGY PREDICTED BY IDOCK:   -5.10 KCAL/MOL
REMARK 923 INTER-LIGAND FREE ENERGY PREDICTED BY IDOCK:   -4.76 KCAL/MOL
REMARK 924 INTRA-LIGAND FREE ENERGY PREDICTED BY IDOCK:   -0.34 KCAL/MOL
REMARK 927      BINDING AFFINITY PREDICTED BY RF-SCORE:    0.00 PKD
ROOT
HETATM    1  O   UNL     1      -8.468  18.489  68.537  1.00  0.00    -0.322 OA 
HETATM    2  C   UNL     1      -9.723  18.868  68.206  1.00  0.00    -0.361 C  
HETATM    3  C   UNL     1     -10.421  18.004  67.172  1.00  0.00    -0.367 C  
HETATM    4  O   UNL     1     -10.259  19.841  68.725  1.00  0.00    -0.449 OA 
ENDROOT
BRANCH   3   5
HETATM    5  S   UNL     1      -9.315  16.688  66.544  1.00  0.00    -0.283 SA 
HETATM    6  C   UNL     1      -9.778  15.271  67.618  1.00  0.00    -0.208 C  
HETATM    7  S   UNL     1     -11.525  14.816  67.279  1.00  0.00    -0.352 SA 
HETATM    8  S   UNL     1      -8.696  13.852  67.169  1.00  0.00    -0.202 SA 
BRANCH   7   9
HETATM    9  C   UNL     1     -11.763  13.442  68.467  1.00  0.00    -0.357 C  
HETATM   10  O   UNL     1     -11.822  12.120  66.427  1.00  0.00    -0.563 OA 
HETATM   11  O   UNL     1     -12.037  11.050  68.397  1.00  0.00    -0.594 OA 
HETATM   12  C   UNL     1     -11.888  12.095  67.779  1.00  0.00    -0.257 C  
ENDBRANCH   7   9
BRANCH   8  13
HETATM   13  C   UNL     1      -7.045  14.518  67.609  1.00  0.00    -0.183 C  
HETATM   14  C   UNL     1      -6.309  13.623  68.589  1.00  0.00    -0.091 C  
HETATM   15  O   UNL     1      -6.939  12.473  68.919  1.00  0.00    -0.095 OA 
HETATM   16  O   UNL     1      -5.208  13.908  69.041  1.00  0.00    -0.073 OA 
ENDBRANCH   8  13
ENDBRANCH   3   5
TORSDOF 3
ENDMDL
MODEL       85
REMARK 921   NORMALIZED FREE ENERGY PREDICTED BY IDOCK:   -4.11 KCAL/MOL
REMARK 922        TOTAL FREE ENERGY PREDICTED BY IDOCK:   -5.09 KCAL/MOL
REMARK 923 INTER-LIGAND FREE ENERGY PREDICTED BY IDOCK:   -4.72 KCAL/MOL
REMARK 924 INTRA-LIGAND FREE ENERGY PREDICTED BY IDOCK:   -0.37 KCAL/MOL
REMARK 927      BINDING AFFINITY PREDICTED BY RF-SCORE:    0.00 PKD
ROOT
HETATM    1  O   UNL     1      -8.309   6.412  64.854  1.00  0.00    -0.132 OA 
HETATM    2  C   UNL     1      -7.790   7.238  63.917  1.00  0.00    -0.111 C  
HETATM    3  C   UNL     1      -8.007   8.721  64.152  1.00  0.00    -0.154 C  
HETATM    4  O   UNL     1      -7.173   6.805  62.950  1.00  0.00    -0.054 OA 
ENDROOT
BRANCH   3   5
HETATM    5  S   UNL     1      -9.033   9.019  65.638  1.00  0.00    -0.206 SA 
HETATM    6  C   UNL     1      -9.470  10.791  65.439  1.00  0.00    -0.214 C  
HETATM    7  S   UNL     1     -10.505  10.981  63.932  1.00  0.00    -0.294 SA 
HETATM    8  S   UNL     1     -10.460  11.293  66.907  1.00  0.00    -0.256 SA 
BRANCH   7   9
HETATM    9  C   UNL     1     -10.775  12.793  63.922  1.00  0.00    -0.409 C  
HETATM   10  O   UNL     1     -13.099  12.119  63.683  1.00  0.00    -0.787 OA 
HETATM   11  O   UNL     1     -12.632  14.319  63.775  1.00  0.00    -0.821 OA 
HETATM   12  C   UNL     1     -12.241  13.160  63.788  1.00  0.00    -0.456 C  
ENDBRANCH   7   9
BRANCH   8  13
HETATM   13  C   UNL     1      -9.239  11.049  68.252  1.00  0.00    -0.165 C  
HETATM   14  C   UNL     1      -9.693  10.005  69.256  1.00  0.00    -0.215 C  
HETATM   15  O   UNL     1     -10.860   9.387  68.968  1.00  0.00    -0.211 OA 
HETATM   16  O   UNL     1      -9.041   9.723  70.251  1.00  0.00    -0.237 OA 
ENDBRANCH   8  13
ENDBRANCH   3   5
TORSDOF 3
ENDMDL
MODEL       86
REMARK 921   NORMALIZED FREE ENERGY PREDICTED BY IDOCK:   -4.11 KCAL/MOL
REMARK 922        TOTAL FREE ENERGY PREDICTED BY IDOCK:   -5.09 KCAL/MOL
REMARK 923 INTER-LIGAND FREE ENERGY PREDICTED BY IDOCK:   -4.75 KCAL/MOL
REMARK 924 INTRA-LIGAND FREE ENERGY PREDICTED BY IDOCK:   -0.34 KCAL/MOL
REMARK 927      BINDING AFFINITY PREDICTED BY RF-SCORE:    0.00 PKD
ROOT
HETATM    1  O   UNL     1     -12.669  13.312  63.949  1.00  0.00    -0.667 OA 
HETATM    2  C   UNL     1     -12.160  14.529  64.246  1.00  0.00    -0.425 C  
HETATM    3  C   UNL     1     -10.834  14.527  64.984  1.00  0.00    -0.412 C  
HETATM    4  O   UNL     1     -12.734  15.562  63.922  1.00  0.00    -0.665 OA 
ENDROOT
BRANCH   3   5
HETATM    5  S   UNL     1     -10.295  12.824  65.384  1.00  0.00    -0.293 SA 
HETATM    6  C   UNL     1     -10.288  12.858  67.220  1.00  0.00    -0.234 C  
HETATM    7  S   UNL     1     -12.008  13.112  67.815  1.00  0.00    -0.240 SA 
HETATM    8  S   UNL     1      -9.691  11.220  67.809  1.00  0.00    -0.177 SA 
BRANCH   7   9
HETATM    9  C   UNL     1     -11.746  13.150  69.628  1.00  0.00    -0.303 C  
HETATM   10  O   UNL     1     -12.133  15.529  69.308  1.00  0.00    -0.332 OA 
HETATM   11  O   UNL     1     -11.744  14.784  71.397  1.00  0.00    -0.327 OA 
HETATM   12  C   UNL     1     -11.871  14.549  70.203  1.00  0.00    -0.308 C  
ENDBRANCH   7   9
BRANCH   8  13
HETATM   13  C   UNL     1      -7.987  11.205  67.131  1.00  0.00    -0.139 C  
HETATM   14  C   UNL     1      -6.955  10.846  68.184  1.00  0.00    -0.069 C  
HETATM   15  O   UNL     1      -7.447  10.534  69.403  1.00  0.00    -0.114 OA 
HETATM   16  O   UNL     1      -5.755  10.821  67.946  1.00  0.00    -0.043 OA 
ENDBRANCH   8  13
ENDBRANCH   3   5
TORSDOF 3
ENDMDL
MODEL       87
REMARK 921   NORMALIZED FREE ENERGY PREDICTED BY IDOCK:   -4.05 KCAL/MOL
REMARK 922        TOTAL FREE ENERGY PREDICTED BY IDOCK:   -5.02 KCAL/MOL
REMARK 923 INTER-LIGAND FREE ENERGY PREDICTED BY IDOCK:   -4.71 KCAL/MOL
REMARK 924 INTRA-LIGAND FREE ENERGY PREDICTED BY IDOCK:   -0.30 KCAL/MOL
REMARK 927      BINDING AFFINITY PREDICTED BY RF-SCORE:    0.00 PKD
ROOT
HETATM    1  O   UNL     1     -12.149  12.279  66.359  1.00  0.00    -0.623 OA 
HETATM    2  C   UNL     1     -12.393  13.475  65.776  1.00  0.00    -0.468 C  
HETATM    3  C   UNL     1     -11.607  14.650  66.328  1.00  0.00    -0.342 C  
HETATM    4  O   UNL     1     -13.189  13.589  64.850  1.00  0.00    -0.661 OA 
ENDROOT
BRANCH   3   5
HETATM    5  S   UNL     1     -10.573  14.151  67.754  1.00  0.00    -0.244 SA 
HETATM    6  C   UNL     1      -8.949  14.886  67.310  1.00  0.00    -0.199 C  
HETATM    7  S   UNL     1      -9.115  16.716  67.284  1.00  0.00    -0.219 SA 
HETATM    8  S   UNL     1      -7.745  14.417  68.619  1.00  0.00    -0.141 SA 
BRANCH   7   9
HETATM    9  C   UNL     1      -7.421  17.211  66.791  1.00  0.00    -0.228 C  
HETATM   10  O   UNL     1      -8.583  19.190  65.986  1.00  0.00    -0.446 OA 
HETATM   11  O   UNL     1      -6.348  19.090  65.734  1.00  0.00    -0.202 OA 
HETATM   12  C   UNL     1      -7.386  18.574  66.124  1.00  0.00    -0.259 C  
ENDBRANCH   7   9
BRANCH   8  13
HETATM   13  C   UNL     1      -7.728  12.592  68.440  1.00  0.00    -0.136 C  
HETATM   14  C   UNL     1      -6.597  12.115  67.546  1.00  0.00    -0.132 C  
HETATM   15  O   UNL     1      -5.763  13.078  67.094  1.00  0.00    -0.349 OA 
HETATM   16  O   UNL     1      -6.435  10.936  67.264  1.00  0.00    -0.065 OA 
ENDBRANCH   8  13
ENDBRANCH   3   5
TORSDOF 3
ENDMDL
MODEL       88
REMARK 921   NORMALIZED FREE ENERGY PREDICTED BY IDOCK:   -4.05 KCAL/MOL
REMARK 922        TOTAL FREE ENERGY PREDICTED BY IDOCK:   -5.01 KCAL/MOL
REMARK 923 INTER-LIGAND FREE ENERGY PREDICTED BY IDOCK:   -4.77 KCAL/MOL
REMARK 924 INTRA-LIGAND FREE ENERGY PREDICTED BY IDOCK:   -0.25 KCAL/MOL
REMARK 927      BINDING AFFINITY PREDICTED BY RF-SCORE:    0.00 PKD
ROOT
HETATM    1  O   UNL     1     -12.660  14.374  64.380  1.00  0.00    -0.668 OA 
HETATM    2  C   UNL     1     -12.182  13.175  64.784  1.00  0.00    -0.425 C  
HETATM    3  C   UNL     1     -10.784  13.186  65.374  1.00  0.00    -0.294 C  
HETATM    4  O   UNL     1     -12.851  12.152  64.690  1.00  0.00    -0.586 OA 
ENDROOT
BRANCH   3   5
HETATM    5  S   UNL     1     -10.039  14.856  65.293  1.00  0.00    -0.296 SA 
HETATM    6  C   UNL     1      -9.426  15.074  67.010  1.00  0.00    -0.229 C  
HETATM    7  S   UNL     1      -8.111  13.832  67.332  1.00  0.00    -0.154 SA 
HETATM    8  S   UNL     1      -8.696  16.759  67.135  1.00  0.00    -0.208 SA 
BRANCH   7   9
HETATM    9  C   UNL     1      -7.695  14.211  69.076  1.00  0.00    -0.035 C  
HETATM   10  O   UNL     1      -5.700  15.155  68.054  1.00  0.00    -0.122 OA 
HETATM   11  O   UNL     1      -5.913  15.280  70.292  1.00  0.00    -0.144 OA 
HETATM   12  C   UNL     1      -6.364  14.927  69.211  1.00  0.00    -0.115 C  
ENDBRANCH   7   9
BRANCH   8  13
HETATM   13  C   UNL     1     -10.167  17.802  66.809  1.00  0.00    -0.351 C  
HETATM   14  C   UNL     1      -9.788  19.203  66.363  1.00  0.00    -0.381 C  
HETATM   15  O   UNL     1      -8.465  19.431  66.213  1.00  0.00    -0.323 OA 
HETATM   16  O   UNL     1     -10.623  20.068  66.135  1.00  0.00    -0.437 OA 
ENDBRANCH   8  13
ENDBRANCH   3   5
TORSDOF 3
ENDMDL
MODEL       89
REMARK 921   NORMALIZED FREE ENERGY PREDICTED BY IDOCK:   -4.02 KCAL/MOL
REMARK 922        TOTAL FREE ENERGY PREDICTED BY IDOCK:   -4.98 KCAL/MOL
REMARK 923 INTER-LIGAND FREE ENERGY PREDICTED BY IDOCK:   -4.73 KCAL/MOL
REMARK 924 INTRA-LIGAND FREE ENERGY PREDICTED BY IDOCK:   -0.25 KCAL/MOL
REMARK 927      BINDING AFFINITY PREDICTED BY RF-SCORE:    0.00 PKD
ROOT
HETATM    1  O   UNL     1      -7.847   8.818  65.348  1.00  0.00    -0.093 OA 
HETATM    2  C   UNL     1      -8.480   9.107  64.189  1.00  0.00    -0.185 C  
HETATM    3  C   UNL     1      -9.627  10.096  64.291  1.00  0.00    -0.290 C  
HETATM    4  O   UNL     1      -8.132   8.607  63.125  1.00  0.00    -0.156 OA 
ENDROOT
BRANCH   3   5
HETATM    5  S   UNL     1      -9.934  10.584  66.029  1.00  0.00    -0.247 SA 
HETATM    6  C   UNL     1      -9.655  12.398  65.959  1.00  0.00    -0.209 C  
HETATM    7  S   UNL     1     -10.932  13.153  64.876  1.00  0.00    -0.337 SA 
HETATM    8  S   UNL     1      -9.854  13.061  67.665  1.00  0.00    -0.217 SA 
BRANCH   7   9
HETATM    9  C   UNL     1     -10.435  14.916  64.930  1.00  0.00    -0.359 C  
HETATM   10  O   UNL     1     -12.591  15.222  63.849  1.00  0.00    -0.765 OA 
HETATM   11  O   UNL     1     -11.350  17.048  64.285  1.00  0.00    -1.191 OA 
HETATM   12  C   UNL     1     -11.485  15.833  64.332  1.00  0.00    -0.263 C  
ENDBRANCH   7   9
BRANCH   8  13
HETATM   13  C   UNL     1      -8.487  12.203  68.535  1.00  0.00    -0.083 C  
HETATM   14  C   UNL     1      -7.145  12.871  68.293  1.00  0.00    -0.102 C  
HETATM   15  O   UNL     1      -7.180  14.002  67.553  1.00  0.00    -0.172 OA 
HETATM   16  O   UNL     1      -6.100  12.430  68.750  1.00  0.00    -0.062 OA 
ENDBRANCH   8  13
ENDBRANCH   3   5
TORSDOF 3
ENDMDL
MODEL       90
REMARK 921   NORMALIZED FREE ENERGY PREDICTED BY IDOCK:   -4.02 KCAL/MOL
REMARK 922        TOTAL FREE ENERGY PREDICTED BY IDOCK:   -4.98 KCAL/MOL
REMARK 923 INTER-LIGAND FREE ENERGY PREDICTED BY IDOCK:   -4.70 KCAL/MOL
REMARK 924 INTRA-LIGAND FREE ENERGY PREDICTED BY IDOCK:   -0.28 KCAL/MOL
REMARK 927      BINDING AFFINITY PREDICTED BY RF-SCORE:    0.00 PKD
ROOT
HETATM    1  O   UNL     1      -8.232  17.522  68.227  1.00  0.00    -0.245 OA 
HETATM    2  C   UNL     1      -9.357  18.255  68.384  1.00  0.00    -0.314 C  
HETATM    3  C   UNL     1     -10.656  17.553  68.031  1.00  0.00    -0.384 C  
HETATM    4  O   UNL     1      -9.321  19.408  68.800  1.00  0.00    -0.373 OA 
ENDROOT
BRANCH   3   5
HETATM    5  S   UNL     1     -10.349  15.875  67.368  1.00  0.00    -0.293 SA 
HETATM    6  C   UNL     1     -10.546  14.840  68.872  1.00  0.00    -0.250 C  
HETATM    7  S   UNL     1     -12.285  14.960  69.451  1.00  0.00    -0.152 SA 
HETATM    8  S   UNL     1     -10.196  13.095  68.401  1.00  0.00    -0.229 SA 
BRANCH   7   9
HETATM    9  C   UNL     1     -12.227  13.902  70.946  1.00  0.00    -0.361 C  
HETATM   10  O   UNL     1     -14.304  15.061  71.451  1.00  0.00    -0.476 OA 
HETATM   11  O   UNL     1     -13.570  13.507  72.905  1.00  0.00    -0.639 OA 
HETATM   12  C   UNL     1     -13.416  14.127  71.862  1.00  0.00    -0.405 C  
ENDBRANCH   7   9
BRANCH   8  13
HETATM   13  C   UNL     1      -8.438  13.216  67.893  1.00  0.00    -0.181 C  
HETATM   14  C   UNL     1      -7.858  11.866  67.512  1.00  0.00    -0.152 C  
HETATM   15  O   UNL     1      -8.724  10.829  67.539  1.00  0.00    -0.125 OA 
HETATM   16  O   UNL     1      -6.688  11.723  67.184  1.00  0.00    -0.122 OA 
ENDBRANCH   8  13
ENDBRANCH   3   5
TORSDOF 3
ENDMDL
MODEL       91
REMARK 921   NORMALIZED FREE ENERGY PREDICTED BY IDOCK:   -3.99 KCAL/MOL
REMARK 922        TOTAL FREE ENERGY PREDICTED BY IDOCK:   -4.94 KCAL/MOL
REMARK 923 INTER-LIGAND FREE ENERGY PREDICTED BY IDOCK:   -4.66 KCAL/MOL
REMARK 924 INTRA-LIGAND FREE ENERGY PREDICTED BY IDOCK:   -0.28 KCAL/MOL
REMARK 927      BINDING AFFINITY PREDICTED BY RF-SCORE:    0.00 PKD
ROOT
HETATM    1  O   UNL     1     -11.320  14.668  64.914  1.00  0.00    -0.366 OA 
HETATM    2  C   UNL     1     -12.105  13.805  64.230  1.00  0.00    -0.440 C  
HETATM    3  C   UNL     1     -12.360  12.469  64.905  1.00  0.00    -0.470 C  
HETATM    4  O   UNL     1     -12.587  14.098  63.142  1.00  0.00    -0.686 OA 
ENDROOT
BRANCH   3   5
HETATM    5  S   UNL     1     -11.430  12.325  66.475  1.00  0.00    -0.379 SA 
HETATM    6  C   UNL     1     -10.542  10.736  66.236  1.00  0.00    -0.192 C  
HETATM    7  S   UNL     1      -9.362  10.920  64.839  1.00  0.00    -0.226 SA 
HETATM    8  S   UNL     1      -9.593  10.387  67.774  1.00  0.00    -0.153 SA 
BRANCH   7   9
HETATM    9  C   UNL     1      -8.642   9.236  64.769  1.00  0.00    -0.184 C  
HETATM   10  O   UNL     1      -8.882   9.585  62.375  1.00  0.00    -0.213 OA 
HETATM   11  O   UNL     1      -7.994   7.642  63.085  1.00  0.00    -0.139 OA 
HETATM   12  C   UNL     1      -8.472   8.737  63.346  1.00  0.00    -0.111 C  
ENDBRANCH   7   9
BRANCH   8  13
HETATM   13  C   UNL     1     -10.952  10.222  68.993  1.00  0.00    -0.232 C  
HETATM   14  C   UNL     1     -10.452   9.756  70.348  1.00  0.00    -0.297 C  
HETATM   15  O   UNL     1      -9.113   9.610  70.459  1.00  0.00    -0.242 OA 
HETATM   16  O   UNL     1     -11.205   9.543  71.289  1.00  0.00    -0.330 OA 
ENDBRANCH   8  13
ENDBRANCH   3   5
TORSDOF 3
ENDMDL
MODEL       92
REMARK 921   NORMALIZED FREE ENERGY PREDICTED BY IDOCK:   -3.98 KCAL/MOL
REMARK 922        TOTAL FREE ENERGY PREDICTED BY IDOCK:   -4.93 KCAL/MOL
REMARK 923 INTER-LIGAND FREE ENERGY PREDICTED BY IDOCK:   -4.60 KCAL/MOL
REMARK 924 INTRA-LIGAND FREE ENERGY PREDICTED BY IDOCK:   -0.34 KCAL/MOL
REMARK 927      BINDING AFFINITY PREDICTED BY RF-SCORE:    0.00 PKD
ROOT
HETATM    1  O   UNL     1      -7.690  11.161  67.758  1.00  0.00    -0.106 OA 
HETATM    2  C   UNL     1      -8.620  10.396  67.142  1.00  0.00    -0.130 C  
HETATM    3  C   UNL     1     -10.053  10.884  67.251  1.00  0.00    -0.191 C  
HETATM    4  O   UNL     1      -8.312   9.384  66.523  1.00  0.00    -0.117 OA 
ENDROOT
BRANCH   3   5
HETATM    5  S   UNL     1     -10.172  12.375  68.307  1.00  0.00    -0.230 SA 
HETATM    6  C   UNL     1     -11.726  12.052  69.231  1.00  0.00    -0.330 C  
HETATM    7  S   UNL     1     -11.489  10.569  70.290  1.00  0.00    -0.348 SA 
HETATM    8  S   UNL     1     -12.049  13.507  70.310  1.00  0.00    -0.320 SA 
BRANCH   7   9
HETATM    9  C   UNL     1     -13.145  10.427  71.063  1.00  0.00    -0.362 C  
HETATM   10  O   UNL     1     -12.068   8.608  72.266  1.00  0.00    -0.364 OA 
HETATM   11  O   UNL     1     -14.222   9.067  72.733  1.00  0.00    -0.572 OA 
HETATM   12  C   UNL     1     -13.209   9.315  72.094  1.00  0.00    -0.461 C  
ENDBRANCH   7   9
BRANCH   8  13
HETATM   13  C   UNL     1     -12.273  14.828  69.058  1.00  0.00    -0.145 C  
HETATM   14  C   UNL     1     -11.270  15.954  69.228  1.00  0.00    -0.335 C  
HETATM   15  O   UNL     1     -10.351  15.777  70.203  1.00  0.00    -0.297 OA 
HETATM   16  O   UNL     1     -11.276  16.951  68.519  1.00  0.00    -0.289 OA 
ENDBRANCH   8  13
ENDBRANCH   3   5
TORSDOF 3
ENDMDL
MODEL       93
REMARK 921   NORMALIZED FREE ENERGY PREDICTED BY IDOCK:   -3.96 KCAL/MOL
REMARK 922        TOTAL FREE ENERGY PREDICTED BY IDOCK:   -4.91 KCAL/MOL
REMARK 923 INTER-LIGAND FREE ENERGY PREDICTED BY IDOCK:   -4.68 KCAL/MOL
REMARK 924 INTRA-LIGAND FREE ENERGY PREDICTED BY IDOCK:   -0.23 KCAL/MOL
REMARK 927      BINDING AFFINITY PREDICTED BY RF-SCORE:    0.00 PKD
ROOT
HETATM    1  O   UNL     1      -9.316   8.360  66.061  1.00  0.00    -0.209 OA 
HETATM    2  C   UNL     1      -8.910   9.629  65.830  1.00  0.00    -0.153 C  
HETATM    3  C   UNL     1      -9.508  10.688  66.738  1.00  0.00    -0.162 C  
HETATM    4  O   UNL     1      -8.097   9.894  64.952  1.00  0.00    -0.131 OA 
ENDROOT
BRANCH   3   5
HETATM    5  S   UNL     1     -10.742   9.968  67.882  1.00  0.00    -0.274 SA 
HETATM    6  C   UNL     1     -10.920  11.307  69.127  1.00  0.00    -0.240 C  
HETATM    7  S   UNL     1     -11.637  12.787  68.306  1.00  0.00    -0.353 SA 
HETATM    8  S   UNL     1     -12.091  10.718  70.419  1.00  0.00    -0.383 SA 
BRANCH   7   9
HETATM    9  C   UNL     1     -11.681  13.971  69.704  1.00  0.00    -0.311 C  
HETATM   10  O   UNL     1     -11.169  15.568  67.943  1.00  0.00    -0.319 OA 
HETATM   11  O   UNL     1     -11.410  16.339  70.044  1.00  0.00    -0.334 OA 
HETATM   12  C   UNL     1     -11.411  15.398  69.264  1.00  0.00    -0.315 C  
ENDBRANCH   7   9
BRANCH   8  13
HETATM   13  C   UNL     1     -11.169   9.287  71.099  1.00  0.00    -0.343 C  
HETATM   14  C   UNL     1     -11.919   8.609  72.232  1.00  0.00    -0.368 C  
HETATM   15  O   UNL     1     -13.144   9.110  72.504  1.00  0.00    -0.429 OA 
HETATM   16  O   UNL     1     -11.457   7.659  72.849  1.00  0.00    -0.354 OA 
ENDBRANCH   8  13
ENDBRANCH   3   5
TORSDOF 3
ENDMDL
MODEL       94
REMARK 921   NORMALIZED FREE ENERGY PREDICTED BY IDOCK:   -3.95 KCAL/MOL
REMARK 922        TOTAL FREE ENERGY PREDICTED BY IDOCK:   -4.90 KCAL/MOL
REMARK 923 INTER-LIGAND FREE ENERGY PREDICTED BY IDOCK:   -4.68 KCAL/MOL
REMARK 924 INTRA-LIGAND FREE ENERGY PREDICTED BY IDOCK:   -0.23 KCAL/MOL
REMARK 927      BINDING AFFINITY PREDICTED BY RF-SCORE:    0.00 PKD
ROOT
HETATM    1  O   UNL     1      -7.560  13.863  69.034  1.00  0.00    -0.097 OA 
HETATM    2  C   UNL     1      -7.351  13.434  67.768  1.00  0.00    -0.157 C  
HETATM    3  C   UNL     1      -8.596  13.255  66.919  1.00  0.00    -0.105 C  
HETATM    4  O   UNL     1      -6.223  13.221  67.340  1.00  0.00    -0.277 OA 
ENDROOT
BRANCH   3   5
HETATM    5  S   UNL     1     -10.116  13.579  67.886  1.00  0.00    -0.255 SA 
HETATM    6  C   UNL     1     -10.182  15.415  67.869  1.00  0.00    -0.239 C  
HETATM    7  S   UNL     1     -10.423  15.983  66.139  1.00  0.00    -0.316 SA 
HETATM    8  S   UNL     1     -11.635  15.932  68.873  1.00  0.00    -0.355 SA 
BRANCH   7   9
HETATM    9  C   UNL     1     -10.418  17.802  66.367  1.00  0.00    -0.297 C  
HETATM   10  O   UNL     1      -8.014  17.492  66.175  1.00  0.00    -0.396 OA 
HETATM   11  O   UNL     1      -8.799  19.582  66.463  1.00  0.00    -0.324 OA 
HETATM   12  C   UNL     1      -9.017  18.385  66.342  1.00  0.00    -0.249 C  
ENDBRANCH   7   9
BRANCH   8  13
HETATM   13  C   UNL     1     -11.164  15.291  70.525  1.00  0.00    -0.310 C  
HETATM   14  C   UNL     1     -12.313  15.362  71.515  1.00  0.00    -0.377 C  
HETATM   15  O   UNL     1     -13.488  15.808  71.018  1.00  0.00    -0.581 OA 
HETATM   16  O   UNL     1     -12.194  15.022  72.685  1.00  0.00    -0.342 OA 
ENDBRANCH   8  13
ENDBRANCH   3   5
TORSDOF 3
ENDMDL
MODEL       95
REMARK 921   NORMALIZED FREE ENERGY PREDICTED BY IDOCK:   -3.91 KCAL/MOL
REMARK 922        TOTAL FREE ENERGY PREDICTED BY IDOCK:   -4.86 KCAL/MOL
REMARK 923 INTER-LIGAND FREE ENERGY PREDICTED BY IDOCK:   -4.58 KCAL/MOL
REMARK 924 INTRA-LIGAND FREE ENERGY PREDICTED BY IDOCK:   -0.28 KCAL/MOL
REMARK 927      BINDING AFFINITY PREDICTED BY RF-SCORE:    0.00 PKD
ROOT
HETATM    1  O   UNL     1     -10.753  15.628  66.727  1.00  0.00    -0.308 OA 
HETATM    2  C   UNL     1     -11.092  15.737  68.032  1.00  0.00    -0.337 C  
HETATM    3  C   UNL     1     -11.569  14.460  68.699  1.00  0.00    -0.314 C  
HETATM    4  O   UNL     1     -11.002  16.802  68.632  1.00  0.00    -0.338 OA 
ENDROOT
BRANCH   3   5
HETATM    5  S   UNL     1     -11.661  13.077  67.503  1.00  0.00    -0.363 SA 
HETATM    6  C   UNL     1     -10.935  11.698  68.474  1.00  0.00    -0.220 C  
HETATM    7  S   UNL     1     -12.028  11.342  69.907  1.00  0.00    -0.378 SA 
HETATM    8  S   UNL     1     -10.880  10.214  67.385  1.00  0.00    -0.214 SA 
BRANCH   7   9
HETATM    9  C   UNL     1     -11.099   9.992  70.726  1.00  0.00    -0.334 C  
HETATM   10  O   UNL     1     -13.172   9.761  71.976  1.00  0.00    -0.416 OA 
HETATM   11  O   UNL     1     -11.483   8.347  72.442  1.00  0.00    -0.367 OA 
HETATM   12  C   UNL     1     -11.918   9.286  71.790  1.00  0.00    -0.385 C  
ENDBRANCH   7   9
BRANCH   8  13
HETATM   13  C   UNL     1      -9.737  10.787  66.072  1.00  0.00    -0.217 C  
HETATM   14  C   UNL     1      -8.324  10.269  66.277  1.00  0.00    -0.134 C  
HETATM   15  O   UNL     1      -8.154   9.434  67.325  1.00  0.00    -0.109 OA 
HETATM   16  O   UNL     1      -7.400  10.570  65.533  1.00  0.00    -0.147 OA 
ENDBRANCH   8  13
ENDBRANCH   3   5
TORSDOF 3
ENDMDL
MODEL       96
REMARK 921   NORMALIZED FREE ENERGY PREDICTED BY IDOCK:   -3.91 KCAL/MOL
REMARK 922        TOTAL FREE ENERGY PREDICTED BY IDOCK:   -4.85 KCAL/MOL
REMARK 923 INTER-LIGAND FREE ENERGY PREDICTED BY IDOCK:   -4.61 KCAL/MOL
REMARK 924 INTRA-LIGAND FREE ENERGY PREDICTED BY IDOCK:   -0.24 KCAL/MOL
REMARK 927      BINDING AFFINITY PREDICTED BY RF-SCORE:    0.00 PKD
ROOT
HETATM    1  O   UNL     1      -6.992  11.711  69.240  1.00  0.00    -0.110 OA 
HETATM    2  C   UNL     1      -6.393  12.700  69.941  1.00  0.00    -0.031 C  
HETATM    3  C   UNL     1      -6.431  14.077  69.302  1.00  0.00    -0.114 C  
HETATM    4  O   UNL     1      -5.870  12.491  71.029  1.00  0.00    -0.336 OA 
ENDROOT
BRANCH   3   5
HETATM    5  S   UNL     1      -7.214  14.024  67.648  1.00  0.00    -0.168 SA 
HETATM    6  C   UNL     1      -8.658  15.133  67.886  1.00  0.00    -0.153 C  
HETATM    7  S   UNL     1      -8.051  16.834  68.222  1.00  0.00    -0.211 SA 
HETATM    8  S   UNL     1      -9.620  15.145  66.316  1.00  0.00    -0.316 SA 
BRANCH   7   9
HETATM    9  C   UNL     1      -9.633  17.728  68.457  1.00  0.00    -0.322 C  
HETATM   10  O   UNL     1      -9.092  18.604  66.255  1.00  0.00    -0.390 OA 
HETATM   11  O   UNL     1     -11.010  19.273  67.226  1.00  0.00    -0.483 OA 
HETATM   12  C   UNL     1      -9.986  18.605  67.271  1.00  0.00    -0.329 C  
ENDBRANCH   7   9
BRANCH   8  13
HETATM   13  C   UNL     1     -10.132  13.388  66.207  1.00  0.00    -0.299 C  
HETATM   14  C   UNL     1     -11.638  13.236  66.100  1.00  0.00    -0.348 C  
HETATM   15  O   UNL     1     -12.339  14.390  66.032  1.00  0.00    -0.394 OA 
HETATM   16  O   UNL     1     -12.187  12.143  66.058  1.00  0.00    -0.609 OA 
ENDBRANCH   8  13
ENDBRANCH   3   5
TORSDOF 3
ENDMDL
MODEL       97
REMARK 921   NORMALIZED FREE ENERGY PREDICTED BY IDOCK:   -3.89 KCAL/MOL
REMARK 922        TOTAL FREE ENERGY PREDICTED BY IDOCK:   -4.83 KCAL/MOL
REMARK 923 INTER-LIGAND FREE ENERGY PREDICTED BY IDOCK:   -4.51 KCAL/MOL
REMARK 924 INTRA-LIGAND FREE ENERGY PREDICTED BY IDOCK:   -0.32 KCAL/MOL
REMARK 927      BINDING AFFINITY PREDICTED BY RF-SCORE:    0.00 PKD
ROOT
HETATM    1  O   UNL     1      -6.484  11.077  70.515  1.00  0.00    -0.309 OA 
HETATM    2  C   UNL     1      -6.271  12.192  69.780  1.00  0.00    -0.132 C  
HETATM    3  C   UNL     1      -7.138  12.342  68.543  1.00  0.00    -0.099 C  
HETATM    4  O   UNL     1      -5.438  13.029  70.108  1.00  0.00    -0.099 OA 
ENDROOT
BRANCH   3   5
HETATM    5  S   UNL     1      -8.215  10.881  68.301  1.00  0.00    -0.134 SA 
HETATM    6  C   UNL     1      -9.878  11.656  68.216  1.00  0.00    -0.199 C  
HETATM    7  S   UNL     1      -9.957  12.728  66.726  1.00  0.00    -0.242 SA 
HETATM    8  S   UNL     1     -11.117  10.306  68.044  1.00  0.00    -0.229 SA 
BRANCH   7   9
HETATM    9  C   UNL     1     -11.653  13.405  66.875  1.00  0.00    -0.365 C  
HETATM   10  O   UNL     1     -11.667  13.023  64.474  1.00  0.00    -0.335 OA 
HETATM   11  O   UNL     1     -13.523  13.866  65.430  1.00  0.00    -0.672 OA 
HETATM   12  C   UNL     1     -12.375  13.458  65.542  1.00  0.00    -0.480 C  
ENDBRANCH   7   9
BRANCH   8  13
HETATM   13  C   UNL     1     -10.874   9.406  69.622  1.00  0.00    -0.228 C  
HETATM   14  C   UNL     1     -11.849   9.858  70.695  1.00  0.00    -0.303 C  
HETATM   15  O   UNL     1     -12.761  10.776  70.306  1.00  0.00    -0.311 OA 
HETATM   16  O   UNL     1     -11.827   9.411  71.833  1.00  0.00    -0.373 OA 
ENDBRANCH   8  13
ENDBRANCH   3   5
TORSDOF 3
ENDMDL
MODEL       98
REMARK 921   NORMALIZED FREE ENERGY PREDICTED BY IDOCK:   -3.88 KCAL/MOL
REMARK 922        TOTAL FREE ENERGY PREDICTED BY IDOCK:   -4.81 KCAL/MOL
REMARK 923 INTER-LIGAND FREE ENERGY PREDICTED BY IDOCK:   -4.51 KCAL/MOL
REMARK 924 INTRA-LIGAND FREE ENERGY PREDICTED BY IDOCK:   -0.30 KCAL/MOL
REMARK 927      BINDING AFFINITY PREDICTED BY RF-SCORE:    0.00 PKD
ROOT
HETATM    1  O   UNL     1      -6.606  13.534  69.538  1.00  0.00    -0.107 OA 
HETATM    2  C   UNL     1      -6.516  14.311  68.434  1.00  0.00    -0.106 C  
HETATM    3  C   UNL     1      -7.725  14.298  67.518  1.00  0.00    -0.191 C  
HETATM    4  O   UNL     1      -5.521  14.990  68.207  1.00  0.00    -0.102 OA 
ENDROOT
BRANCH   3   5
HETATM    5  S   UNL     1      -8.997  13.120  68.107  1.00  0.00    -0.184 SA 
HETATM    6  C   UNL     1     -10.473  13.663  67.158  1.00  0.00    -0.264 C  
HETATM    7  S   UNL     1     -10.163  13.384  65.369  1.00  0.00    -0.275 SA 
HETATM    8  S   UNL     1     -11.893  12.617  67.685  1.00  0.00    -0.261 SA 
BRANCH   7   9
HETATM    9  C   UNL     1     -11.720  14.022  64.643  1.00  0.00    -0.405 C  
HETATM   10  O   UNL     1     -10.545  16.144  64.803  1.00  0.00    -0.630 OA 
HETATM   11  O   UNL     1     -12.622  16.139  63.936  1.00  0.00    -0.703 OA 
HETATM   12  C   UNL     1     -11.685  15.523  64.424  1.00  0.00    -0.242 C  
ENDBRANCH   7   9
BRANCH   8  13
HETATM   13  C   UNL     1     -12.026  13.075  69.456  1.00  0.00    -0.289 C  
HETATM   14  C   UNL     1     -12.248  11.865  70.345  1.00  0.00    -0.314 C  
HETATM   15  O   UNL     1     -12.242  10.668  69.716  1.00  0.00    -0.305 OA 
HETATM   16  O   UNL     1     -12.405  11.958  71.555  1.00  0.00    -0.136 OA 
ENDBRANCH   8  13
ENDBRANCH   3   5
TORSDOF 3
ENDMDL
MODEL       99
REMARK 921   NORMALIZED FREE ENERGY PREDICTED BY IDOCK:   -3.82 KCAL/MOL
REMARK 922        TOTAL FREE ENERGY PREDICTED BY IDOCK:   -4.75 KCAL/MOL
REMARK 923 INTER-LIGAND FREE ENERGY PREDICTED BY IDOCK:   -4.51 KCAL/MOL
REMARK 924 INTRA-LIGAND FREE ENERGY PREDICTED BY IDOCK:   -0.24 KCAL/MOL
REMARK 927      BINDING AFFINITY PREDICTED BY RF-SCORE:    0.00 PKD
ROOT
HETATM    1  O   UNL     1      -8.420  17.512  68.257  1.00  0.00    -0.249 OA 
HETATM    2  C   UNL     1      -9.707  17.917  68.353  1.00  0.00    -0.340 C  
HETATM    3  C   UNL     1     -10.742  16.965  67.784  1.00  0.00    -0.315 C  
HETATM    4  O   UNL     1     -10.007  18.981  68.882  1.00  0.00    -0.410 OA 
ENDROOT
BRANCH   3   5
HETATM    5  S   UNL     1      -9.953  15.512  66.998  1.00  0.00    -0.243 SA 
HETATM    6  C   UNL     1     -10.058  14.262  68.339  1.00  0.00    -0.243 C  
HETATM    7  S   UNL     1     -11.827  13.894  68.669  1.00  0.00    -0.375 SA 
HETATM    8  S   UNL     1      -9.233  12.729  67.741  1.00  0.00    -0.208 SA 
BRANCH   7   9
HETATM    9  C   UNL     1     -11.681  12.682  70.036  1.00  0.00    -0.215 C  
HETATM   10  O   UNL     1     -12.252  11.110  68.270  1.00  0.00    -0.613 OA 
HETATM   11  O   UNL     1     -11.880  10.301  70.338  1.00  0.00    -0.269 OA 
HETATM   12  C   UNL     1     -11.943  11.259  69.579  1.00  0.00    -0.351 C  
ENDBRANCH   7   9
BRANCH   8  13
HETATM   13  C   UNL     1      -7.514  13.325  67.510  1.00  0.00    -0.157 C  
HETATM   14  C   UNL     1      -6.577  12.213  67.075  1.00  0.00    -0.080 C  
HETATM   15  O   UNL     1      -7.155  11.009  66.864  1.00  0.00    -0.109 OA 
HETATM   16  O   UNL     1      -5.378  12.392  66.907  1.00  0.00    -0.333 OA 
ENDBRANCH   8  13
ENDBRANCH   3   5
TORSDOF 3
ENDMDL
MODEL      100
REMARK 921   NORMALIZED FREE ENERGY PREDICTED BY IDOCK:   -3.79 KCAL/MOL
REMARK 922        TOTAL FREE ENERGY PREDICTED BY IDOCK:   -4.71 KCAL/MOL
REMARK 923 INTER-LIGAND FREE ENERGY PREDICTED BY IDOCK:   -4.38 KCAL/MOL
REMARK 924 INTRA-LIGAND FREE ENERGY PREDICTED BY IDOCK:   -0.33 KCAL/MOL
REMARK 927      BINDING AFFINITY PREDICTED BY RF-SCORE:    0.00 PKD
ROOT
HETATM    1  O   UNL     1     -10.066  15.205  69.094  1.00  0.00    -0.226 OA 
HETATM    2  C   UNL     1     -11.122  15.278  69.936  1.00  0.00    -0.289 C  
HETATM    3  C   UNL     1     -12.180  14.205  69.759  1.00  0.00    -0.344 C  
HETATM    4  O   UNL     1     -11.202  16.150  70.793  1.00  0.00    -0.369 OA 
ENDROOT
BRANCH   3   5
HETATM    5  S   UNL     1     -11.794  13.111  68.343  1.00  0.00    -0.316 SA 
HETATM    6  C   UNL     1     -10.930  11.720  69.172  1.00  0.00    -0.209 C  
HETATM    7  S   UNL     1     -12.113  10.872  70.294  1.00  0.00    -0.382 SA 
HETATM    8  S   UNL     1     -10.395  10.535  67.869  1.00  0.00    -0.207 SA 
BRANCH   7   9
HETATM    9  C   UNL     1     -11.037   9.579  71.020  1.00  0.00    -0.363 C  
HETATM   10  O   UNL     1     -12.981   9.213  72.434  1.00  0.00    -0.410 OA 
HETATM   11  O   UNL     1     -11.176   7.905  72.746  1.00  0.00    -0.372 OA 
HETATM   12  C   UNL     1     -11.721   8.818  72.141  1.00  0.00    -0.363 C  
ENDBRANCH   7   9
BRANCH   8  13
HETATM   13  C   UNL     1      -9.228  11.575  66.910  1.00  0.00    -0.176 C  
HETATM   14  C   UNL     1      -7.824  11.540  67.487  1.00  0.00    -0.133 C  
HETATM   15  O   UNL     1      -7.645  10.716  68.543  1.00  0.00    -0.087 OA 
HETATM   16  O   UNL     1      -6.905  12.199  67.018  1.00  0.00    -0.137 OA 
ENDBRANCH   8  13
ENDBRANCH   3   5
TORSDOF 3
ENDMDL
MODEL      101
REMARK 921   NORMALIZED FREE ENERGY PREDICTED BY IDOCK:   -3.79 KCAL/MOL
REMARK 922        TOTAL FREE ENERGY PREDICTED BY IDOCK:   -4.71 KCAL/MOL
REMARK 923 INTER-LIGAND FREE ENERGY PREDICTED BY IDOCK:   -4.44 KCAL/MOL
REMARK 924 INTRA-LIGAND FREE ENERGY PREDICTED BY IDOCK:   -0.27 KCAL/MOL
REMARK 927      BINDING AFFINITY PREDICTED BY RF-SCORE:    0.00 PKD
ROOT
HETATM    1  O   UNL     1     -11.904  14.840  70.473  1.00  0.00    -0.270 OA 
HETATM    2  C   UNL     1     -12.155  13.535  70.222  1.00  0.00    -0.355 C  
HETATM    3  C   UNL     1     -12.020  13.104  68.773  1.00  0.00    -0.280 C  
HETATM    4  O   UNL     1     -12.457  12.755  71.118  1.00  0.00    -0.352 OA 
ENDROOT
BRANCH   3   5
HETATM    5  S   UNL     1     -11.637  14.526  67.686  1.00  0.00    -0.388 SA 
HETATM    6  C   UNL     1      -9.813  14.649  67.864  1.00  0.00    -0.217 C  
HETATM    7  S   UNL     1      -9.048  13.128  67.174  1.00  0.00    -0.236 SA 
HETATM    8  S   UNL     1      -9.251  16.097  66.878  1.00  0.00    -0.240 SA 
BRANCH   7   9
HETATM    9  C   UNL     1      -7.273  13.457  67.492  1.00  0.00    -0.153 C  
HETATM   10  O   UNL     1      -7.505  11.513  68.934  1.00  0.00    -0.115 OA 
HETATM   11  O   UNL     1      -5.486  12.497  68.789  1.00  0.00    -0.057 OA 
HETATM   12  C   UNL     1      -6.662  12.458  68.458  1.00  0.00    -0.077 C  
ENDBRANCH   7   9
BRANCH   8  13
HETATM   13  C   UNL     1     -10.104  17.466  67.749  1.00  0.00    -0.323 C  
HETATM   14  C   UNL     1     -10.555  18.558  66.797  1.00  0.00    -0.354 C  
HETATM   15  O   UNL     1     -10.325  18.323  65.486  1.00  0.00    -0.575 OA 
HETATM   16  O   UNL     1     -11.107  19.580  67.183  1.00  0.00    -0.446 OA 
ENDBRANCH   8  13
ENDBRANCH   3   5
TORSDOF 3
ENDMDL
MODEL      102
REMARK 921   NORMALIZED FREE ENERGY PREDICTED BY IDOCK:   -3.77 KCAL/MOL
REMARK 922        TOTAL FREE ENERGY PREDICTED BY IDOCK:   -4.69 KCAL/MOL
REMARK 923 INTER-LIGAND FREE ENERGY PREDICTED BY IDOCK:   -4.41 KCAL/MOL
REMARK 924 INTRA-LIGAND FREE ENERGY PREDICTED BY IDOCK:   -0.28 KCAL/MOL
REMARK 927      BINDING AFFINITY PREDICTED BY RF-SCORE:    0.00 PKD
ROOT
HETATM    1  O   UNL     1      -7.430  10.297  69.368  1.00  0.00    -0.099 OA 
HETATM    2  C   UNL     1      -7.148  10.684  68.103  1.00  0.00    -0.081 C  
HETATM    3  C   UNL     1      -8.076  11.728  67.511  1.00  0.00    -0.152 C  
HETATM    4  O   UNL     1      -6.192  10.225  67.489  1.00  0.00    -0.057 OA 
ENDROOT
BRANCH   3   5
HETATM    5  S   UNL     1      -9.441  12.137  68.660  1.00  0.00     0.035 SA 
HETATM    6  C   UNL     1     -10.614  13.009  67.548  1.00  0.00    -0.230 C  
HETATM    7  S   UNL     1     -11.216  11.826  66.277  1.00  0.00    -0.273 SA 
HETATM    8  S   UNL     1     -12.043  13.565  68.565  1.00  0.00    -0.153 SA 
BRANCH   7   9
HETATM    9  C   UNL     1     -12.313  12.909  65.286  1.00  0.00    -0.490 C  
HETATM   10  O   UNL     1     -10.992  12.020  63.449  1.00  0.00    -0.409 OA 
HETATM   11  O   UNL     1     -12.640  13.477  62.969  1.00  0.00    -0.716 OA 
HETATM   12  C   UNL     1     -12.010  12.839  63.801  1.00  0.00    -0.510 C  
ENDBRANCH   7   9
BRANCH   8  13
HETATM   13  C   UNL     1     -11.218  14.729  69.718  1.00  0.00    -0.273 C  
HETATM   14  C   UNL     1     -11.678  14.537  71.152  1.00  0.00    -0.233 C  
HETATM   15  O   UNL     1     -12.544  13.520  71.357  1.00  0.00    -0.348 OA 
HETATM   16  O   UNL     1     -11.279  15.241  72.069  1.00  0.00    -0.419 OA 
ENDBRANCH   8  13
ENDBRANCH   3   5
TORSDOF 3
ENDMDL
MODEL      103
REMARK 921   NORMALIZED FREE ENERGY PREDICTED BY IDOCK:   -3.76 KCAL/MOL
REMARK 922        TOTAL FREE ENERGY PREDICTED BY IDOCK:   -4.68 KCAL/MOL
REMARK 923 INTER-LIGAND FREE ENERGY PREDICTED BY IDOCK:   -4.36 KCAL/MOL
REMARK 924 INTRA-LIGAND FREE ENERGY PREDICTED BY IDOCK:   -0.32 KCAL/MOL
REMARK 927      BINDING AFFINITY PREDICTED BY RF-SCORE:    0.00 PKD
ROOT
HETATM    1  O   UNL     1     -11.767  11.005  70.813  1.00  0.00    -0.313 OA 
HETATM    2  C   UNL     1     -11.141   9.848  70.500  1.00  0.00    -0.332 C  
HETATM    3  C   UNL     1     -10.676   9.717  69.061  1.00  0.00    -0.217 C  
HETATM    4  O   UNL     1     -10.952   8.973  71.337  1.00  0.00    -0.270 OA 
ENDROOT
BRANCH   3   5
HETATM    5  S   UNL     1     -11.187  11.163  68.061  1.00  0.00    -0.312 SA 
HETATM    6  C   UNL     1      -9.798  11.299  66.868  1.00  0.00    -0.193 C  
HETATM    7  S   UNL     1      -9.777   9.797  65.809  1.00  0.00    -0.283 SA 
HETATM    8  S   UNL     1     -10.111  12.770  65.808  1.00  0.00    -0.273 SA 
BRANCH   7   9
HETATM    9  C   UNL     1      -8.318  10.137  64.753  1.00  0.00    -0.165 C  
HETATM   10  O   UNL     1     -10.029  10.482  63.060  1.00  0.00    -0.285 OA 
HETATM   11  O   UNL     1      -7.875  10.764  62.471  1.00  0.00    -0.158 OA 
HETATM   12  C   UNL     1      -8.703  10.489  63.328  1.00  0.00    -0.195 C  
ENDBRANCH   7   9
BRANCH   8  13
HETATM   13  C   UNL     1     -10.062  14.115  67.053  1.00  0.00    -0.261 C  
HETATM   14  C   UNL     1     -11.409  14.796  67.213  1.00  0.00    -0.357 C  
HETATM   15  O   UNL     1     -12.420  14.272  66.485  1.00  0.00    -0.428 OA 
HETATM   16  O   UNL     1     -11.579  15.746  67.965  1.00  0.00    -0.321 OA 
ENDBRANCH   8  13
ENDBRANCH   3   5
TORSDOF 3
ENDMDL
MODEL      104
REMARK 921   NORMALIZED FREE ENERGY PREDICTED BY IDOCK:   -3.76 KCAL/MOL
REMARK 922        TOTAL FREE ENERGY PREDICTED BY IDOCK:   -4.68 KCAL/MOL
REMARK 923 INTER-LIGAND FREE ENERGY PREDICTED BY IDOCK:   -4.43 KCAL/MOL
REMARK 924 INTRA-LIGAND FREE ENERGY PREDICTED BY IDOCK:   -0.25 KCAL/MOL
REMARK 927      BINDING AFFINITY PREDICTED BY RF-SCORE:    0.00 PKD
ROOT
HETATM    1  O   UNL     1      -8.211   9.970  68.232  1.00  0.00    -0.103 OA 
HETATM    2  C   UNL     1      -7.340  10.876  67.731  1.00  0.00    -0.093 C  
HETATM    3  C   UNL     1      -7.931  12.224  67.363  1.00  0.00    -0.171 C  
HETATM    4  O   UNL     1      -6.149  10.618  67.602  1.00  0.00    -0.048 OA 
ENDROOT
BRANCH   3   5
HETATM    5  S   UNL     1      -9.745  12.247  67.604  1.00  0.00    -0.199 SA 
HETATM    6  C   UNL     1     -10.023  13.972  68.170  1.00  0.00    -0.242 C  
HETATM    7  S   UNL     1      -9.571  15.122  66.810  1.00  0.00    -0.259 SA 
HETATM    8  S   UNL     1     -11.816  14.160  68.536  1.00  0.00    -0.343 SA 
BRANCH   7   9
HETATM    9  C   UNL     1      -9.886  16.742  67.606  1.00  0.00    -0.261 C  
HETATM   10  O   UNL     1     -10.456  17.384  65.331  1.00  0.00    -0.648 OA 
HETATM   11  O   UNL     1     -10.636  18.935  66.952  1.00  0.00    -0.404 OA 
HETATM   12  C   UNL     1     -10.358  17.792  66.617  1.00  0.00    -0.345 C  
ENDBRANCH   7   9
BRANCH   8  13
HETATM   13  C   UNL     1     -12.020  12.961  69.908  1.00  0.00    -0.307 C  
HETATM   14  C   UNL     1     -12.906  13.503  71.015  1.00  0.00    -0.267 C  
HETATM   15  O   UNL     1     -13.447  14.721  70.788  1.00  0.00    -0.331 OA 
HETATM   16  O   UNL     1     -13.135  12.876  72.040  1.00  0.00    -0.406 OA 
ENDBRANCH   8  13
ENDBRANCH   3   5
TORSDOF 3
ENDMDL
MODEL      105
REMARK 921   NORMALIZED FREE ENERGY PREDICTED BY IDOCK:   -3.74 KCAL/MOL
REMARK 922        TOTAL FREE ENERGY PREDICTED BY IDOCK:   -4.66 KCAL/MOL
REMARK 923 INTER-LIGAND FREE ENERGY PREDICTED BY IDOCK:   -4.32 KCAL/MOL
REMARK 924 INTRA-LIGAND FREE ENERGY PREDICTED BY IDOCK:   -0.34 KCAL/MOL
REMARK 927      BINDING AFFINITY PREDICTED BY RF-SCORE:    0.00 PKD
ROOT
HETATM    1  O   UNL     1     -12.155  12.021  66.809  1.00  0.00    -0.613 OA 
HETATM    2  C   UNL     1     -11.129  11.795  65.958  1.00  0.00    -0.312 C  
HETATM    3  C   UNL     1      -9.829  11.341  66.598  1.00  0.00    -0.205 C  
HETATM    4  O   UNL     1     -11.255  11.936  64.747  1.00  0.00    -0.308 OA 
ENDROOT
BRANCH   3   5
HETATM    5  S   UNL     1      -9.958  11.311  68.424  1.00  0.00    -0.202 SA 
HETATM    6  C   UNL     1     -10.003   9.507  68.764  1.00  0.00    -0.174 C  
HETATM    7  S   UNL     1      -8.401   8.768  68.251  1.00  0.00    -0.126 SA 
HETATM    8  S   UNL     1     -10.207   9.284  70.579  1.00  0.00    -0.273 SA 
BRANCH   7   9
HETATM    9  C   UNL     1      -8.693   7.002  68.641  1.00  0.00    -0.123 C  
HETATM   10  O   UNL     1      -9.469   6.957  66.337  1.00  0.00    -0.171 OA 
HETATM   11  O   UNL     1      -9.510   5.037  67.513  1.00  0.00    -0.123 OA 
HETATM   12  C   UNL     1      -9.258   6.233  67.461  1.00  0.00    -0.108 C  
ENDBRANCH   7   9
BRANCH   8  13
HETATM   13  C   UNL     1     -11.847  10.059  70.844  1.00  0.00    -0.368 C  
HETATM   14  C   UNL     1     -12.630   9.377  71.952  1.00  0.00    -0.401 C  
HETATM   15  O   UNL     1     -11.983   8.381  72.598  1.00  0.00    -0.396 OA 
HETATM   16  O   UNL     1     -13.765   9.716  72.259  1.00  0.00    -0.417 OA 
ENDBRANCH   8  13
ENDBRANCH   3   5
TORSDOF 3
ENDMDL
MODEL      106
REMARK 921   NORMALIZED FREE ENERGY PREDICTED BY IDOCK:   -3.70 KCAL/MOL
REMARK 922        TOTAL FREE ENERGY PREDICTED BY IDOCK:   -4.61 KCAL/MOL
REMARK 923 INTER-LIGAND FREE ENERGY PREDICTED BY IDOCK:   -4.33 KCAL/MOL
REMARK 924 INTRA-LIGAND FREE ENERGY PREDICTED BY IDOCK:   -0.28 KCAL/MOL
REMARK 927      BINDING AFFINITY PREDICTED BY RF-SCORE:    0.00 PKD
ROOT
HETATM    1  O   UNL     1      -8.531   5.786  68.229  1.00  0.00    -0.113 OA 
HETATM    2  C   UNL     1      -8.190   6.671  67.266  1.00  0.00    -0.121 C  
HETATM    3  C   UNL     1      -8.933   7.994  67.293  1.00  0.00    -0.138 C  
HETATM    4  O   UNL     1      -7.324   6.416  66.437  1.00  0.00    -0.077 OA 
ENDROOT
BRANCH   3   5
HETATM    5  S   UNL     1     -10.211   8.016  68.603  1.00  0.00    -0.203 SA 
HETATM    6  C   UNL     1     -10.330   9.810  68.977  1.00  0.00    -0.208 C  
HETATM    7  S   UNL     1     -10.963  10.684  67.489  1.00  0.00    -0.297 SA 
HETATM    8  S   UNL     1     -11.540  10.018  70.348  1.00  0.00    -0.308 SA 
BRANCH   7   9
HETATM    9  C   UNL     1     -10.958  12.419  68.078  1.00  0.00    -0.225 C  
HETATM   10  O   UNL     1     -12.396  12.739  66.144  1.00  0.00    -0.542 OA 
HETATM   11  O   UNL     1     -11.937  14.524  67.437  1.00  0.00    -0.394 OA 
HETATM   12  C   UNL     1     -11.799  13.331  67.205  1.00  0.00    -0.374 C  
ENDBRANCH   7   9
BRANCH   8  13
HETATM   13  C   UNL     1     -10.698   9.105  71.697  1.00  0.00    -0.371 C  
HETATM   14  C   UNL     1     -11.450   7.846  72.092  1.00  0.00    -0.324 C  
HETATM   15  O   UNL     1     -12.551   7.569  71.360  1.00  0.00    -0.336 OA 
HETATM   16  O   UNL     1     -11.078   7.117  73.002  1.00  0.00    -0.302 OA 
ENDBRANCH   8  13
ENDBRANCH   3   5
TORSDOF 3
ENDMDL
MODEL      107
REMARK 921   NORMALIZED FREE ENERGY PREDICTED BY IDOCK:   -3.68 KCAL/MOL
REMARK 922        TOTAL FREE ENERGY PREDICTED BY IDOCK:   -4.59 KCAL/MOL
REMARK 923 INTER-LIGAND FREE ENERGY PREDICTED BY IDOCK:   -4.22 KCAL/MOL
REMARK 924 INTRA-LIGAND FREE ENERGY PREDICTED BY IDOCK:   -0.36 KCAL/MOL
REMARK 927      BINDING AFFINITY PREDICTED BY RF-SCORE:    0.00 PKD
ROOT
HETATM    1  O   UNL     1     -11.886  11.751  70.881  1.00  0.00    -0.158 OA 
HETATM    2  C   UNL     1     -12.251  10.532  70.424  1.00  0.00    -0.328 C  
HETATM    3  C   UNL     1     -11.248   9.840  69.520  1.00  0.00    -0.142 C  
HETATM    4  O   UNL     1     -13.320  10.022  70.739  1.00  0.00    -0.350 OA 
ENDROOT
BRANCH   3   5
HETATM    5  S   UNL     1      -9.799  10.908  69.188  1.00  0.00    -0.087 SA 
HETATM    6  C   UNL     1      -9.896  11.110  67.365  1.00  0.00    -0.173 C  
HETATM    7  S   UNL     1     -11.437  12.023  66.952  1.00  0.00    -0.314 SA 
HETATM    8  S   UNL     1      -8.449  12.117  66.835  1.00  0.00    -0.140 SA 
BRANCH   7   9
HETATM    9  C   UNL     1     -11.334  12.066  65.123  1.00  0.00    -0.304 C  
HETATM   10  O   UNL     1     -13.097  13.720  65.387  1.00  0.00    -0.727 OA 
HETATM   11  O   UNL     1     -12.389  13.241  63.305  1.00  0.00    -0.721 OA 
HETATM   12  C   UNL     1     -12.311  13.053  64.511  1.00  0.00    -0.398 C  
ENDBRANCH   7   9
BRANCH   8  13
HETATM   13  C   UNL     1      -7.064  11.016  67.316  1.00  0.00    -0.097 C  
HETATM   14  C   UNL     1      -6.636  10.104  66.180  1.00  0.00    -0.098 C  
HETATM   15  O   UNL     1      -7.279  10.292  65.006  1.00  0.00    -0.136 OA 
HETATM   16  O   UNL     1      -5.755   9.265  66.308  1.00  0.00    -0.051 OA 
ENDBRANCH   8  13
ENDBRANCH   3   5
TORSDOF 3
ENDMDL
MODEL      108
REMARK 921   NORMALIZED FREE ENERGY PREDICTED BY IDOCK:   -3.68 KCAL/MOL
REMARK 922        TOTAL FREE ENERGY PREDICTED BY IDOCK:   -4.58 KCAL/MOL
REMARK 923 INTER-LIGAND FREE ENERGY PREDICTED BY IDOCK:   -4.32 KCAL/MOL
REMARK 924 INTRA-LIGAND FREE ENERGY PREDICTED BY IDOCK:   -0.26 KCAL/MOL
REMARK 927      BINDING AFFINITY PREDICTED BY RF-SCORE:    0.00 PKD
ROOT
HETATM    1  O   UNL     1     -12.754  13.982  64.890  1.00  0.00    -0.647 OA 
HETATM    2  C   UNL     1     -12.541  12.687  64.562  1.00  0.00    -0.412 C  
HETATM    3  C   UNL     1     -11.813  11.854  65.601  1.00  0.00    -0.043 C  
HETATM    4  O   UNL     1     -12.930  12.222  63.496  1.00  0.00    -0.776 OA 
ENDROOT
BRANCH   3   5
HETATM    5  S   UNL     1     -11.304  12.872  67.035  1.00  0.00    -0.327 SA 
HETATM    6  C   UNL     1     -11.870  11.838  68.443  1.00  0.00    -0.282 C  
HETATM    7  S   UNL     1     -10.922  10.264  68.442  1.00  0.00    -0.249 SA 
HETATM    8  S   UNL     1     -11.498  12.754  69.995  1.00  0.00     0.115 SA 
BRANCH   7   9
HETATM    9  C   UNL     1     -11.672   9.406  69.877  1.00  0.00     0.151 C  
HETATM   10  O   UNL     1      -9.426   8.501  70.097  1.00  0.00    -0.161 OA 
HETATM   11  O   UNL     1     -10.978   7.880  71.605  1.00  0.00    -0.230 OA 
HETATM   12  C   UNL     1     -10.677   8.526  70.611  1.00  0.00    -0.220 C  
ENDBRANCH   7   9
BRANCH   8  13
HETATM   13  C   UNL     1     -12.553  14.240  69.785  1.00  0.00    -0.106 C  
HETATM   14  C   UNL     1     -13.460  14.471  70.980  1.00  0.00    -0.289 C  
HETATM   15  O   UNL     1     -13.302  13.611  72.010  1.00  0.00    -0.387 OA 
HETATM   16  O   UNL     1     -14.272  15.386  71.021  1.00  0.00    -0.460 OA 
ENDBRANCH   8  13
ENDBRANCH   3   5
TORSDOF 3
ENDMDL
MODEL      109
REMARK 921   NORMALIZED FREE ENERGY PREDICTED BY IDOCK:   -3.67 KCAL/MOL
REMARK 922        TOTAL FREE ENERGY PREDICTED BY IDOCK:   -4.57 KCAL/MOL
REMARK 923 INTER-LIGAND FREE ENERGY PREDICTED BY IDOCK:   -4.21 KCAL/MOL
REMARK 924 INTRA-LIGAND FREE ENERGY PREDICTED BY IDOCK:   -0.35 KCAL/MOL
REMARK 927      BINDING AFFINITY PREDICTED BY RF-SCORE:    0.00 PKD
ROOT
HETATM    1  O   UNL     1     -13.385  12.304  71.924  1.00  0.00    -0.463 OA 
HETATM    2  C   UNL     1     -12.996  11.059  71.570  1.00  0.00    -0.448 C  
HETATM    3  C   UNL     1     -12.077  10.973  70.365  1.00  0.00    -0.373 C  
HETATM    4  O   UNL     1     -13.356  10.070  72.198  1.00  0.00    -0.444 OA 
ENDROOT
BRANCH   3   5
HETATM    5  S   UNL     1     -11.803  12.620  69.616  1.00  0.00    -0.266 SA 
HETATM    6  C   UNL     1     -10.548  12.239  68.329  1.00  0.00    -0.227 C  
HETATM    7  S   UNL     1     -11.300  11.118  67.083  1.00  0.00    -0.074 SA 
HETATM    8  S   UNL     1     -10.091  13.821  67.507  1.00  0.00    -0.244 SA 
BRANCH   7   9
HETATM    9  C   UNL     1      -9.881  10.854  65.953  1.00  0.00    -0.236 C  
HETATM   10  O   UNL     1     -11.395  11.866  64.342  1.00  0.00    -0.326 OA 
HETATM   11  O   UNL     1      -9.339  11.268  63.644  1.00  0.00    -0.215 OA 
HETATM   12  C   UNL     1     -10.164  11.341  64.544  1.00  0.00    -0.314 C  
ENDBRANCH   7   9
BRANCH   8  13
HETATM   13  C   UNL     1      -9.356  14.744  68.910  1.00  0.00    -0.184 C  
HETATM   14  C   UNL     1      -7.849  14.576  68.979  1.00  0.00    -0.106 C  
HETATM   15  O   UNL     1      -7.295  13.850  67.982  1.00  0.00    -0.109 OA 
HETATM   16  O   UNL     1      -7.172  15.077  69.866  1.00  0.00    -0.187 OA 
ENDBRANCH   8  13
ENDBRANCH   3   5
TORSDOF 3
ENDMDL
MODEL      110
REMARK 921   NORMALIZED FREE ENERGY PREDICTED BY IDOCK:   -3.66 KCAL/MOL
REMARK 922        TOTAL FREE ENERGY PREDICTED BY IDOCK:   -4.56 KCAL/MOL
REMARK 923 INTER-LIGAND FREE ENERGY PREDICTED BY IDOCK:   -4.24 KCAL/MOL
REMARK 924 INTRA-LIGAND FREE ENERGY PREDICTED BY IDOCK:   -0.32 KCAL/MOL
REMARK 927      BINDING AFFINITY PREDICTED BY RF-SCORE:    0.00 PKD
ROOT
HETATM    1  O   UNL     1     -12.083  13.690  68.470  1.00  0.00    -0.364 OA 
HETATM    2  C   UNL     1     -11.719  12.904  67.431  1.00  0.00    -0.372 C  
HETATM    3  C   UNL     1     -11.414  11.458  67.774  1.00  0.00    -0.281 C  
HETATM    4  O   UNL     1     -11.658  13.340  66.287  1.00  0.00    -0.318 OA 
ENDROOT
BRANCH   3   5
HETATM    5  S   UNL     1     -11.522  11.161  69.577  1.00  0.00    -0.334 SA 
HETATM    6  C   UNL     1     -10.764   9.495  69.725  1.00  0.00    -0.239 C  
HETATM    7  S   UNL     1      -8.998   9.601  69.227  1.00  0.00    -0.184 SA 
HETATM    8  S   UNL     1     -10.853   8.994  71.494  1.00  0.00    -0.368 SA 
BRANCH   7   9
HETATM    9  C   UNL     1      -8.479   7.853  69.415  1.00  0.00    -0.133 C  
HETATM   10  O   UNL     1      -7.170   8.778  71.243  1.00  0.00    -0.080 OA 
HETATM   11  O   UNL     1      -7.053   6.563  70.863  1.00  0.00    -0.066 OA 
HETATM   12  C   UNL     1      -7.507   7.658  70.564  1.00  0.00    -0.079 C  
ENDBRANCH   7   9
BRANCH   8  13
HETATM   13  C   UNL     1     -12.668   8.932  71.748  1.00  0.00    -0.364 C  
HETATM   14  C   UNL     1     -13.191   7.508  71.797  1.00  0.00    -0.316 C  
HETATM   15  O   UNL     1     -12.253   6.537  71.718  1.00  0.00    -0.344 OA 
HETATM   16  O   UNL     1     -14.380   7.248  71.917  1.00  0.00    -0.394 OA 
ENDBRANCH   8  13
ENDBRANCH   3   5
TORSDOF 3
ENDMDL
MODEL      111
REMARK 921   NORMALIZED FREE ENERGY PREDICTED BY IDOCK:   -3.64 KCAL/MOL
REMARK 922        TOTAL FREE ENERGY PREDICTED BY IDOCK:   -4.53 KCAL/MOL
REMARK 923 INTER-LIGAND FREE ENERGY PREDICTED BY IDOCK:   -4.25 KCAL/MOL
REMARK 924 INTRA-LIGAND FREE ENERGY PREDICTED BY IDOCK:   -0.28 KCAL/MOL
REMARK 927      BINDING AFFINITY PREDICTED BY RF-SCORE:    0.00 PKD
ROOT
HETATM    1  O   UNL     1     -10.361  10.328  64.794  1.00  0.00    -0.277 OA 
HETATM    2  C   UNL     1     -10.301  11.254  63.810  1.00  0.00    -0.395 C  
HETATM    3  C   UNL     1     -10.995  12.572  64.102  1.00  0.00    -0.381 C  
HETATM    4  O   UNL     1      -9.709  11.038  62.759  1.00  0.00    -0.302 OA 
ENDROOT
BRANCH   3   5
HETATM    5  S   UNL     1     -11.847  12.533  65.722  1.00  0.00    -0.417 SA 
HETATM    6  C   UNL     1     -10.451  12.809  66.883  1.00  0.00    -0.240 C  
HETATM    7  S   UNL     1      -9.762  14.488  66.593  1.00  0.00    -0.284 SA 
HETATM    8  S   UNL     1     -11.121  12.729  68.595  1.00  0.00    -0.280 SA 
BRANCH   7   9
HETATM    9  C   UNL     1      -8.392  14.515  67.810  1.00  0.00    -0.169 C  
HETATM   10  O   UNL     1      -9.754  16.259  68.818  1.00  0.00    -0.220 OA 
HETATM   11  O   UNL     1      -7.822  15.698  69.828  1.00  0.00    -0.164 OA 
HETATM   12  C   UNL     1      -8.615  15.535  68.911  1.00  0.00    -0.209 C  
ENDBRANCH   7   9
BRANCH   8  13
HETATM   13  C   UNL     1     -11.715  10.995  68.657  1.00  0.00    -0.296 C  
HETATM   14  C   UNL     1     -10.598  10.019  68.979  1.00  0.00    -0.214 C  
HETATM   15  O   UNL     1      -9.392  10.573  69.232  1.00  0.00    -0.199 OA 
HETATM   16  O   UNL     1     -10.776   8.809  69.026  1.00  0.00    -0.203 OA 
ENDBRANCH   8  13
ENDBRANCH   3   5
TORSDOF 3
ENDMDL
MODEL      112
REMARK 921   NORMALIZED FREE ENERGY PREDICTED BY IDOCK:   -3.63 KCAL/MOL
REMARK 922        TOTAL FREE ENERGY PREDICTED BY IDOCK:   -4.53 KCAL/MOL
REMARK 923 INTER-LIGAND FREE ENERGY PREDICTED BY IDOCK:   -4.23 KCAL/MOL
REMARK 924 INTRA-LIGAND FREE ENERGY PREDICTED BY IDOCK:   -0.30 KCAL/MOL
REMARK 927      BINDING AFFINITY PREDICTED BY RF-SCORE:    0.00 PKD
ROOT
HETATM    1  O   UNL     1     -13.713   9.752  70.967  1.00  0.00    -0.277 OA 
HETATM    2  C   UNL     1     -12.452   9.516  71.394  1.00  0.00    -0.362 C  
HETATM    3  C   UNL     1     -11.354  10.245  70.643  1.00  0.00    -0.347 C  
HETATM    4  O   UNL     1     -12.224   8.770  72.339  1.00  0.00    -0.370 OA 
ENDROOT
BRANCH   3   5
HETATM    5  S   UNL     1     -12.030  11.211  69.242  1.00  0.00    -0.315 SA 
HETATM    6  C   UNL     1     -10.713  11.005  67.979  1.00  0.00    -0.217 C  
HETATM    7  S   UNL     1     -10.614   9.232  67.509  1.00  0.00    -0.211 SA 
HETATM    8  S   UNL     1     -11.197  11.986  66.499  1.00  0.00    -0.346 SA 
BRANCH   7   9
HETATM    9  C   UNL     1      -9.238   9.270  66.299  1.00  0.00    -0.186 C  
HETATM   10  O   UNL     1      -7.903   8.883  68.293  1.00  0.00    -0.099 OA 
HETATM   11  O   UNL     1      -6.843   9.027  66.313  1.00  0.00    -0.076 OA 
HETATM   12  C   UNL     1      -7.886   9.052  66.951  1.00  0.00    -0.101 C  
ENDBRANCH   7   9
BRANCH   8  13
HETATM   13  C   UNL     1     -11.205  13.683  67.192  1.00  0.00    -0.309 C  
HETATM   14  C   UNL     1     -10.779  14.721  66.170  1.00  0.00    -0.314 C  
HETATM   15  O   UNL     1     -10.536  14.252  64.926  1.00  0.00    -0.393 OA 
HETATM   16  O   UNL     1     -10.677  15.909  66.443  1.00  0.00    -0.308 OA 
ENDBRANCH   8  13
ENDBRANCH   3   5
TORSDOF 3
ENDMDL
MODEL      113
REMARK 921   NORMALIZED FREE ENERGY PREDICTED BY IDOCK:   -3.62 KCAL/MOL
REMARK 922        TOTAL FREE ENERGY PREDICTED BY IDOCK:   -4.51 KCAL/MOL
REMARK 923 INTER-LIGAND FREE ENERGY PREDICTED BY IDOCK:   -4.09 KCAL/MOL
REMARK 924 INTRA-LIGAND FREE ENERGY PREDICTED BY IDOCK:   -0.42 KCAL/MOL
REMARK 927      BINDING AFFINITY PREDICTED BY RF-SCORE:    0.00 PKD
ROOT
HETATM    1  O   UNL     1     -10.044  12.155  66.733  1.00  0.00    -0.199 OA 
HETATM    2  C   UNL     1     -11.367  11.968  66.948  1.00  0.00    -0.341 C  
HETATM    3  C   UNL     1     -11.727  11.161  68.181  1.00  0.00    -0.232 C  
HETATM    4  O   UNL     1     -12.212  12.439  66.196  1.00  0.00    -0.635 OA 
ENDROOT
BRANCH   3   5
HETATM    5  S   UNL     1     -10.230  10.541  69.034  1.00  0.00    -0.227 SA 
HETATM    6  C   UNL     1     -10.457   8.723  68.909  1.00  0.00    -0.197 C  
HETATM    7  S   UNL     1     -10.396   8.239  67.137  1.00  0.00    -0.318 SA 
HETATM    8  S   UNL     1      -9.055   7.921  69.792  1.00  0.00    -0.145 SA 
BRANCH   7   9
HETATM    9  C   UNL     1     -10.678   6.433  67.261  1.00  0.00    -0.353 C  
HETATM   10  O   UNL     1      -8.601   6.350  66.001  1.00  0.00    -0.138 OA 
HETATM   11  O   UNL     1      -9.579   4.404  66.571  1.00  0.00    -0.165 OA 
HETATM   12  C   UNL     1      -9.583   5.627  66.587  1.00  0.00    -0.152 C  
ENDBRANCH   7   9
BRANCH   8  13
HETATM   13  C   UNL     1      -9.334   8.517  71.503  1.00  0.00    -0.222 C  
HETATM   14  C   UNL     1     -10.238   7.587  72.293  1.00  0.00    -0.206 C  
HETATM   15  O   UNL     1     -10.626   6.463  71.650  1.00  0.00    -0.213 OA 
HETATM   16  O   UNL     1     -10.582   7.825  73.442  1.00  0.00    -0.348 OA 
ENDBRANCH   8  13
ENDBRANCH   3   5
TORSDOF 3
ENDMDL
MODEL      114
REMARK 921   NORMALIZED FREE ENERGY PREDICTED BY IDOCK:   -3.61 KCAL/MOL
REMARK 922        TOTAL FREE ENERGY PREDICTED BY IDOCK:   -4.50 KCAL/MOL
REMARK 923 INTER-LIGAND FREE ENERGY PREDICTED BY IDOCK:   -4.21 KCAL/MOL
REMARK 924 INTRA-LIGAND FREE ENERGY PREDICTED BY IDOCK:   -0.29 KCAL/MOL
REMARK 927      BINDING AFFINITY PREDICTED BY RF-SCORE:    0.00 PKD
ROOT
HETATM    1  O   UNL     1     -13.356  12.707  71.811  1.00  0.00    -0.418 OA 
HETATM    2  C   UNL     1     -12.939  11.464  71.483  1.00  0.00    -0.399 C  
HETATM    3  C   UNL     1     -12.139  11.354  70.197  1.00  0.00    -0.357 C  
HETATM    4  O   UNL     1     -13.182  10.496  72.194  1.00  0.00    -0.458 OA 
ENDROOT
BRANCH   3   5
HETATM    5  S   UNL     1     -12.027  12.968  69.341  1.00  0.00    -0.241 SA 
HETATM    6  C   UNL     1     -10.739  12.628  68.076  1.00  0.00    -0.226 C  
HETATM    7  S   UNL     1     -11.374  11.359  66.910  1.00  0.00    -0.114 SA 
HETATM    8  S   UNL     1     -10.438  14.189  67.150  1.00  0.00    -0.271 SA 
BRANCH   7   9
HETATM    9  C   UNL     1      -9.934  11.162  65.793  1.00  0.00    -0.245 C  
HETATM   10  O   UNL     1      -9.525   9.216  67.192  1.00  0.00    -0.144 OA 
HETATM   11  O   UNL     1      -8.102   9.629  65.497  1.00  0.00    -0.116 OA 
HETATM   12  C   UNL     1      -9.098   9.943  66.134  1.00  0.00    -0.158 C  
ENDBRANCH   7   9
BRANCH   8  13
HETATM   13  C   UNL     1      -9.800  15.271  68.486  1.00  0.00    -0.210 C  
HETATM   14  C   UNL     1      -9.954  16.744  68.153  1.00  0.00    -0.270 C  
HETATM   15  O   UNL     1     -10.585  17.018  66.989  1.00  0.00    -0.303 OA 
HETATM   16  O   UNL     1      -9.554  17.631  68.894  1.00  0.00    -0.277 OA 
ENDBRANCH   8  13
ENDBRANCH   3   5
TORSDOF 3
ENDMDL
MODEL      115
REMARK 921   NORMALIZED FREE ENERGY PREDICTED BY IDOCK:   -3.59 KCAL/MOL
REMARK 922        TOTAL FREE ENERGY PREDICTED BY IDOCK:   -4.48 KCAL/MOL
REMARK 923 INTER-LIGAND FREE ENERGY PREDICTED BY IDOCK:   -4.22 KCAL/MOL
REMARK 924 INTRA-LIGAND FREE ENERGY PREDICTED BY IDOCK:   -0.26 KCAL/MOL
REMARK 927      BINDING AFFINITY PREDICTED BY RF-SCORE:    0.00 PKD
ROOT
HETATM    1  O   UNL     1      -8.432   9.612  70.795  1.00  0.00    -0.245 OA 
HETATM    2  C   UNL     1      -9.731   9.245  70.706  1.00  0.00    -0.282 C  
HETATM    3  C   UNL     1     -10.208   8.837  69.324  1.00  0.00    -0.210 C  
HETATM    4  O   UNL     1     -10.463   9.230  71.689  1.00  0.00    -0.344 OA 
ENDROOT
BRANCH   3   5
HETATM    5  S   UNL     1      -8.890   9.050  68.073  1.00  0.00    -0.129 SA 
HETATM    6  C   UNL     1      -9.819   9.801  66.678  1.00  0.00    -0.215 C  
HETATM    7  S   UNL     1     -10.440  11.450  67.199  1.00  0.00    -0.236 SA 
HETATM    8  S   UNL     1      -8.646  10.023  65.278  1.00  0.00    -0.165 SA 
BRANCH   7   9
HETATM    9  C   UNL     1     -11.346  11.971  65.694  1.00  0.00    -0.329 C  
HETATM   10  O   UNL     1     -12.281  13.617  67.220  1.00  0.00    -0.366 OA 
HETATM   11  O   UNL     1     -12.944  13.661  65.069  1.00  0.00    -0.724 OA 
HETATM   12  C   UNL     1     -12.263  13.153  65.949  1.00  0.00    -0.436 C  
ENDBRANCH   7   9
BRANCH   8  13
HETATM   13  C   UNL     1      -8.192   8.282  64.923  1.00  0.00    -0.151 C  
HETATM   14  C   UNL     1      -8.132   7.998  63.433  1.00  0.00    -0.101 C  
HETATM   15  O   UNL     1      -8.348   9.061  62.626  1.00  0.00    -0.176 OA 
HETATM   16  O   UNL     1      -7.888   6.887  62.985  1.00  0.00    -0.109 OA 
ENDBRANCH   8  13
ENDBRANCH   3   5
TORSDOF 3
ENDMDL
MODEL      116
REMARK 921   NORMALIZED FREE ENERGY PREDICTED BY IDOCK:   -3.58 KCAL/MOL
REMARK 922        TOTAL FREE ENERGY PREDICTED BY IDOCK:   -4.46 KCAL/MOL
REMARK 923 INTER-LIGAND FREE ENERGY PREDICTED BY IDOCK:   -4.22 KCAL/MOL
REMARK 924 INTRA-LIGAND FREE ENERGY PREDICTED BY IDOCK:   -0.25 KCAL/MOL
REMARK 927      BINDING AFFINITY PREDICTED BY RF-SCORE:    0.00 PKD
ROOT
HETATM    1  O   UNL     1     -10.692  13.705  64.258  1.00  0.00    -0.398 OA 
HETATM    2  C   UNL     1     -10.694  12.759  65.224  1.00  0.00    -0.294 C  
HETATM    3  C   UNL     1     -10.248  13.220  66.599  1.00  0.00    -0.265 C  
HETATM    4  O   UNL     1     -11.051  11.609  64.997  1.00  0.00    -0.299 OA 
ENDROOT
BRANCH   3   5
HETATM    5  S   UNL     1      -9.708  14.969  66.575  1.00  0.00    -0.283 SA 
HETATM    6  C   UNL     1      -8.705  15.070  68.109  1.00  0.00    -0.165 C  
HETATM    7  S   UNL     1      -7.241  13.974  67.933  1.00  0.00    -0.177 SA 
HETATM    8  S   UNL     1      -8.128  16.808  68.289  1.00  0.00    -0.211 SA 
BRANCH   7   9
HETATM    9  C   UNL     1      -6.435  14.207  69.562  1.00  0.00    -0.127 C  
HETATM   10  O   UNL     1      -6.511  11.777  69.584  1.00  0.00    -0.120 OA 
HETATM   11  O   UNL     1      -5.584  12.829  71.345  1.00  0.00    -0.367 OA 
HETATM   12  C   UNL     1      -6.133  12.890  70.254  1.00  0.00    -0.068 C  
ENDBRANCH   7   9
BRANCH   8  13
HETATM   13  C   UNL     1      -9.726  17.689  68.471  1.00  0.00    -0.328 C  
HETATM   14  C   UNL     1      -9.542  19.192  68.582  1.00  0.00    -0.413 C  
HETATM   15  O   UNL     1      -8.271  19.636  68.461  1.00  0.00    -0.336 OA 
HETATM   16  O   UNL     1     -10.481  19.958  68.751  1.00  0.00    -0.367 OA 
ENDBRANCH   8  13
ENDBRANCH   3   5
TORSDOF 3
ENDMDL
MODEL      117
REMARK 921   NORMALIZED FREE ENERGY PREDICTED BY IDOCK:   -3.58 KCAL/MOL
REMARK 922        TOTAL FREE ENERGY PREDICTED BY IDOCK:   -4.46 KCAL/MOL
REMARK 923 INTER-LIGAND FREE ENERGY PREDICTED BY IDOCK:   -4.20 KCAL/MOL
REMARK 924 INTRA-LIGAND FREE ENERGY PREDICTED BY IDOCK:   -0.27 KCAL/MOL
REMARK 927      BINDING AFFINITY PREDICTED BY RF-SCORE:    0.00 PKD
ROOT
HETATM    1  O   UNL     1     -11.567   8.482  69.957  1.00  0.00    -0.022 OA 
HETATM    2  C   UNL     1     -10.557   8.813  70.793  1.00  0.00    -0.220 C  
HETATM    3  C   UNL     1      -9.475   9.699  70.202  1.00  0.00    -0.253 C  
HETATM    4  O   UNL     1     -10.534   8.430  71.957  1.00  0.00    -0.260 OA 
ENDROOT
BRANCH   3   5
HETATM    5  S   UNL     1      -9.773  10.020  68.424  1.00  0.00    -0.149 SA 
HETATM    6  C   UNL     1      -9.215  11.762  68.263  1.00  0.00    -0.188 C  
HETATM    7  S   UNL     1      -7.411  11.841  68.606  1.00  0.00    -0.111 SA 
HETATM    8  S   UNL     1      -9.512  12.288  66.525  1.00  0.00    -0.237 SA 
BRANCH   7   9
HETATM    9  C   UNL     1      -7.102  13.639  68.428  1.00  0.00    -0.107 C  
HETATM   10  O   UNL     1      -5.155  12.853  67.203  1.00  0.00    -0.329 OA 
HETATM   11  O   UNL     1      -5.471  15.074  67.391  1.00  0.00    -0.343 OA 
HETATM   12  C   UNL     1      -5.844  13.935  67.633  1.00  0.00    -0.021 C  
ENDBRANCH   7   9
BRANCH   8  13
HETATM   13  C   UNL     1     -11.338  12.155  66.427  1.00  0.00    -0.356 C  
HETATM   14  C   UNL     1     -11.889  12.759  65.148  1.00  0.00    -0.391 C  
HETATM   15  O   UNL     1     -10.966  13.221  64.276  1.00  0.00    -0.378 OA 
HETATM   16  O   UNL     1     -13.088  12.809  64.909  1.00  0.00    -0.833 OA 
ENDBRANCH   8  13
ENDBRANCH   3   5
TORSDOF 3
ENDMDL
MODEL      118
REMARK 921   NORMALIZED FREE ENERGY PREDICTED BY IDOCK:   -3.57 KCAL/MOL
REMARK 922        TOTAL FREE ENERGY PREDICTED BY IDOCK:   -4.46 KCAL/MOL
REMARK 923 INTER-LIGAND FREE ENERGY PREDICTED BY IDOCK:   -4.11 KCAL/MOL
REMARK 924 INTRA-LIGAND FREE ENERGY PREDICTED BY IDOCK:   -0.35 KCAL/MOL
REMARK 927      BINDING AFFINITY PREDICTED BY RF-SCORE:    0.00 PKD
ROOT
HETATM    1  O   UNL     1      -9.642   6.352  66.113  1.00  0.00    -0.113 OA 
HETATM    2  C   UNL     1      -9.670   5.543  67.196  1.00  0.00    -0.142 C  
HETATM    3  C   UNL     1      -9.286   6.190  68.513  1.00  0.00    -0.115 C  
HETATM    4  O   UNL     1     -10.000   4.365  67.109  1.00  0.00    -0.196 OA 
ENDROOT
BRANCH   3   5
HETATM    5  S   UNL     1      -8.771   7.931  68.277  1.00  0.00    -0.129 SA 
HETATM    6  C   UNL     1     -10.167   8.839  69.051  1.00  0.00    -0.207 C  
HETATM    7  S   UNL     1     -10.204   8.450  70.847  1.00  0.00    -0.201 SA 
HETATM    8  S   UNL     1      -9.850  10.640  68.840  1.00  0.00    -0.204 SA 
BRANCH   7   9
HETATM    9  C   UNL     1     -11.667   9.416  71.381  1.00  0.00    -0.378 C  
HETATM   10  O   UNL     1     -12.668   7.205  71.529  1.00  0.00    -0.362 OA 
HETATM   11  O   UNL     1     -13.928   8.985  72.087  1.00  0.00    -0.431 OA 
HETATM   12  C   UNL     1     -12.859   8.534  71.700  1.00  0.00    -0.338 C  
ENDBRANCH   7   9
BRANCH   8  13
HETATM   13  C   UNL     1      -9.882  10.788  67.013  1.00  0.00    -0.187 C  
HETATM   14  C   UNL     1     -11.122  11.512  66.519  1.00  0.00    -0.282 C  
HETATM   15  O   UNL     1     -11.947  11.982  67.481  1.00  0.00    -0.572 OA 
HETATM   16  O   UNL     1     -11.355  11.679  65.330  1.00  0.00    -0.257 OA 
ENDBRANCH   8  13
ENDBRANCH   3   5
TORSDOF 3
ENDMDL
MODEL      119
REMARK 921   NORMALIZED FREE ENERGY PREDICTED BY IDOCK:   -3.57 KCAL/MOL
REMARK 922        TOTAL FREE ENERGY PREDICTED BY IDOCK:   -4.45 KCAL/MOL
REMARK 923 INTER-LIGAND FREE ENERGY PREDICTED BY IDOCK:   -4.22 KCAL/MOL
REMARK 924 INTRA-LIGAND FREE ENERGY PREDICTED BY IDOCK:   -0.23 KCAL/MOL
REMARK 927      BINDING AFFINITY PREDICTED BY RF-SCORE:    0.00 PKD
ROOT
HETATM    1  O   UNL     1      -7.962  10.735  65.837  1.00  0.00    -0.158 OA 
HETATM    2  C   UNL     1      -8.993   9.927  66.173  1.00  0.00    -0.150 C  
HETATM    3  C   UNL     1      -9.783  10.341  67.400  1.00  0.00    -0.160 C  
HETATM    4  O   UNL     1      -9.273   8.933  65.511  1.00  0.00    -0.220 OA 
ENDROOT
BRANCH   3   5
HETATM    5  S   UNL     1      -9.054  11.820  68.196  1.00  0.00    -0.188 SA 
HETATM    6  C   UNL     1      -9.609  13.160  67.069  1.00  0.00    -0.241 C  
HETATM    7  S   UNL     1     -11.442  13.269  67.136  1.00  0.00    -0.361 SA 
HETATM    8  S   UNL     1      -8.896  14.741  67.684  1.00  0.00    -0.188 SA 
BRANCH   7   9
HETATM    9  C   UNL     1     -11.753  14.614  65.931  1.00  0.00    -0.301 C  
HETATM   10  O   UNL     1     -12.710  12.791  64.637  1.00  0.00    -0.649 OA 
HETATM   11  O   UNL     1     -12.758  14.863  63.756  1.00  0.00    -0.754 OA 
HETATM   12  C   UNL     1     -12.449  14.118  64.676  1.00  0.00    -0.350 C  
ENDBRANCH   7   9
BRANCH   8  13
HETATM   13  C   UNL     1      -7.102  14.409  67.502  1.00  0.00    -0.175 C  
HETATM   14  C   UNL     1      -6.371  14.463  68.832  1.00  0.00    -0.091 C  
HETATM   15  O   UNL     1      -7.149  14.672  69.918  1.00  0.00    -0.148 OA 
HETATM   16  O   UNL     1      -5.161  14.311  68.923  1.00  0.00    -0.084 OA 
ENDBRANCH   8  13
ENDBRANCH   3   5
TORSDOF 3
ENDMDL
MODEL      120
REMARK 921   NORMALIZED FREE ENERGY PREDICTED BY IDOCK:   -3.53 KCAL/MOL
REMARK 922        TOTAL FREE ENERGY PREDICTED BY IDOCK:   -4.40 KCAL/MOL
REMARK 923 INTER-LIGAND FREE ENERGY PREDICTED BY IDOCK:   -4.85 KCAL/MOL
REMARK 924 INTRA-LIGAND FREE ENERGY PREDICTED BY IDOCK:    0.45 KCAL/MOL
REMARK 927      BINDING AFFINITY PREDICTED BY RF-SCORE:    0.00 PKD
ROOT
HETATM    1  O   UNL     1      -9.087  19.228  66.990  1.00  0.00    -0.281 OA 
HETATM    2  C   UNL     1      -8.417  18.412  67.835  1.00  0.00    -0.261 C  
HETATM    3  C   UNL     1      -8.813  16.948  67.791  1.00  0.00    -0.217 C  
HETATM    4  O   UNL     1      -7.538  18.837  68.576  1.00  0.00    -0.305 OA 
ENDROOT
BRANCH   3   5
HETATM    5  S   UNL     1     -10.209  16.668  66.640  1.00  0.00    -0.304 SA 
HETATM    6  C   UNL     1     -10.998  15.178  67.368  1.00  0.00    -0.314 C  
HETATM    7  S   UNL     1     -11.652  15.607  69.031  1.00  0.00    -0.396 SA 
HETATM    8  S   UNL     1     -12.404  14.700  66.281  1.00  0.00     0.086 SA 
BRANCH   7   9
HETATM    9  C   UNL     1     -12.339  13.993  69.561  1.00  0.00    -0.229 C  
HETATM   10  O   UNL     1     -10.137  13.204  68.897  1.00  0.00    -0.114 OA 
HETATM   11  O   UNL     1     -11.603  11.705  69.716  1.00  0.00    -0.294 OA 
HETATM   12  C   UNL     1     -11.343  12.859  69.405  1.00  0.00    -0.201 C  
ENDBRANCH   7   9
BRANCH   8  13
HETATM   13  C   UNL     1     -11.522  14.301  64.725  1.00  0.00    -0.393 C  
HETATM   14  C   UNL     1     -12.096  13.073  64.040  1.00  0.00    -0.450 C  
HETATM   15  O   UNL     1     -13.181  12.527  64.633  1.00  0.00    -0.848 OA 
HETATM   16  O   UNL     1     -11.623  12.615  63.009  1.00  0.00    -0.332 OA 
ENDBRANCH   8  13
ENDBRANCH   3   5
TORSDOF 3
ENDMDL
MODEL      121
REMARK 921   NORMALIZED FREE ENERGY PREDICTED BY IDOCK:   -3.51 KCAL/MOL
REMARK 922        TOTAL FREE ENERGY PREDICTED BY IDOCK:   -4.39 KCAL/MOL
REMARK 923 INTER-LIGAND FREE ENERGY PREDICTED BY IDOCK:   -4.08 KCAL/MOL
REMARK 924 INTRA-LIGAND FREE ENERGY PREDICTED BY IDOCK:   -0.31 KCAL/MOL
REMARK 927      BINDING AFFINITY PREDICTED BY RF-SCORE:    0.00 PKD
ROOT
HETATM    1  O   UNL     1     -11.018   7.021  66.900  1.00  0.00    -0.371 OA 
HETATM    2  C   UNL     1     -10.685   5.730  67.127  1.00  0.00    -0.275 C  
HETATM    3  C   UNL     1     -10.488   5.347  68.583  1.00  0.00    -0.129 C  
HETATM    4  O   UNL     1     -10.566   4.926  66.210  1.00  0.00    -0.306 OA 
ENDROOT
BRANCH   3   5
HETATM    5  S   UNL     1     -10.661   6.799  69.685  1.00  0.00    -0.250 SA 
HETATM    6  C   UNL     1     -11.148   6.007  71.268  1.00  0.00    -0.274 C  
HETATM    7  S   UNL     1      -9.761   4.954  71.855  1.00  0.00    -0.170 SA 
HETATM    8  S   UNL     1     -11.439   7.345  72.498  1.00  0.00    -0.282 SA 
BRANCH   7   9
HETATM    9  C   UNL     1     -10.481   4.256  73.390  1.00  0.00    -0.190 C  
HETATM   10  O   UNL     1     -10.215   2.165  72.178  1.00  0.00    -0.160 OA 
HETATM   11  O   UNL     1     -11.066   2.089  74.261  1.00  0.00    -0.134 OA 
HETATM   12  C   UNL     1     -10.619   2.746  73.331  1.00  0.00    -0.167 C  
ENDBRANCH   7   9
BRANCH   8  13
HETATM   13  C   UNL     1     -12.849   8.228  71.726  1.00  0.00    -0.338 C  
HETATM   14  C   UNL     1     -12.472   9.629  71.279  1.00  0.00    -0.355 C  
HETATM   15  O   UNL     1     -11.175   9.969  71.452  1.00  0.00    -0.306 OA 
HETATM   16  O   UNL     1     -13.281  10.398  70.778  1.00  0.00    -0.375 OA 
ENDBRANCH   8  13
ENDBRANCH   3   5
TORSDOF 3
ENDMDL
MODEL      122
REMARK 921   NORMALIZED FREE ENERGY PREDICTED BY IDOCK:   -3.51 KCAL/MOL
REMARK 922        TOTAL FREE ENERGY PREDICTED BY IDOCK:   -4.38 KCAL/MOL
REMARK 923 INTER-LIGAND FREE ENERGY PREDICTED BY IDOCK:   -4.09 KCAL/MOL
REMARK 924 INTRA-LIGAND FREE ENERGY PREDICTED BY IDOCK:   -0.29 KCAL/MOL
REMARK 927      BINDING AFFINITY PREDICTED BY RF-SCORE:    0.00 PKD
ROOT
HETATM    1  O   UNL     1     -10.992  16.721  69.552  1.00  0.00    -0.297 OA 
HETATM    2  C   UNL     1     -10.835  16.848  68.215  1.00  0.00    -0.357 C  
HETATM    3  C   UNL     1     -10.584  15.559  67.454  1.00  0.00    -0.292 C  
HETATM    4  O   UNL     1     -10.907  17.939  67.660  1.00  0.00    -0.375 OA 
ENDROOT
BRANCH   3   5
HETATM    5  S   UNL     1     -10.456  14.128  68.590  1.00  0.00    -0.248 SA 
HETATM    6  C   UNL     1     -10.817  12.725  67.461  1.00  0.00    -0.239 C  
HETATM    7  S   UNL     1      -9.489  12.624  66.196  1.00  0.00    -0.117 SA 
HETATM    8  S   UNL     1     -10.802  11.182  68.464  1.00  0.00    -0.223 SA 
BRANCH   7   9
HETATM    9  C   UNL     1     -10.075  11.211  65.188  1.00  0.00    -0.281 C  
HETATM   10  O   UNL     1      -7.837  10.378  65.641  1.00  0.00    -0.146 OA 
HETATM   11  O   UNL     1      -9.222   9.098  64.412  1.00  0.00    -0.088 OA 
HETATM   12  C   UNL     1      -9.022  10.130  65.037  1.00  0.00    -0.195 C  
ENDBRANCH   7   9
BRANCH   8  13
HETATM   13  C   UNL     1     -12.196  11.497  69.612  1.00  0.00    -0.229 C  
HETATM   14  C   UNL     1     -12.320  10.418  70.672  1.00  0.00    -0.346 C  
HETATM   15  O   UNL     1     -11.368   9.459  70.645  1.00  0.00    -0.263 OA 
HETATM   16  O   UNL     1     -13.212  10.419  71.510  1.00  0.00    -0.391 OA 
ENDBRANCH   8  13
ENDBRANCH   3   5
TORSDOF 3
ENDMDL
MODEL      123
REMARK 921   NORMALIZED FREE ENERGY PREDICTED BY IDOCK:   -3.48 KCAL/MOL
REMARK 922        TOTAL FREE ENERGY PREDICTED BY IDOCK:   -4.35 KCAL/MOL
REMARK 923 INTER-LIGAND FREE ENERGY PREDICTED BY IDOCK:   -4.04 KCAL/MOL
REMARK 924 INTRA-LIGAND FREE ENERGY PREDICTED BY IDOCK:   -0.31 KCAL/MOL
REMARK 927      BINDING AFFINITY PREDICTED BY RF-SCORE:    0.00 PKD
ROOT
HETATM    1  O   UNL     1      -8.573   5.519  65.924  1.00  0.00    -0.130 OA 
HETATM    2  C   UNL     1      -8.034   6.402  65.052  1.00  0.00    -0.120 C  
HETATM    3  C   UNL     1      -8.469   7.846  65.222  1.00  0.00    -0.104 C  
HETATM    4  O   UNL     1      -7.235   6.049  64.193  1.00  0.00    -0.051 OA 
ENDROOT
BRANCH   3   5
HETATM    5  S   UNL     1      -9.728   8.013  66.541  1.00  0.00    -0.201 SA 
HETATM    6  C   UNL     1      -9.623   9.805  66.930  1.00  0.00    -0.180 C  
HETATM    7  S   UNL     1     -10.150  10.764  65.454  1.00  0.00    -0.289 SA 
HETATM    8  S   UNL     1     -10.790  10.148  68.310  1.00  0.00    -0.245 SA 
BRANCH   7   9
HETATM    9  C   UNL     1      -9.927  12.480  66.057  1.00  0.00    -0.257 C  
HETATM   10  O   UNL     1     -12.332  12.569  65.709  1.00  0.00    -0.627 OA 
HETATM   11  O   UNL     1     -11.302  14.406  66.505  1.00  0.00    -0.331 OA 
HETATM   12  C   UNL     1     -11.235  13.248  66.116  1.00  0.00    -0.296 C  
ENDBRANCH   7   9
BRANCH   8  13
HETATM   13  C   UNL     1     -10.061   9.126  69.647  1.00  0.00    -0.198 C  
HETATM   14  C   UNL     1     -10.640   9.466  71.008  1.00  0.00    -0.330 C  
HETATM   15  O   UNL     1     -11.624  10.393  71.011  1.00  0.00    -0.346 OA 
HETATM   16  O   UNL     1     -10.258   8.927  72.038  1.00  0.00    -0.334 OA 
ENDBRANCH   8  13
ENDBRANCH   3   5
TORSDOF 3
ENDMDL
MODEL      124
REMARK 921   NORMALIZED FREE ENERGY PREDICTED BY IDOCK:   -3.47 KCAL/MOL
REMARK 922        TOTAL FREE ENERGY PREDICTED BY IDOCK:   -4.34 KCAL/MOL
REMARK 923 INTER-LIGAND FREE ENERGY PREDICTED BY IDOCK:   -3.92 KCAL/MOL
REMARK 924 INTRA-LIGAND FREE ENERGY PREDICTED BY IDOCK:   -0.42 KCAL/MOL
REMARK 927      BINDING AFFINITY PREDICTED BY RF-SCORE:    0.00 PKD
ROOT
HETATM    1  O   UNL     1      -9.012   6.000  65.974  1.00  0.00    -0.151 OA 
HETATM    2  C   UNL     1      -9.940   5.440  66.783  1.00  0.00    -0.192 C  
HETATM    3  C   UNL     1     -10.924   6.403  67.423  1.00  0.00    -0.376 C  
HETATM    4  O   UNL     1      -9.983   4.230  66.970  1.00  0.00    -0.206 OA 
ENDROOT
BRANCH   3   5
HETATM    5  S   UNL     1     -10.529   8.140  67.001  1.00  0.00    -0.276 SA 
HETATM    6  C   UNL     1     -10.258   8.873  68.662  1.00  0.00    -0.200 C  
HETATM    7  S   UNL     1      -8.788   8.080  69.427  1.00  0.00    -0.144 SA 
HETATM    8  S   UNL     1      -9.914  10.667  68.433  1.00  0.00    -0.171 SA 
BRANCH   7   9
HETATM    9  C   UNL     1      -8.743   8.926  71.052  1.00  0.00    -0.224 C  
HETATM   10  O   UNL     1     -10.157   7.058  71.700  1.00  0.00    -0.183 OA 
HETATM   11  O   UNL     1      -9.623   8.583  73.267  1.00  0.00    -0.107 OA 
HETATM   12  C   UNL     1      -9.540   8.189  72.112  1.00  0.00    -0.242 C  
ENDBRANCH   7   9
BRANCH   8  13
HETATM   13  C   UNL     1     -11.495  11.234  67.698  1.00  0.00    -0.264 C  
HETATM   14  C   UNL     1     -11.290  11.916  66.357  1.00  0.00    -0.339 C  
HETATM   15  O   UNL     1     -10.019  11.933  65.898  1.00  0.00    -0.222 OA 
HETATM   16  O   UNL     1     -12.214  12.404  65.721  1.00  0.00    -0.620 OA 
ENDBRANCH   8  13
ENDBRANCH   3   5
TORSDOF 3
ENDMDL
MODEL      125
REMARK 921   NORMALIZED FREE ENERGY PREDICTED BY IDOCK:   -3.46 KCAL/MOL
REMARK 922        TOTAL FREE ENERGY PREDICTED BY IDOCK:   -4.32 KCAL/MOL
REMARK 923 INTER-LIGAND FREE ENERGY PREDICTED BY IDOCK:   -4.03 KCAL/MOL
REMARK 924 INTRA-LIGAND FREE ENERGY PREDICTED BY IDOCK:   -0.29 KCAL/MOL
REMARK 927      BINDING AFFINITY PREDICTED BY RF-SCORE:    0.00 PKD
ROOT
HETATM    1  O   UNL     1     -10.810  12.689  65.383  1.00  0.00    -0.276 OA 
HETATM    2  C   UNL     1     -10.899  13.316  66.578  1.00  0.00    -0.281 C  
HETATM    3  C   UNL     1     -10.973  12.411  67.793  1.00  0.00    -0.228 C  
HETATM    4  O   UNL     1     -10.905  14.539  66.663  1.00  0.00    -0.300 OA 
ENDROOT
BRANCH   3   5
HETATM    5  S   UNL     1     -11.024  10.646  67.309  1.00  0.00    -0.241 SA 
HETATM    6  C   UNL     1     -10.320   9.832  68.798  1.00  0.00    -0.208 C  
HETATM    7  S   UNL     1     -11.453  10.111  70.217  1.00  0.00    -0.323 SA 
HETATM    8  S   UNL     1     -10.226   8.026  68.458  1.00  0.00    -0.203 SA 
BRANCH   7   9
HETATM    9  C   UNL     1     -10.541   9.262  71.561  1.00  0.00    -0.335 C  
HETATM   10  O   UNL     1     -12.735   8.316  72.011  1.00  0.00    -0.321 OA 
HETATM   11  O   UNL     1     -11.013   7.681  73.315  1.00  0.00    -0.400 OA 
HETATM   12  C   UNL     1     -11.434   8.349  72.381  1.00  0.00    -0.380 C  
ENDBRANCH   7   9
BRANCH   8  13
HETATM   13  C   UNL     1      -9.047   7.996  67.054  1.00  0.00    -0.144 C  
HETATM   14  C   UNL     1      -9.241   6.777  66.170  1.00  0.00    -0.084 C  
HETATM   15  O   UNL     1     -10.269   5.967  66.507  1.00  0.00    -0.184 OA 
HETATM   16  O   UNL     1      -8.528   6.547  65.203  1.00  0.00    -0.128 OA 
ENDBRANCH   8  13
ENDBRANCH   3   5
TORSDOF 3
ENDMDL
MODEL      126
REMARK 921   NORMALIZED FREE ENERGY PREDICTED BY IDOCK:   -3.45 KCAL/MOL
REMARK 922        TOTAL FREE ENERGY PREDICTED BY IDOCK:   -4.31 KCAL/MOL
REMARK 923 INTER-LIGAND FREE ENERGY PREDICTED BY IDOCK:   -4.33 KCAL/MOL
REMARK 924 INTRA-LIGAND FREE ENERGY PREDICTED BY IDOCK:    0.01 KCAL/MOL
REMARK 927      BINDING AFFINITY PREDICTED BY RF-SCORE:    0.00 PKD
ROOT
HETATM    1  O   UNL     1      -9.130  18.254  67.685  1.00  0.00    -0.259 OA 
HETATM    2  C   UNL     1     -10.289  18.529  67.044  1.00  0.00    -0.399 C  
HETATM    3  C   UNL     1     -10.744  17.494  66.031  1.00  0.00    -0.116 C  
HETATM    4  O   UNL     1     -10.930  19.546  67.284  1.00  0.00    -0.499 OA 
ENDROOT
BRANCH   3   5
HETATM    5  S   UNL     1      -9.519  16.145  65.859  1.00  0.00    -0.240 SA 
HETATM    6  C   UNL     1      -9.866  15.135  67.353  1.00  0.00    -0.224 C  
HETATM    7  S   UNL     1     -11.563  14.443  67.220  1.00  0.00    -0.392 SA 
HETATM    8  S   UNL     1      -8.659  13.747  67.385  1.00  0.00    -0.211 SA 
BRANCH   7   9
HETATM    9  C   UNL     1     -11.691  13.530  68.804  1.00  0.00    -0.337 C  
HETATM   10  O   UNL     1     -12.082  15.763  69.684  1.00  0.00    -0.355 OA 
HETATM   11  O   UNL     1     -12.118  14.029  71.120  1.00  0.00    -0.342 OA 
HETATM   12  C   UNL     1     -11.982  14.446  69.979  1.00  0.00    -0.334 C  
ENDBRANCH   7   9
BRANCH   8  13
HETATM   13  C   UNL     1      -7.078  14.662  67.544  1.00  0.00    -0.178 C  
HETATM   14  C   UNL     1      -6.959  15.370  68.882  1.00  0.00    -0.127 C  
HETATM   15  O   UNL     1      -7.976  15.161  69.747  1.00  0.00    -0.192 OA 
HETATM   16  O   UNL     1      -5.998  16.070  69.171  1.00  0.00    -0.118 OA 
ENDBRANCH   8  13
ENDBRANCH   3   5
TORSDOF 3
ENDMDL
MODEL      127
REMARK 921   NORMALIZED FREE ENERGY PREDICTED BY IDOCK:   -3.41 KCAL/MOL
REMARK 922        TOTAL FREE ENERGY PREDICTED BY IDOCK:   -4.27 KCAL/MOL
REMARK 923 INTER-LIGAND FREE ENERGY PREDICTED BY IDOCK:   -3.91 KCAL/MOL
REMARK 924 INTRA-LIGAND FREE ENERGY PREDICTED BY IDOCK:   -0.36 KCAL/MOL
REMARK 927      BINDING AFFINITY PREDICTED BY RF-SCORE:    0.00 PKD
ROOT
HETATM    1  O   UNL     1     -10.595  13.202  65.551  1.00  0.00    -0.278 OA 
HETATM    2  C   UNL     1      -9.902  14.039  66.356  1.00  0.00    -0.296 C  
HETATM    3  C   UNL     1      -9.076  13.375  67.443  1.00  0.00    -0.216 C  
HETATM    4  O   UNL     1      -9.934  15.254  66.200  1.00  0.00    -0.264 OA 
ENDROOT
BRANCH   3   5
HETATM    5  S   UNL     1      -9.315  11.560  67.449  1.00  0.00    -0.168 SA 
HETATM    6  C   UNL     1     -10.150  11.301  69.063  1.00  0.00    -0.128 C  
HETATM    7  S   UNL     1     -11.788  12.134  69.024  1.00  0.00    -0.278 SA 
HETATM    8  S   UNL     1     -10.409   9.492  69.276  1.00  0.00    -0.217 SA 
BRANCH   7   9
HETATM    9  C   UNL     1     -12.399  11.779  70.714  1.00  0.00    -0.337 C  
HETATM   10  O   UNL     1     -12.761  14.183  70.739  1.00  0.00    -0.329 OA 
HETATM   11  O   UNL     1     -13.333  13.001  72.567  1.00  0.00    -0.519 OA 
HETATM   12  C   UNL     1     -12.874  13.028  71.433  1.00  0.00    -0.292 C  
ENDBRANCH   7   9
BRANCH   8  13
HETATM   13  C   UNL     1      -8.677   8.893  69.313  1.00  0.00    -0.138 C  
HETATM   14  C   UNL     1      -8.064   8.995  70.698  1.00  0.00    -0.162 C  
HETATM   15  O   UNL     1      -8.893   9.433  71.672  1.00  0.00    -0.243 OA 
HETATM   16  O   UNL     1      -6.903   8.686  70.927  1.00  0.00    -0.049 OA 
ENDBRANCH   8  13
ENDBRANCH   3   5
TORSDOF 3
ENDMDL
MODEL      128
REMARK 921   NORMALIZED FREE ENERGY PREDICTED BY IDOCK:   -3.36 KCAL/MOL
REMARK 922        TOTAL FREE ENERGY PREDICTED BY IDOCK:   -4.21 KCAL/MOL
REMARK 923 INTER-LIGAND FREE ENERGY PREDICTED BY IDOCK:   -3.84 KCAL/MOL
REMARK 924 INTRA-LIGAND FREE ENERGY PREDICTED BY IDOCK:   -0.37 KCAL/MOL
REMARK 927      BINDING AFFINITY PREDICTED BY RF-SCORE:    0.00 PKD
ROOT
HETATM    1  O   UNL     1     -12.141  11.218  68.124  1.00  0.00    -0.635 OA 
HETATM    2  C   UNL     1     -11.301  11.678  67.169  1.00  0.00    -0.306 C  
HETATM    3  C   UNL     1      -9.827  11.399  67.396  1.00  0.00    -0.182 C  
HETATM    4  O   UNL     1     -11.717  12.268  66.178  1.00  0.00    -0.412 OA 
ENDROOT
BRANCH   3   5
HETATM    5  S   UNL     1      -9.544  10.573  69.005  1.00  0.00    -0.194 SA 
HETATM    6  C   UNL     1      -9.216   8.844  68.482  1.00  0.00    -0.137 C  
HETATM    7  S   UNL     1      -7.667   8.808  67.494  1.00  0.00    -0.101 SA 
HETATM    8  S   UNL     1      -8.975   7.835  70.002  1.00  0.00    -0.142 SA 
BRANCH   7   9
HETATM    9  C   UNL     1      -7.572   7.029  67.063  1.00  0.00    -0.102 C  
HETATM   10  O   UNL     1      -8.503   7.822  64.962  1.00  0.00    -0.128 OA 
HETATM   11  O   UNL     1      -8.070   5.623  65.173  1.00  0.00    -0.113 OA 
HETATM   12  C   UNL     1      -8.066   6.746  65.656  1.00  0.00    -0.122 C  
ENDBRANCH   7   9
BRANCH   8  13
HETATM   13  C   UNL     1     -10.622   7.997  70.793  1.00  0.00    -0.214 C  
HETATM   14  C   UNL     1     -11.507   6.793  70.525  1.00  0.00    -0.360 C  
HETATM   15  O   UNL     1     -10.932   5.789  69.825  1.00  0.00    -0.357 OA 
HETATM   16  O   UNL     1     -12.659   6.722  70.929  1.00  0.00    -0.336 OA 
ENDBRANCH   8  13
ENDBRANCH   3   5
TORSDOF 3
ENDMDL
MODEL      129
REMARK 921   NORMALIZED FREE ENERGY PREDICTED BY IDOCK:   -3.34 KCAL/MOL
REMARK 922        TOTAL FREE ENERGY PREDICTED BY IDOCK:   -4.19 KCAL/MOL
REMARK 923 INTER-LIGAND FREE ENERGY PREDICTED BY IDOCK:   -3.88 KCAL/MOL
REMARK 924 INTRA-LIGAND FREE ENERGY PREDICTED BY IDOCK:   -0.31 KCAL/MOL
REMARK 927      BINDING AFFINITY PREDICTED BY RF-SCORE:    0.00 PKD
ROOT
HETATM    1  O   UNL     1      -8.532   6.626  69.433  1.00  0.00    -0.129 OA 
HETATM    2  C   UNL     1      -9.838   6.819  69.728  1.00  0.00    -0.166 C  
HETATM    3  C   UNL     1     -10.524   7.946  68.978  1.00  0.00    -0.198 C  
HETATM    4  O   UNL     1     -10.424   6.112  70.540  1.00  0.00    -0.209 OA 
ENDROOT
BRANCH   3   5
HETATM    5  S   UNL     1      -9.346   8.849  67.906  1.00  0.00    -0.142 SA 
HETATM    6  C   UNL     1     -10.389  10.227  67.287  1.00  0.00    -0.232 C  
HETATM    7  S   UNL     1     -10.867  11.293  68.706  1.00  0.00    -0.223 SA 
HETATM    8  S   UNL     1      -9.372  11.218  66.116  1.00  0.00    -0.216 SA 
BRANCH   7   9
HETATM    9  C   UNL     1     -11.910  12.543  67.865  1.00  0.00    -0.323 C  
HETATM   10  O   UNL     1     -10.097  14.024  68.523  1.00  0.00    -0.230 OA 
HETATM   11  O   UNL     1     -11.820  14.898  67.368  1.00  0.00    -0.348 OA 
HETATM   12  C   UNL     1     -11.287  13.927  67.888  1.00  0.00    -0.292 C  
ENDBRANCH   7   9
BRANCH   8  13
HETATM   13  C   UNL     1      -9.046   9.980  64.804  1.00  0.00    -0.224 C  
HETATM   14  C   UNL     1      -9.558  10.433  63.448  1.00  0.00    -0.312 C  
HETATM   15  O   UNL     1     -10.095  11.673  63.411  1.00  0.00    -0.371 OA 
HETATM   16  O   UNL     1      -9.476   9.734  62.448  1.00  0.00    -0.259 OA 
ENDBRANCH   8  13
ENDBRANCH   3   5
TORSDOF 3
ENDMDL
MODEL      130
REMARK 921   NORMALIZED FREE ENERGY PREDICTED BY IDOCK:   -3.33 KCAL/MOL
REMARK 922        TOTAL FREE ENERGY PREDICTED BY IDOCK:   -4.17 KCAL/MOL
REMARK 923 INTER-LIGAND FREE ENERGY PREDICTED BY IDOCK:   -3.81 KCAL/MOL
REMARK 924 INTRA-LIGAND FREE ENERGY PREDICTED BY IDOCK:   -0.36 KCAL/MOL
REMARK 927      BINDING AFFINITY PREDICTED BY RF-SCORE:    0.00 PKD
ROOT
HETATM    1  O   UNL     1      -9.093   9.868  63.489  1.00  0.00    -0.239 OA 
HETATM    2  C   UNL     1      -8.150   8.931  63.734  1.00  0.00    -0.163 C  
HETATM    3  C   UNL     1      -7.244   9.203  64.922  1.00  0.00    -0.097 C  
HETATM    4  O   UNL     1      -8.051   7.923  63.045  1.00  0.00    -0.155 OA 
ENDROOT
BRANCH   3   5
HETATM    5  S   UNL     1      -7.607  10.829  65.680  1.00  0.00     0.023 SA 
HETATM    6  C   UNL     1      -8.715  10.353  67.066  1.00  0.00    -0.130 C  
HETATM    7  S   UNL     1      -7.767   9.321  68.254  1.00  0.00    -0.087 SA 
HETATM    8  S   UNL     1      -9.247  11.898  67.913  1.00  0.00    -0.194 SA 
BRANCH   7   9
HETATM    9  C   UNL     1      -9.061   8.946  69.497  1.00  0.00    -0.146 C  
HETATM   10  O   UNL     1      -7.272   9.498  71.049  1.00  0.00    -0.269 OA 
HETATM   11  O   UNL     1      -9.280   8.930  71.894  1.00  0.00    -0.310 OA 
HETATM   12  C   UNL     1      -8.565   9.118  70.920  1.00  0.00    -0.206 C  
ENDBRANCH   7   9
BRANCH   8  13
HETATM   13  C   UNL     1     -10.173  12.732  66.568  1.00  0.00    -0.253 C  
HETATM   14  C   UNL     1     -11.646  12.363  66.573  1.00  0.00    -0.387 C  
HETATM   15  O   UNL     1     -12.044  11.557  67.582  1.00  0.00    -0.623 OA 
HETATM   16  O   UNL     1     -12.430  12.780  65.732  1.00  0.00    -0.579 OA 
ENDBRANCH   8  13
ENDBRANCH   3   5
TORSDOF 3
ENDMDL
MODEL      131
REMARK 921   NORMALIZED FREE ENERGY PREDICTED BY IDOCK:   -3.33 KCAL/MOL
REMARK 922        TOTAL FREE ENERGY PREDICTED BY IDOCK:   -4.17 KCAL/MOL
REMARK 923 INTER-LIGAND FREE ENERGY PREDICTED BY IDOCK:   -4.91 KCAL/MOL
REMARK 924 INTRA-LIGAND FREE ENERGY PREDICTED BY IDOCK:    0.74 KCAL/MOL
REMARK 927      BINDING AFFINITY PREDICTED BY RF-SCORE:    0.00 PKD
ROOT
HETATM    1  O   UNL     1     -10.587  16.420  69.875  1.00  0.00    -0.298 OA 
HETATM    2  C   UNL     1     -10.061  17.072  68.814  1.00  0.00    -0.307 C  
HETATM    3  C   UNL     1      -9.362  16.202  67.785  1.00  0.00    -0.211 C  
HETATM    4  O   UNL     1     -10.161  18.288  68.693  1.00  0.00    -0.370 OA 
ENDROOT
BRANCH   3   5
HETATM    5  S   UNL     1      -9.322  14.449  68.310  1.00  0.00    -0.210 SA 
HETATM    6  C   UNL     1     -10.883  13.809  67.585  1.00  0.00    -0.254 C  
HETATM    7  S   UNL     1     -10.768  13.902  65.754  1.00  0.00    -0.297 SA 
HETATM    8  S   UNL     1     -11.048  12.044  68.081  1.00  0.00    -0.267 SA 
BRANCH   7   9
HETATM    9  C   UNL     1     -12.416  13.262  65.270  1.00  0.00    -0.489 C  
HETATM   10  O   UNL     1     -11.166  12.412  63.365  1.00  0.00    -0.456 OA 
HETATM   11  O   UNL     1     -13.372  11.972  63.475  1.00  0.00    -0.649 OA 
HETATM   12  C   UNL     1     -12.378  12.492  63.963  1.00  0.00    -0.469 C  
ENDBRANCH   7   9
BRANCH   8  13
HETATM   13  C   UNL     1     -11.169  12.203  69.904  1.00  0.00     0.097 C  
HETATM   14  C   UNL     1     -12.057  13.361  70.320  1.00  0.00    -0.349 C  
HETATM   15  O   UNL     1     -12.659  14.029  69.310  1.00  0.00    -0.151 OA 
HETATM   16  O   UNL     1     -12.236  13.664  71.492  1.00  0.00    -0.231 OA 
ENDBRANCH   8  13
ENDBRANCH   3   5
TORSDOF 3
ENDMDL
MODEL      132
REMARK 921   NORMALIZED FREE ENERGY PREDICTED BY IDOCK:   -3.31 KCAL/MOL
REMARK 922        TOTAL FREE ENERGY PREDICTED BY IDOCK:   -4.15 KCAL/MOL
REMARK 923 INTER-LIGAND FREE ENERGY PREDICTED BY IDOCK:   -4.07 KCAL/MOL
REMARK 924 INTRA-LIGAND FREE ENERGY PREDICTED BY IDOCK:   -0.08 KCAL/MOL
REMARK 927      BINDING AFFINITY PREDICTED BY RF-SCORE:    0.00 PKD
ROOT
HETATM    1  O   UNL     1     -12.203  13.850  68.280  1.00  0.00    -0.332 OA 
HETATM    2  C   UNL     1     -11.874  13.209  67.136  1.00  0.00    -0.369 C  
HETATM    3  C   UNL     1     -11.587  11.725  67.271  1.00  0.00    -0.269 C  
HETATM    4  O   UNL     1     -11.827  13.796  66.061  1.00  0.00    -0.353 OA 
ENDROOT
BRANCH   3   5
HETATM    5  S   UNL     1     -11.665  11.186  69.019  1.00  0.00    -0.354 SA 
HETATM    6  C   UNL     1     -10.305   9.954  69.089  1.00  0.00    -0.209 C  
HETATM    7  S   UNL     1      -8.710  10.814  68.784  1.00  0.00    -0.156 SA 
HETATM    8  S   UNL     1     -10.282   9.241  70.785  1.00  0.00    -0.305 SA 
BRANCH   7   9
HETATM    9  C   UNL     1      -7.537   9.408  68.863  1.00  0.00    -0.075 C  
HETATM   10  O   UNL     1      -6.734  10.608  70.819  1.00  0.00    -0.322 OA 
HETATM   11  O   UNL     1      -5.734   8.666  70.275  1.00  0.00    -0.024 OA 
HETATM   12  C   UNL     1      -6.584   9.513  70.039  1.00  0.00    -0.065 C  
ENDBRANCH   7   9
BRANCH   8  13
HETATM   13  C   UNL     1     -11.926   8.431  70.847  1.00  0.00    -0.177 C  
HETATM   14  C   UNL     1     -12.941   9.255  71.618  1.00  0.00    -0.374 C  
HETATM   15  O   UNL     1     -12.504  10.454  72.063  1.00  0.00    -0.290 OA 
HETATM   16  O   UNL     1     -14.087   8.873  71.810  1.00  0.00    -0.394 OA 
ENDBRANCH   8  13
ENDBRANCH   3   5
TORSDOF 3
ENDMDL
MODEL      133
REMARK 921   NORMALIZED FREE ENERGY PREDICTED BY IDOCK:   -3.28 KCAL/MOL
REMARK 922        TOTAL FREE ENERGY PREDICTED BY IDOCK:   -4.12 KCAL/MOL
REMARK 923 INTER-LIGAND FREE ENERGY PREDICTED BY IDOCK:   -3.69 KCAL/MOL
REMARK 924 INTRA-LIGAND FREE ENERGY PREDICTED BY IDOCK:   -0.42 KCAL/MOL
REMARK 927      BINDING AFFINITY PREDICTED BY RF-SCORE:    0.00 PKD
ROOT
HETATM    1  O   UNL     1      -8.794  11.852  67.340  1.00  0.00    -0.160 OA 
HETATM    2  C   UNL     1      -9.673  11.234  66.518  1.00  0.00    -0.202 C  
HETATM    3  C   UNL     1     -10.854  10.566  67.199  1.00  0.00    -0.259 C  
HETATM    4  O   UNL     1      -9.524  11.232  65.302  1.00  0.00    -0.219 OA 
ENDROOT
BRANCH   3   5
HETATM    5  S   UNL     1     -10.731  10.686  69.021  1.00  0.00    -0.238 SA 
HETATM    6  C   UNL     1     -10.558   8.922  69.499  1.00  0.00    -0.228 C  
HETATM    7  S   UNL     1      -8.978   8.275  68.820  1.00  0.00    -0.143 SA 
HETATM    8  S   UNL     1     -10.491   8.843  71.337  1.00  0.00    -0.333 SA 
BRANCH   7   9
HETATM    9  C   UNL     1      -9.047   6.532  69.380  1.00  0.00    -0.141 C  
HETATM   10  O   UNL     1      -7.112   7.215  70.685  1.00  0.00    -0.063 OA 
HETATM   11  O   UNL     1      -7.838   5.093  70.885  1.00  0.00    -0.091 OA 
HETATM   12  C   UNL     1      -7.955   6.201  70.380  1.00  0.00    -0.108 C  
ENDBRANCH   7   9
BRANCH   8  13
HETATM   13  C   UNL     1     -12.146   9.499  71.775  1.00  0.00    -0.384 C  
HETATM   14  C   UNL     1     -13.156   8.392  72.017  1.00  0.00    -0.352 C  
HETATM   15  O   UNL     1     -12.671   7.132  71.943  1.00  0.00    -0.321 OA 
HETATM   16  O   UNL     1     -14.329   8.618  72.281  1.00  0.00    -0.451 OA 
ENDBRANCH   8  13
ENDBRANCH   3   5
TORSDOF 3
ENDMDL
MODEL      134
REMARK 921   NORMALIZED FREE ENERGY PREDICTED BY IDOCK:   -3.28 KCAL/MOL
REMARK 922        TOTAL FREE ENERGY PREDICTED BY IDOCK:   -4.11 KCAL/MOL
REMARK 923 INTER-LIGAND FREE ENERGY PREDICTED BY IDOCK:   -3.79 KCAL/MOL
REMARK 924 INTRA-LIGAND FREE ENERGY PREDICTED BY IDOCK:   -0.32 KCAL/MOL
REMARK 927      BINDING AFFINITY PREDICTED BY RF-SCORE:    0.00 PKD
ROOT
HETATM    1  O   UNL     1     -11.611   8.820  72.631  1.00  0.00    -0.249 OA 
HETATM    2  C   UNL     1     -10.983   7.623  72.598  1.00  0.00    -0.351 C  
HETATM    3  C   UNL     1     -10.491   7.175  71.235  1.00  0.00    -0.205 C  
HETATM    4  O   UNL     1     -10.813   6.958  73.614  1.00  0.00    -0.315 OA 
ENDROOT
BRANCH   3   5
HETATM    5  S   UNL     1     -10.977   8.359  69.926  1.00  0.00    -0.104 SA 
HETATM    6  C   UNL     1      -9.863   7.870  68.550  1.00  0.00    -0.177 C  
HETATM    7  S   UNL     1     -10.290   6.163  68.021  1.00  0.00    -0.226 SA 
HETATM    8  S   UNL     1     -10.168   9.021  67.147  1.00  0.00    -0.275 SA 
BRANCH   7   9
HETATM    9  C   UNL     1      -9.050   5.890  66.699  1.00  0.00    -0.134 C  
HETATM   10  O   UNL     1     -10.868   4.618  65.704  1.00  0.00    -0.292 OA 
HETATM   11  O   UNL     1      -8.924   4.758  64.577  1.00  0.00    -0.153 OA 
HETATM   12  C   UNL     1      -9.591   5.043  65.562  1.00  0.00    -0.089 C  
ENDBRANCH   7   9
BRANCH   8  13
HETATM   13  C   UNL     1      -9.659  10.619  67.889  1.00  0.00    -0.162 C  
HETATM   14  C   UNL     1     -10.818  11.592  68.004  1.00  0.00    -0.213 C  
HETATM   15  O   UNL     1     -12.022  11.115  67.618  1.00  0.00    -0.613 OA 
HETATM   16  O   UNL     1     -10.681  12.729  68.435  1.00  0.00    -0.235 OA 
ENDBRANCH   8  13
ENDBRANCH   3   5
TORSDOF 3
ENDMDL
MODEL      135
REMARK 921   NORMALIZED FREE ENERGY PREDICTED BY IDOCK:   -3.27 KCAL/MOL
REMARK 922        TOTAL FREE ENERGY PREDICTED BY IDOCK:   -4.10 KCAL/MOL
REMARK 923 INTER-LIGAND FREE ENERGY PREDICTED BY IDOCK:   -3.75 KCAL/MOL
REMARK 924 INTRA-LIGAND FREE ENERGY PREDICTED BY IDOCK:   -0.35 KCAL/MOL
REMARK 927      BINDING AFFINITY PREDICTED BY RF-SCORE:    0.00 PKD
ROOT
HETATM    1  O   UNL     1      -9.292  10.032  63.132  1.00  0.00    -0.285 OA 
HETATM    2  C   UNL     1      -8.573   8.895  63.265  1.00  0.00    -0.102 C  
HETATM    3  C   UNL     1      -7.758   8.773  64.539  1.00  0.00    -0.121 C  
HETATM    4  O   UNL     1      -8.597   8.016  62.410  1.00  0.00    -0.120 OA 
ENDROOT
BRANCH   3   5
HETATM    5  S   UNL     1      -7.882  10.290  65.558  1.00  0.00    -0.153 SA 
HETATM    6  C   UNL     1      -9.201   9.829  66.750  1.00  0.00    -0.148 C  
HETATM    7  S   UNL     1      -8.600   8.440  67.791  1.00  0.00    -0.131 SA 
HETATM    8  S   UNL     1      -9.515  11.287  67.828  1.00  0.00    -0.174 SA 
BRANCH   7   9
HETATM    9  C   UNL     1     -10.066   8.139  68.848  1.00  0.00    -0.202 C  
HETATM   10  O   UNL     1      -9.879   5.903  67.911  1.00  0.00    -0.115 OA 
HETATM   11  O   UNL     1     -11.527   6.303  69.392  1.00  0.00    -0.427 OA 
HETATM   12  C   UNL     1     -10.566   6.709  68.752  1.00  0.00    -0.236 C  
ENDBRANCH   7   9
BRANCH   8  13
HETATM   13  C   UNL     1     -10.116  12.508  66.599  1.00  0.00    -0.230 C  
HETATM   14  C   UNL     1     -11.632  12.561  66.539  1.00  0.00    -0.388 C  
HETATM   15  O   UNL     1     -12.281  11.774  67.426  1.00  0.00    -0.501 OA 
HETATM   16  O   UNL     1     -12.234  13.281  65.754  1.00  0.00    -0.417 OA 
ENDBRANCH   8  13
ENDBRANCH   3   5
TORSDOF 3
ENDMDL
MODEL      136
REMARK 921   NORMALIZED FREE ENERGY PREDICTED BY IDOCK:   -3.27 KCAL/MOL
REMARK 922        TOTAL FREE ENERGY PREDICTED BY IDOCK:   -4.10 KCAL/MOL
REMARK 923 INTER-LIGAND FREE ENERGY PREDICTED BY IDOCK:   -3.74 KCAL/MOL
REMARK 924 INTRA-LIGAND FREE ENERGY PREDICTED BY IDOCK:   -0.36 KCAL/MOL
REMARK 927      BINDING AFFINITY PREDICTED BY RF-SCORE:    0.00 PKD
ROOT
HETATM    1  O   UNL     1     -12.065  12.197  66.729  1.00  0.00    -0.609 OA 
HETATM    2  C   UNL     1     -12.062  12.568  65.428  1.00  0.00    -0.435 C  
HETATM    3  C   UNL     1     -10.693  12.771  64.804  1.00  0.00    -0.316 C  
HETATM    4  O   UNL     1     -13.103  12.712  64.798  1.00  0.00    -0.852 OA 
ENDROOT
BRANCH   3   5
HETATM    5  S   UNL     1      -9.358  12.554  66.037  1.00  0.00    -0.008 SA 
HETATM    6  C   UNL     1      -9.110  10.735  66.000  1.00  0.00    -0.185 C  
HETATM    7  S   UNL     1      -8.492  10.256  64.337  1.00  0.00    -0.174 SA 
HETATM    8  S   UNL     1      -7.828  10.319  67.253  1.00  0.00    -0.103 SA 
BRANCH   7   9
HETATM    9  C   UNL     1      -8.361   8.438  64.526  1.00  0.00    -0.116 C  
HETATM   10  O   UNL     1      -5.994   8.901  64.220  1.00  0.00    -0.069 OA 
HETATM   11  O   UNL     1      -6.628   6.767  64.552  1.00  0.00    -0.040 OA 
HETATM   12  C   UNL     1      -6.928   7.947  64.436  1.00  0.00    -0.068 C  
ENDBRANCH   7   9
BRANCH   8  13
HETATM   13  C   UNL     1      -8.663  10.852  68.796  1.00  0.00    -0.158 C  
HETATM   14  C   UNL     1      -9.311   9.690  69.527  1.00  0.00    -0.200 C  
HETATM   15  O   UNL     1      -9.116   8.471  68.977  1.00  0.00    -0.145 OA 
HETATM   16  O   UNL     1      -9.955   9.839  70.557  1.00  0.00    -0.265 OA 
ENDBRANCH   8  13
ENDBRANCH   3   5
TORSDOF 3
ENDMDL
MODEL      137
REMARK 921   NORMALIZED FREE ENERGY PREDICTED BY IDOCK:   -3.26 KCAL/MOL
REMARK 922        TOTAL FREE ENERGY PREDICTED BY IDOCK:   -4.09 KCAL/MOL
REMARK 923 INTER-LIGAND FREE ENERGY PREDICTED BY IDOCK:   -3.78 KCAL/MOL
REMARK 924 INTRA-LIGAND FREE ENERGY PREDICTED BY IDOCK:   -0.32 KCAL/MOL
REMARK 927      BINDING AFFINITY PREDICTED BY RF-SCORE:    0.00 PKD
ROOT
HETATM    1  O   UNL     1     -13.378   9.875  70.906  1.00  0.00    -0.349 OA 
HETATM    2  C   UNL     1     -13.363   9.109  72.021  1.00  0.00    -0.445 C  
HETATM    3  C   UNL     1     -12.002   8.585  72.442  1.00  0.00    -0.364 C  
HETATM    4  O   UNL     1     -14.387   8.872  72.651  1.00  0.00    -0.613 OA 
ENDROOT
BRANCH   3   5
HETATM    5  S   UNL     1     -10.704   9.055  71.241  1.00  0.00    -0.338 SA 
HETATM    6  C   UNL     1      -9.826   7.460  70.999  1.00  0.00    -0.179 C  
HETATM    7  S   UNL     1     -10.978   6.262  70.217  1.00  0.00    -0.366 SA 
HETATM    8  S   UNL     1      -8.417   7.764  69.854  1.00  0.00    -0.133 SA 
BRANCH   7   9
HETATM    9  C   UNL     1      -9.914   4.773  70.116  1.00  0.00    -0.251 C  
HETATM   10  O   UNL     1     -10.602   4.522  72.435  1.00  0.00    -0.195 OA 
HETATM   11  O   UNL     1      -9.234   2.966  71.555  1.00  0.00    -0.095 OA 
HETATM   12  C   UNL     1      -9.876   3.998  71.421  1.00  0.00    -0.179 C  
ENDBRANCH   7   9
BRANCH   8  13
HETATM   13  C   UNL     1      -7.414   8.941  70.839  1.00  0.00    -0.102 C  
HETATM   14  C   UNL     1      -6.430   8.232  71.752  1.00  0.00    -0.058 C  
HETATM   15  O   UNL     1      -6.401   6.885  71.646  1.00  0.00    -0.041 OA 
HETATM   16  O   UNL     1      -5.697   8.835  72.523  1.00  0.00    -0.067 OA 
ENDBRANCH   8  13
ENDBRANCH   3   5
TORSDOF 3
ENDMDL
MODEL      138
REMARK 921   NORMALIZED FREE ENERGY PREDICTED BY IDOCK:   -3.26 KCAL/MOL
REMARK 922        TOTAL FREE ENERGY PREDICTED BY IDOCK:   -4.09 KCAL/MOL
REMARK 923 INTER-LIGAND FREE ENERGY PREDICTED BY IDOCK:   -3.76 KCAL/MOL
REMARK 924 INTRA-LIGAND FREE ENERGY PREDICTED BY IDOCK:   -0.33 KCAL/MOL
REMARK 927      BINDING AFFINITY PREDICTED BY RF-SCORE:    0.00 PKD
ROOT
HETATM    1  O   UNL     1     -11.985   8.520  72.549  1.00  0.00    -0.389 OA 
HETATM    2  C   UNL     1     -12.436   9.629  71.921  1.00  0.00    -0.377 C  
HETATM    3  C   UNL     1     -11.531  10.188  70.838  1.00  0.00    -0.360 C  
HETATM    4  O   UNL     1     -13.516  10.134  72.205  1.00  0.00    -0.411 OA 
ENDROOT
BRANCH   3   5
HETATM    5  S   UNL     1      -9.965   9.247  70.725  1.00  0.00    -0.295 SA 
HETATM    6  C   UNL     1      -9.992   8.690  68.975  1.00  0.00    -0.192 C  
HETATM    7  S   UNL     1      -9.901  10.165  67.883  1.00  0.00    -0.155 SA 
HETATM    8  S   UNL     1      -8.501   7.649  68.695  1.00  0.00    -0.129 SA 
BRANCH   7   9
HETATM    9  C   UNL     1      -9.981   9.378  66.229  1.00  0.00    -0.283 C  
HETATM   10  O   UNL     1      -8.082  10.835  65.802  1.00  0.00    -0.162 OA 
HETATM   11  O   UNL     1      -8.779   9.479  64.145  1.00  0.00    -0.195 OA 
HETATM   12  C   UNL     1      -8.904   9.890  65.291  1.00  0.00    -0.181 C  
ENDBRANCH   7   9
BRANCH   8  13
HETATM   13  C   UNL     1      -8.823   6.260  69.847  1.00  0.00    -0.141 C  
HETATM   14  C   UNL     1      -9.574   5.123  69.177  1.00  0.00    -0.146 C  
HETATM   15  O   UNL     1      -9.817   5.281  67.857  1.00  0.00    -0.135 OA 
HETATM   16  O   UNL     1      -9.923   4.120  69.784  1.00  0.00    -0.206 OA 
ENDBRANCH   8  13
ENDBRANCH   3   5
TORSDOF 3
ENDMDL
MODEL      139
REMARK 921   NORMALIZED FREE ENERGY PREDICTED BY IDOCK:   -3.25 KCAL/MOL
REMARK 922        TOTAL FREE ENERGY PREDICTED BY IDOCK:   -4.08 KCAL/MOL
REMARK 923 INTER-LIGAND FREE ENERGY PREDICTED BY IDOCK:   -3.80 KCAL/MOL
REMARK 924 INTRA-LIGAND FREE ENERGY PREDICTED BY IDOCK:   -0.28 KCAL/MOL
REMARK 927      BINDING AFFINITY PREDICTED BY RF-SCORE:    0.00 PKD
ROOT
HETATM    1  O   UNL     1      -9.721   8.106  66.681  1.00  0.00    -0.211 OA 
HETATM    2  C   UNL     1      -9.442   8.561  67.923  1.00  0.00    -0.139 C  
HETATM    3  C   UNL     1      -9.049  10.024  68.017  1.00  0.00    -0.131 C  
HETATM    4  O   UNL     1      -9.520   7.833  68.906  1.00  0.00    -0.150 OA 
ENDROOT
BRANCH   3   5
HETATM    5  S   UNL     1      -8.953  10.797  66.360  1.00  0.00    -0.172 SA 
HETATM    6  C   UNL     1      -9.638  12.469  66.690  1.00  0.00    -0.239 C  
HETATM    7  S   UNL     1      -8.514  13.352  67.844  1.00  0.00    -0.186 SA 
HETATM    8  S   UNL     1      -9.685  13.380  65.092  1.00  0.00     0.177 SA 
BRANCH   7   9
HETATM    9  C   UNL     1      -9.405  14.940  68.050  1.00  0.00    -0.193 C  
HETATM   10  O   UNL     1      -7.620  15.363  69.646  1.00  0.00    -0.215 OA 
HETATM   11  O   UNL     1      -9.166  16.967  69.327  1.00  0.00    -0.128 OA 
HETATM   12  C   UNL     1      -8.735  15.855  69.058  1.00  0.00    -0.236 C  
ENDBRANCH   7   9
BRANCH   8  13
HETATM   13  C   UNL     1     -10.862  12.349  64.136  1.00  0.00    -0.372 C  
HETATM   14  C   UNL     1     -12.306  12.729  64.406  1.00  0.00    -0.424 C  
HETATM   15  O   UNL     1     -12.489  13.785  65.229  1.00  0.00    -0.437 OA 
HETATM   16  O   UNL     1     -13.248  12.135  63.898  1.00  0.00    -0.748 OA 
ENDBRANCH   8  13
ENDBRANCH   3   5
TORSDOF 3
ENDMDL
MODEL      140
REMARK 921   NORMALIZED FREE ENERGY PREDICTED BY IDOCK:   -3.24 KCAL/MOL
REMARK 922        TOTAL FREE ENERGY PREDICTED BY IDOCK:   -4.07 KCAL/MOL
REMARK 923 INTER-LIGAND FREE ENERGY PREDICTED BY IDOCK:   -3.77 KCAL/MOL
REMARK 924 INTRA-LIGAND FREE ENERGY PREDICTED BY IDOCK:   -0.30 KCAL/MOL
REMARK 927      BINDING AFFINITY PREDICTED BY RF-SCORE:    0.00 PKD
ROOT
HETATM    1  O   UNL     1      -7.685  10.338  70.246  1.00  0.00    -0.183 OA 
HETATM    2  C   UNL     1      -6.770   9.355  70.406  1.00  0.00    -0.083 C  
HETATM    3  C   UNL     1      -7.207   8.180  71.262  1.00  0.00    -0.066 C  
HETATM    4  O   UNL     1      -5.667   9.412  69.876  1.00  0.00    -0.034 OA 
ENDROOT
BRANCH   3   5
HETATM    5  S   UNL     1      -8.876   8.449  71.964  1.00  0.00    -0.220 SA 
HETATM    6  C   UNL     1      -9.951   7.799  70.624  1.00  0.00    -0.186 C  
HETATM    7  S   UNL     1      -9.647   5.996  70.442  1.00  0.00    -0.166 SA 
HETATM    8  S   UNL     1     -11.700   8.058  71.135  1.00  0.00    -0.276 SA 
BRANCH   7   9
HETATM    9  C   UNL     1     -10.775   5.593  69.056  1.00  0.00    -0.237 C  
HETATM   10  O   UNL     1      -8.680   5.377  67.840  1.00  0.00    -0.108 OA 
HETATM   11  O   UNL     1     -10.600   4.983  66.733  1.00  0.00    -0.252 OA 
HETATM   12  C   UNL     1     -10.028   5.289  67.770  1.00  0.00    -0.162 C  
ENDBRANCH   7   9
BRANCH   8  13
HETATM   13  C   UNL     1     -11.770   9.888  71.225  1.00  0.00    -0.392 C  
HETATM   14  C   UNL     1     -13.019  10.379  71.935  1.00  0.00    -0.450 C  
HETATM   15  O   UNL     1     -13.823   9.415  72.437  1.00  0.00    -0.451 OA 
HETATM   16  O   UNL     1     -13.277  11.567  72.065  1.00  0.00    -0.509 OA 
ENDBRANCH   8  13
ENDBRANCH   3   5
TORSDOF 3
ENDMDL
MODEL      141
REMARK 921   NORMALIZED FREE ENERGY PREDICTED BY IDOCK:   -3.24 KCAL/MOL
REMARK 922        TOTAL FREE ENERGY PREDICTED BY IDOCK:   -4.07 KCAL/MOL
REMARK 923 INTER-LIGAND FREE ENERGY PREDICTED BY IDOCK:   -3.96 KCAL/MOL
REMARK 924 INTRA-LIGAND FREE ENERGY PREDICTED BY IDOCK:   -0.11 KCAL/MOL
REMARK 927      BINDING AFFINITY PREDICTED BY RF-SCORE:    0.00 PKD
ROOT
HETATM    1  O   UNL     1     -10.707  14.297  64.814  1.00  0.00    -0.407 OA 
HETATM    2  C   UNL     1     -10.295  13.789  65.997  1.00  0.00    -0.308 C  
HETATM    3  C   UNL     1      -9.446  14.713  66.851  1.00  0.00    -0.246 C  
HETATM    4  O   UNL     1     -10.606  12.659  66.355  1.00  0.00    -0.247 OA 
ENDROOT
BRANCH   3   5
HETATM    5  S   UNL     1      -9.103  16.292  65.989  1.00  0.00    -0.227 SA 
HETATM    6  C   UNL     1      -7.968  17.121  67.170  1.00  0.00    -0.191 C  
HETATM    7  S   UNL     1      -6.418  16.140  67.292  1.00  0.00    -0.150 SA 
HETATM    8  S   UNL     1      -7.567  18.783  66.490  1.00  0.00    -0.257 SA 
BRANCH   7   9
HETATM    9  C   UNL     1      -5.483  17.120  68.526  1.00  0.00    -0.136 C  
HETATM   10  O   UNL     1      -6.501  15.540  70.070  1.00  0.00    -0.163 OA 
HETATM   11  O   UNL     1      -5.126  17.114  70.908  1.00  0.00    -0.241 OA 
HETATM   12  C   UNL     1      -5.676  16.606  69.941  1.00  0.00    -0.213 C  
ENDBRANCH   7   9
BRANCH   8  13
HETATM   13  C   UNL     1      -9.224  19.568  66.486  1.00  0.00    -0.365 C  
HETATM   14  C   UNL     1      -9.750  19.801  67.891  1.00  0.00    -0.389 C  
HETATM   15  O   UNL     1      -8.907  19.468  68.894  1.00  0.00    -0.355 OA 
HETATM   16  O   UNL     1     -10.856  20.277  68.107  1.00  0.00    -0.060 OA 
ENDBRANCH   8  13
ENDBRANCH   3   5
TORSDOF 3
ENDMDL
MODEL      142
REMARK 921   NORMALIZED FREE ENERGY PREDICTED BY IDOCK:   -3.24 KCAL/MOL
REMARK 922        TOTAL FREE ENERGY PREDICTED BY IDOCK:   -4.07 KCAL/MOL
REMARK 923 INTER-LIGAND FREE ENERGY PREDICTED BY IDOCK:   -3.71 KCAL/MOL
REMARK 924 INTRA-LIGAND FREE ENERGY PREDICTED BY IDOCK:   -0.36 KCAL/MOL
REMARK 927      BINDING AFFINITY PREDICTED BY RF-SCORE:    0.00 PKD
ROOT
HETATM    1  O   UNL     1      -8.160   5.629  68.457  1.00  0.00    -0.102 OA 
HETATM    2  C   UNL     1      -9.461   5.259  68.418  1.00  0.00    -0.124 C  
HETATM    3  C   UNL     1     -10.380   6.165  67.620  1.00  0.00    -0.201 C  
HETATM    4  O   UNL     1      -9.858   4.247  68.983  1.00  0.00    -0.165 OA 
ENDROOT
BRANCH   3   5
HETATM    5  S   UNL     1      -9.484   7.626  66.976  1.00  0.00    -0.175 SA 
HETATM    6  C   UNL     1     -10.508   9.006  67.626  1.00  0.00    -0.260 C  
HETATM    7  S   UNL     1     -10.422   8.994  69.461  1.00  0.00    -0.219 SA 
HETATM    8  S   UNL     1      -9.784  10.580  67.006  1.00  0.00    -0.182 SA 
BRANCH   7   9
HETATM    9  C   UNL     1     -11.526  10.400  69.869  1.00  0.00    -0.297 C  
HETATM   10  O   UNL     1     -11.655   9.255  72.010  1.00  0.00    -0.356 OA 
HETATM   11  O   UNL     1     -12.798  11.178  71.759  1.00  0.00    -0.422 OA 
HETATM   12  C   UNL     1     -12.056  10.327  71.288  1.00  0.00    -0.382 C  
ENDBRANCH   7   9
BRANCH   8  13
HETATM   13  C   UNL     1     -10.000  10.376  65.197  1.00  0.00    -0.322 C  
HETATM   14  C   UNL     1      -8.672  10.295  64.467  1.00  0.00    -0.192 C  
HETATM   15  O   UNL     1      -7.571  10.314  65.252  1.00  0.00    -0.141 OA 
HETATM   16  O   UNL     1      -8.596  10.200  63.250  1.00  0.00    -0.166 OA 
ENDBRANCH   8  13
ENDBRANCH   3   5
TORSDOF 3
ENDMDL
MODEL      143
REMARK 921   NORMALIZED FREE ENERGY PREDICTED BY IDOCK:   -3.24 KCAL/MOL
REMARK 922        TOTAL FREE ENERGY PREDICTED BY IDOCK:   -4.06 KCAL/MOL
REMARK 923 INTER-LIGAND FREE ENERGY PREDICTED BY IDOCK:   -3.75 KCAL/MOL
REMARK 924 INTRA-LIGAND FREE ENERGY PREDICTED BY IDOCK:   -0.31 KCAL/MOL
REMARK 927      BINDING AFFINITY PREDICTED BY RF-SCORE:    0.00 PKD
ROOT
HETATM    1  O   UNL     1      -8.359  11.090  66.848  1.00  0.00    -0.129 OA 
HETATM    2  C   UNL     1      -9.577  11.289  66.294  1.00  0.00    -0.209 C  
HETATM    3  C   UNL     1     -10.763  11.098  67.222  1.00  0.00    -0.258 C  
HETATM    4  O   UNL     1      -9.703  11.618  65.120  1.00  0.00    -0.235 OA 
ENDROOT
BRANCH   3   5
HETATM    5  S   UNL     1     -10.230  10.531  68.879  1.00  0.00    -0.220 SA 
HETATM    6  C   UNL     1     -10.765   8.775  68.862  1.00  0.00    -0.087 C  
HETATM    7  S   UNL     1      -9.811   7.878  67.572  1.00  0.00    -0.186 SA 
HETATM    8  S   UNL     1     -10.367   8.051  70.506  1.00  0.00    -0.205 SA 
BRANCH   7   9
HETATM    9  C   UNL     1     -10.531   6.198  67.714  1.00  0.00    -0.231 C  
HETATM   10  O   UNL     1      -8.794   5.671  66.096  1.00  0.00    -0.133 OA 
HETATM   11  O   UNL     1     -10.135   4.006  66.801  1.00  0.00    -0.138 OA 
HETATM   12  C   UNL     1      -9.816   5.186  66.838  1.00  0.00    -0.181 C  
ENDBRANCH   7   9
BRANCH   8  13
HETATM   13  C   UNL     1     -11.430   9.067  71.601  1.00  0.00    -0.361 C  
HETATM   14  C   UNL     1     -12.759   8.394  71.893  1.00  0.00    -0.355 C  
HETATM   15  O   UNL     1     -12.915   7.157  71.372  1.00  0.00    -0.381 OA 
HETATM   16  O   UNL     1     -13.629   8.924  72.570  1.00  0.00    -0.441 OA 
ENDBRANCH   8  13
ENDBRANCH   3   5
TORSDOF 3
ENDMDL
MODEL      144
REMARK 921   NORMALIZED FREE ENERGY PREDICTED BY IDOCK:   -3.23 KCAL/MOL
REMARK 922        TOTAL FREE ENERGY PREDICTED BY IDOCK:   -4.06 KCAL/MOL
REMARK 923 INTER-LIGAND FREE ENERGY PREDICTED BY IDOCK:   -3.70 KCAL/MOL
REMARK 924 INTRA-LIGAND FREE ENERGY PREDICTED BY IDOCK:   -0.36 KCAL/MOL
REMARK 927      BINDING AFFINITY PREDICTED BY RF-SCORE:    0.00 PKD
ROOT
HETATM    1  O   UNL     1      -9.011   6.341  66.012  1.00  0.00    -0.156 OA 
HETATM    2  C   UNL     1     -10.015   5.551  66.455  1.00  0.00    -0.185 C  
HETATM    3  C   UNL     1     -10.910   6.157  67.521  1.00  0.00    -0.332 C  
HETATM    4  O   UNL     1     -10.192   4.424  66.006  1.00  0.00    -0.244 OA 
ENDROOT
BRANCH   3   5
HETATM    5  S   UNL     1     -10.321   7.817  68.022  1.00  0.00    -0.195 SA 
HETATM    6  C   UNL     1      -9.983   7.567  69.809  1.00  0.00    -0.186 C  
HETATM    7  S   UNL     1      -8.615   6.353  69.989  1.00  0.00    -0.136 SA 
HETATM    8  S   UNL     1      -9.440   9.181  70.508  1.00  0.00    -0.261 SA 
BRANCH   7   9
HETATM    9  C   UNL     1      -8.489   6.240  71.814  1.00  0.00    -0.129 C  
HETATM   10  O   UNL     1     -10.086   4.436  71.489  1.00  0.00    -0.188 OA 
HETATM   11  O   UNL     1      -9.404   4.891  73.586  1.00  0.00    -0.125 OA 
HETATM   12  C   UNL     1      -9.359   5.138  72.389  1.00  0.00    -0.137 C  
ENDBRANCH   7   9
BRANCH   8  13
HETATM   13  C   UNL     1     -10.942  10.198  70.244  1.00  0.00    -0.317 C  
HETATM   14  C   UNL     1     -11.997   9.948  71.307  1.00  0.00    -0.402 C  
HETATM   15  O   UNL     1     -11.644   9.092  72.291  1.00  0.00    -0.328 OA 
HETATM   16  O   UNL     1     -13.090  10.497  71.289  1.00  0.00    -0.377 OA 
ENDBRANCH   8  13
ENDBRANCH   3   5
TORSDOF 3
ENDMDL
MODEL      145
REMARK 921   NORMALIZED FREE ENERGY PREDICTED BY IDOCK:   -3.22 KCAL/MOL
REMARK 922        TOTAL FREE ENERGY PREDICTED BY IDOCK:   -4.05 KCAL/MOL
REMARK 923 INTER-LIGAND FREE ENERGY PREDICTED BY IDOCK:   -3.72 KCAL/MOL
REMARK 924 INTRA-LIGAND FREE ENERGY PREDICTED BY IDOCK:   -0.32 KCAL/MOL
REMARK 927      BINDING AFFINITY PREDICTED BY RF-SCORE:    0.00 PKD
ROOT
HETATM    1  O   UNL     1      -6.787  11.292  66.588  1.00  0.00    -0.135 OA 
HETATM    2  C   UNL     1      -6.424  10.092  67.094  1.00  0.00    -0.069 C  
HETATM    3  C   UNL     1      -7.244   9.597  68.272  1.00  0.00    -0.079 C  
HETATM    4  O   UNL     1      -5.500   9.445  66.614  1.00  0.00    -0.044 OA 
ENDROOT
BRANCH   3   5
HETATM    5  S   UNL     1      -8.489  10.836  68.786  1.00  0.00    -0.146 SA 
HETATM    6  C   UNL     1      -9.992   9.798  68.971  1.00  0.00    -0.184 C  
HETATM    7  S   UNL     1      -9.721   8.599  70.337  1.00  0.00    -0.184 SA 
HETATM    8  S   UNL     1     -11.388  10.908  69.423  1.00  0.00    -0.306 SA 
BRANCH   7   9
HETATM    9  C   UNL     1     -11.301   7.672  70.304  1.00  0.00    -0.181 C  
HETATM   10  O   UNL     1     -11.626   8.790  72.439  1.00  0.00    -0.352 OA 
HETATM   11  O   UNL     1     -13.255   7.429  71.690  1.00  0.00    -0.356 OA 
HETATM   12  C   UNL     1     -12.156   7.941  71.528  1.00  0.00    -0.306 C  
ENDBRANCH   7   9
BRANCH   8  13
HETATM   13  C   UNL     1     -11.485  11.973  67.933  1.00  0.00    -0.330 C  
HETATM   14  C   UNL     1     -11.804  13.416  68.280  1.00  0.00    -0.358 C  
HETATM   15  O   UNL     1     -11.893  13.694  69.600  1.00  0.00    -0.297 OA 
HETATM   16  O   UNL     1     -11.953  14.279  67.426  1.00  0.00    -0.395 OA 
ENDBRANCH   8  13
ENDBRANCH   3   5
TORSDOF 3
ENDMDL
MODEL      146
REMARK 921   NORMALIZED FREE ENERGY PREDICTED BY IDOCK:   -3.19 KCAL/MOL
REMARK 922        TOTAL FREE ENERGY PREDICTED BY IDOCK:   -4.00 KCAL/MOL
REMARK 923 INTER-LIGAND FREE ENERGY PREDICTED BY IDOCK:   -3.76 KCAL/MOL
REMARK 924 INTRA-LIGAND FREE ENERGY PREDICTED BY IDOCK:   -0.25 KCAL/MOL
REMARK 927      BINDING AFFINITY PREDICTED BY RF-SCORE:    0.00 PKD
ROOT
HETATM    1  O   UNL     1     -12.175  14.016  68.745  1.00  0.00    -0.337 OA 
HETATM    2  C   UNL     1     -11.974  13.419  67.548  1.00  0.00    -0.339 C  
HETATM    3  C   UNL     1     -11.676  11.932  67.595  1.00  0.00    -0.275 C  
HETATM    4  O   UNL     1     -12.045  14.046  66.498  1.00  0.00    -0.424 OA 
ENDROOT
BRANCH   3   5
HETATM    5  S   UNL     1     -11.563  11.327  69.319  1.00  0.00    -0.353 SA 
HETATM    6  C   UNL     1     -10.301  10.002  69.166  1.00  0.00    -0.216 C  
HETATM    7  S   UNL     1      -8.701  10.761  68.677  1.00  0.00    -0.156 SA 
HETATM    8  S   UNL     1     -10.107   9.219  70.820  1.00  0.00    -0.303 SA 
BRANCH   7   9
HETATM    9  C   UNL     1      -7.636   9.275  68.551  1.00  0.00    -0.085 C  
HETATM   10  O   UNL     1      -6.530  10.611  66.847  1.00  0.00    -0.073 OA 
HETATM   11  O   UNL     1      -5.716   8.559  67.287  1.00  0.00    -0.038 OA 
HETATM   12  C   UNL     1      -6.541   9.433  67.513  1.00  0.00    -0.064 C  
ENDBRANCH   7   9
BRANCH   8  13
HETATM   13  C   UNL     1     -11.784   8.523  71.076  1.00  0.00    -0.275 C  
HETATM   14  C   UNL     1     -11.742   7.141  71.703  1.00  0.00    -0.291 C  
HETATM   15  O   UNL     1     -10.512   6.685  72.029  1.00  0.00    -0.202 OA 
HETATM   16  O   UNL     1     -12.752   6.486  71.918  1.00  0.00    -0.325 OA 
ENDBRANCH   8  13
ENDBRANCH   3   5
TORSDOF 3
ENDMDL
MODEL      147
REMARK 921   NORMALIZED FREE ENERGY PREDICTED BY IDOCK:   -3.17 KCAL/MOL
REMARK 922        TOTAL FREE ENERGY PREDICTED BY IDOCK:   -3.98 KCAL/MOL
REMARK 923 INTER-LIGAND FREE ENERGY PREDICTED BY IDOCK:   -3.69 KCAL/MOL
REMARK 924 INTRA-LIGAND FREE ENERGY PREDICTED BY IDOCK:   -0.29 KCAL/MOL
REMARK 927      BINDING AFFINITY PREDICTED BY RF-SCORE:    0.00 PKD
ROOT
HETATM    1  O   UNL     1     -10.453   8.652  69.224  1.00  0.00    -0.220 OA 
HETATM    2  C   UNL     1      -9.199   8.576  68.723  1.00  0.00    -0.142 C  
HETATM    3  C   UNL     1      -8.520   9.904  68.443  1.00  0.00    -0.111 C  
HETATM    4  O   UNL     1      -8.650   7.499  68.526  1.00  0.00    -0.128 OA 
ENDROOT
BRANCH   3   5
HETATM    5  S   UNL     1      -9.643  11.312  68.771  1.00  0.00    -0.103 SA 
HETATM    6  C   UNL     1      -9.735  12.107  67.118  1.00  0.00    -0.199 C  
HETATM    7  S   UNL     1     -10.538  10.943  65.945  1.00  0.00    -0.128 SA 
HETATM    8  S   UNL     1     -10.785  13.610  67.277  1.00  0.00    -0.281 SA 
BRANCH   7   9
HETATM    9  C   UNL     1     -10.482  11.919  64.395  1.00  0.00    -0.311 C  
HETATM   10  O   UNL     1     -12.829  12.278  64.918  1.00  0.00    -0.628 OA 
HETATM   11  O   UNL     1     -11.990  13.246  63.066  1.00  0.00    -0.373 OA 
HETATM   12  C   UNL     1     -11.822  12.544  64.054  1.00  0.00    -0.431 C  
ENDBRANCH   7   9
BRANCH   8  13
HETATM   13  C   UNL     1      -9.790  14.609  68.449  1.00  0.00    -0.220 C  
HETATM   14  C   UNL     1     -10.521  14.853  69.757  1.00  0.00    -0.131 C  
HETATM   15  O   UNL     1     -11.726  14.252  69.875  1.00  0.00    -0.279 OA 
HETATM   16  O   UNL     1     -10.047  15.532  70.657  1.00  0.00    -0.007 OA 
ENDBRANCH   8  13
ENDBRANCH   3   5
TORSDOF 3
ENDMDL
MODEL      148
REMARK 921   NORMALIZED FREE ENERGY PREDICTED BY IDOCK:   -3.15 KCAL/MOL
REMARK 922        TOTAL FREE ENERGY PREDICTED BY IDOCK:   -3.96 KCAL/MOL
REMARK 923 INTER-LIGAND FREE ENERGY PREDICTED BY IDOCK:   -3.70 KCAL/MOL
REMARK 924 INTRA-LIGAND FREE ENERGY PREDICTED BY IDOCK:   -0.25 KCAL/MOL
REMARK 927      BINDING AFFINITY PREDICTED BY RF-SCORE:    0.00 PKD
ROOT
HETATM    1  O   UNL     1      -7.075   9.229  68.582  1.00  0.00    -0.068 OA 
HETATM    2  C   UNL     1      -6.662   9.456  67.314  1.00  0.00    -0.075 C  
HETATM    3  C   UNL     1      -7.762   9.618  66.281  1.00  0.00    -0.101 C  
HETATM    4  O   UNL     1      -5.472   9.540  67.032  1.00  0.00    -0.045 OA 
ENDROOT
BRANCH   3   5
HETATM    5  S   UNL     1      -9.416   9.356  67.020  1.00  0.00    -0.163 SA 
HETATM    6  C   UNL     1      -9.725  10.979  67.822  1.00  0.00    -0.170 C  
HETATM    7  S   UNL     1      -9.833  12.272  66.521  1.00  0.00    -0.233 SA 
HETATM    8  S   UNL     1     -11.344  10.874  68.692  1.00  0.00    -0.316 SA 
BRANCH   7   9
HETATM    9  C   UNL     1     -10.099  13.770  67.542  1.00  0.00    -0.241 C  
HETATM   10  O   UNL     1     -11.937  14.109  65.986  1.00  0.00    -0.380 OA 
HETATM   11  O   UNL     1     -11.638  15.621  67.627  1.00  0.00    -0.237 OA 
HETATM   12  C   UNL     1     -11.285  14.591  67.070  1.00  0.00    -0.337 C  
ENDBRANCH   7   9
BRANCH   8  13
HETATM   13  C   UNL     1     -10.991   9.569  69.930  1.00  0.00    -0.238 C  
HETATM   14  C   UNL     1     -11.720   9.809  71.240  1.00  0.00    -0.394 C  
HETATM   15  O   UNL     1     -12.547  10.879  71.261  1.00  0.00    -0.377 OA 
HETATM   16  O   UNL     1     -11.588   9.076  72.210  1.00  0.00    -0.328 OA 
ENDBRANCH   8  13
ENDBRANCH   3   5
TORSDOF 3
ENDMDL
MODEL      149
REMARK 921   NORMALIZED FREE ENERGY PREDICTED BY IDOCK:   -3.14 KCAL/MOL
REMARK 922        TOTAL FREE ENERGY PREDICTED BY IDOCK:   -3.94 KCAL/MOL
REMARK 923 INTER-LIGAND FREE ENERGY PREDICTED BY IDOCK:   -3.65 KCAL/MOL
REMARK 924 INTRA-LIGAND FREE ENERGY PREDICTED BY IDOCK:   -0.29 KCAL/MOL
REMARK 927      BINDING AFFINITY PREDICTED BY RF-SCORE:    0.00 PKD
ROOT
HETATM    1  O   UNL     1      -8.369   5.312  69.987  1.00  0.00    -0.095 OA 
HETATM    2  C   UNL     1      -9.713   5.165  70.000  1.00  0.00    -0.205 C  
HETATM    3  C   UNL     1     -10.489   6.114  69.104  1.00  0.00    -0.251 C  
HETATM    4  O   UNL     1     -10.259   4.306  70.683  1.00  0.00    -0.140 OA 
ENDROOT
BRANCH   3   5
HETATM    5  S   UNL     1      -9.379   7.318  68.287  1.00  0.00    -0.134 SA 
HETATM    6  C   UNL     1     -10.287   8.893  68.542  1.00  0.00    -0.198 C  
HETATM    7  S   UNL     1     -10.359   9.251  70.343  1.00  0.00    -0.262 SA 
HETATM    8  S   UNL     1      -9.337  10.230  67.708  1.00  0.00    -0.145 SA 
BRANCH   7   9
HETATM    9  C   UNL     1     -11.323  10.809  70.350  1.00  0.00    -0.255 C  
HETATM   10  O   UNL     1     -12.461   9.718  72.200  1.00  0.00    -0.336 OA 
HETATM   11  O   UNL     1     -13.123  11.788  71.614  1.00  0.00    -0.441 OA 
HETATM   12  C   UNL     1     -12.384  10.831  71.435  1.00  0.00    -0.328 C  
ENDBRANCH   7   9
BRANCH   8  13
HETATM   13  C   UNL     1      -9.421   9.681  65.961  1.00  0.00    -0.225 C  
HETATM   14  C   UNL     1     -10.284  10.598  65.114  1.00  0.00    -0.299 C  
HETATM   15  O   UNL     1     -10.783  11.683  65.748  1.00  0.00    -0.266 OA 
HETATM   16  O   UNL     1     -10.504  10.385  63.929  1.00  0.00    -0.070 OA 
ENDBRANCH   8  13
ENDBRANCH   3   5
TORSDOF 3
ENDMDL
MODEL      150
REMARK 921   NORMALIZED FREE ENERGY PREDICTED BY IDOCK:   -3.14 KCAL/MOL
REMARK 922        TOTAL FREE ENERGY PREDICTED BY IDOCK:   -3.94 KCAL/MOL
REMARK 923 INTER-LIGAND FREE ENERGY PREDICTED BY IDOCK:   -4.07 KCAL/MOL
REMARK 924 INTRA-LIGAND FREE ENERGY PREDICTED BY IDOCK:    0.13 KCAL/MOL
REMARK 927      BINDING AFFINITY PREDICTED BY RF-SCORE:    0.00 PKD
ROOT
HETATM    1  O   UNL     1     -11.108  10.413  70.091  1.00  0.00    -0.280 OA 
HETATM    2  C   UNL     1     -10.818   9.134  70.423  1.00  0.00    -0.242 C  
HETATM    3  C   UNL     1     -10.470   8.216  69.266  1.00  0.00    -0.214 C  
HETATM    4  O   UNL     1     -10.825   8.756  71.588  1.00  0.00    -0.276 OA 
ENDROOT
BRANCH   3   5
HETATM    5  S   UNL     1     -10.633   9.075  67.658  1.00  0.00    -0.176 SA 
HETATM    6  C   UNL     1      -9.409  10.433  67.836  1.00  0.00    -0.138 C  
HETATM    7  S   UNL     1      -7.729   9.701  67.972  1.00  0.00    -0.086 SA 
HETATM    8  S   UNL     1      -9.488  11.462  66.313  1.00  0.00    -0.215 SA 
BRANCH   7   9
HETATM    9  C   UNL     1      -6.709  11.210  68.176  1.00  0.00    -0.059 C  
HETATM   10  O   UNL     1      -6.919  10.641  70.531  1.00  0.00    -0.280 OA 
HETATM   11  O   UNL     1      -5.716  12.462  69.978  1.00  0.00    -0.112 OA 
HETATM   12  C   UNL     1      -6.397  11.506  69.631  1.00  0.00    -0.133 C  
ENDBRANCH   7   9
BRANCH   8  13
HETATM   13  C   UNL     1     -11.208  12.091  66.406  1.00  0.00    -0.337 C  
HETATM   14  C   UNL     1     -11.842  12.229  65.033  1.00  0.00    -0.357 C  
HETATM   15  O   UNL     1     -11.085  11.811  63.995  1.00  0.00    -0.339 OA 
HETATM   16  O   UNL     1     -12.971  12.671  64.873  1.00  0.00    -0.830 OA 
ENDBRANCH   8  13
ENDBRANCH   3   5
TORSDOF 3
ENDMDL
MODEL      151
REMARK 921   NORMALIZED FREE ENERGY PREDICTED BY IDOCK:   -3.11 KCAL/MOL
REMARK 922        TOTAL FREE ENERGY PREDICTED BY IDOCK:   -3.91 KCAL/MOL
REMARK 923 INTER-LIGAND FREE ENERGY PREDICTED BY IDOCK:   -3.58 KCAL/MOL
REMARK 924 INTRA-LIGAND FREE ENERGY PREDICTED BY IDOCK:   -0.34 KCAL/MOL
REMARK 927      BINDING AFFINITY PREDICTED BY RF-SCORE:    0.00 PKD
ROOT
HETATM    1  O   UNL     1      -6.412   9.440  72.808  1.00  0.00    -0.280 OA 
HETATM    2  C   UNL     1      -6.379   8.123  72.502  1.00  0.00    -0.073 C  
HETATM    3  C   UNL     1      -7.139   7.717  71.252  1.00  0.00    -0.054 C  
HETATM    4  O   UNL     1      -5.760   7.319  73.189  1.00  0.00    -0.045 OA 
ENDROOT
BRANCH   3   5
HETATM    5  S   UNL     1      -8.015   9.142  70.511  1.00  0.00    -0.168 SA 
HETATM    6  C   UNL     1      -9.643   8.401  70.093  1.00  0.00    -0.165 C  
HETATM    7  S   UNL     1     -10.486   7.905  71.648  1.00  0.00    -0.216 SA 
HETATM    8  S   UNL     1     -10.650   9.695  69.257  1.00  0.00    -0.222 SA 
BRANCH   7   9
HETATM    9  C   UNL     1     -12.031   7.174  70.988  1.00  0.00    -0.347 C  
HETATM   10  O   UNL     1     -13.037   9.048  72.166  1.00  0.00    -0.372 OA 
HETATM   11  O   UNL     1     -14.391   7.647  71.037  1.00  0.00    -0.271 OA 
HETATM   12  C   UNL     1     -13.263   7.963  71.389  1.00  0.00    -0.245 C  
ENDBRANCH   7   9
BRANCH   8  13
HETATM   13  C   UNL     1      -9.645  10.003  67.754  1.00  0.00    -0.148 C  
HETATM   14  C   UNL     1     -10.365  10.892  66.757  1.00  0.00    -0.241 C  
HETATM   15  O   UNL     1     -11.569  11.361  67.154  1.00  0.00    -0.519 OA 
HETATM   16  O   UNL     1      -9.884  11.185  65.671  1.00  0.00    -0.213 OA 
ENDBRANCH   8  13
ENDBRANCH   3   5
TORSDOF 3
ENDMDL
MODEL      152
REMARK 921   NORMALIZED FREE ENERGY PREDICTED BY IDOCK:   -3.10 KCAL/MOL
REMARK 922        TOTAL FREE ENERGY PREDICTED BY IDOCK:   -3.90 KCAL/MOL
REMARK 923 INTER-LIGAND FREE ENERGY PREDICTED BY IDOCK:   -3.68 KCAL/MOL
REMARK 924 INTRA-LIGAND FREE ENERGY PREDICTED BY IDOCK:   -0.22 KCAL/MOL
REMARK 927      BINDING AFFINITY PREDICTED BY RF-SCORE:    0.00 PKD
ROOT
HETATM    1  O   UNL     1     -12.547  14.385  66.954  1.00  0.00    -0.173 OA 
HETATM    2  C   UNL     1     -12.124  13.937  65.750  1.00  0.00    -0.425 C  
HETATM    3  C   UNL     1     -11.680  12.486  65.705  1.00  0.00    -0.426 C  
HETATM    4  O   UNL     1     -12.118  14.660  64.761  1.00  0.00    -0.421 OA 
ENDROOT
BRANCH   3   5
HETATM    5  S   UNL     1     -11.738  11.718  67.366  1.00  0.00    -0.149 SA 
HETATM    6  C   UNL     1      -9.956  11.649  67.805  1.00  0.00    -0.181 C  
HETATM    7  S   UNL     1      -9.313  13.364  67.945  1.00  0.00    -0.224 SA 
HETATM    8  S   UNL     1      -9.815  10.825  69.445  1.00  0.00    -0.005 SA 
BRANCH   7   9
HETATM    9  C   UNL     1      -7.553  13.043  68.341  1.00  0.00    -0.133 C  
HETATM   10  O   UNL     1      -7.220  15.022  66.969  1.00  0.00    -0.161 OA 
HETATM   11  O   UNL     1      -5.409  14.035  67.872  1.00  0.00    -0.163 OA 
HETATM   12  C   UNL     1      -6.622  14.065  67.716  1.00  0.00    -0.176 C  
ENDBRANCH   7   9
BRANCH   8  13
HETATM   13  C   UNL     1     -10.478   9.160  69.057  1.00  0.00    -0.221 C  
HETATM   14  C   UNL     1     -10.916   8.413  70.304  1.00  0.00    -0.232 C  
HETATM   15  O   UNL     1     -10.817   9.102  71.463  1.00  0.00    -0.316 OA 
HETATM   16  O   UNL     1     -11.349   7.269  70.267  1.00  0.00    -0.273 OA 
ENDBRANCH   8  13
ENDBRANCH   3   5
TORSDOF 3
ENDMDL
MODEL      153
REMARK 921   NORMALIZED FREE ENERGY PREDICTED BY IDOCK:   -3.06 KCAL/MOL
REMARK 922        TOTAL FREE ENERGY PREDICTED BY IDOCK:   -3.85 KCAL/MOL
REMARK 923 INTER-LIGAND FREE ENERGY PREDICTED BY IDOCK:   -3.53 KCAL/MOL
REMARK 924 INTRA-LIGAND FREE ENERGY PREDICTED BY IDOCK:   -0.32 KCAL/MOL
REMARK 927      BINDING AFFINITY PREDICTED BY RF-SCORE:    0.00 PKD
ROOT
HETATM    1  O   UNL     1     -12.212  12.094  69.482  1.00  0.00    -0.222 OA 
HETATM    2  C   UNL     1     -11.763  11.365  68.436  1.00  0.00    -0.303 C  
HETATM    3  C   UNL     1     -11.135  10.028  68.784  1.00  0.00    -0.173 C  
HETATM    4  O   UNL     1     -11.876  11.761  67.281  1.00  0.00    -0.596 OA 
ENDROOT
BRANCH   3   5
HETATM    5  S   UNL     1     -11.052   9.782  70.597  1.00  0.00    -0.354 SA 
HETATM    6  C   UNL     1      -9.606   8.661  70.753  1.00  0.00    -0.188 C  
HETATM    7  S   UNL     1      -8.102   9.552  70.187  1.00  0.00    -0.184 SA 
HETATM    8  S   UNL     1      -9.412   8.242  72.535  1.00  0.00    -0.288 SA 
BRANCH   7   9
HETATM    9  C   UNL     1      -6.829   8.250  70.394  1.00  0.00    -0.036 C  
HETATM   10  O   UNL     1      -6.989   8.162  67.969  1.00  0.00    -0.074 OA 
HETATM   11  O   UNL     1      -5.529   6.787  68.991  1.00  0.00    -0.016 OA 
HETATM   12  C   UNL     1      -6.382   7.660  69.069  1.00  0.00    -0.036 C  
ENDBRANCH   7   9
BRANCH   8  13
HETATM   13  C   UNL     1     -10.986   7.357  72.858  1.00  0.00    -0.361 C  
HETATM   14  C   UNL     1     -10.804   5.850  72.866  1.00  0.00    -0.258 C  
HETATM   15  O   UNL     1      -9.535   5.413  72.709  1.00  0.00    -0.145 OA 
HETATM   16  O   UNL     1     -11.739   5.077  73.023  1.00  0.00    -0.297 OA 
ENDBRANCH   8  13
ENDBRANCH   3   5
TORSDOF 3
ENDMDL
MODEL      154
REMARK 921   NORMALIZED FREE ENERGY PREDICTED BY IDOCK:   -3.06 KCAL/MOL
REMARK 922        TOTAL FREE ENERGY PREDICTED BY IDOCK:   -3.85 KCAL/MOL
REMARK 923 INTER-LIGAND FREE ENERGY PREDICTED BY IDOCK:   -3.43 KCAL/MOL
REMARK 924 INTRA-LIGAND FREE ENERGY PREDICTED BY IDOCK:   -0.42 KCAL/MOL
REMARK 927      BINDING AFFINITY PREDICTED BY RF-SCORE:    0.00 PKD
ROOT
HETATM    1  O   UNL     1     -12.326  10.078  71.343  1.00  0.00    -0.355 OA 
HETATM    2  C   UNL     1     -12.874   8.975  71.902  1.00  0.00    -0.387 C  
HETATM    3  C   UNL     1     -11.895   7.904  72.344  1.00  0.00    -0.348 C  
HETATM    4  O   UNL     1     -14.086   8.866  72.053  1.00  0.00    -0.421 OA 
ENDROOT
BRANCH   3   5
HETATM    5  S   UNL     1     -10.175   8.348  71.901  1.00  0.00    -0.298 SA 
HETATM    6  C   UNL     1      -9.729   6.996  70.741  1.00  0.00    -0.168 C  
HETATM    7  S   UNL     1     -10.796   7.119  69.250  1.00  0.00    -0.141 SA 
HETATM    8  S   UNL     1      -7.976   7.244  70.239  1.00  0.00    -0.117 SA 
BRANCH   7   9
HETATM    9  C   UNL     1     -10.208   5.679  68.281  1.00  0.00    -0.186 C  
HETATM   10  O   UNL     1     -10.142   7.323  66.490  1.00  0.00    -0.188 OA 
HETATM   11  O   UNL     1      -9.498   5.216  66.028  1.00  0.00    -0.152 OA 
HETATM   12  C   UNL     1      -9.914   6.034  66.835  1.00  0.00    -0.169 C  
ENDBRANCH   7   9
BRANCH   8  13
HETATM   13  C   UNL     1      -7.121   7.055  71.850  1.00  0.00    -0.069 C  
HETATM   14  C   UNL     1      -6.473   8.348  72.309  1.00  0.00    -0.078 C  
HETATM   15  O   UNL     1      -6.683   9.422  71.515  1.00  0.00    -0.277 OA 
HETATM   16  O   UNL     1      -5.818   8.425  73.339  1.00  0.00    -0.075 OA 
ENDBRANCH   8  13
ENDBRANCH   3   5
TORSDOF 3
ENDMDL
MODEL      155
REMARK 921   NORMALIZED FREE ENERGY PREDICTED BY IDOCK:   -3.04 KCAL/MOL
REMARK 922        TOTAL FREE ENERGY PREDICTED BY IDOCK:   -3.83 KCAL/MOL
REMARK 923 INTER-LIGAND FREE ENERGY PREDICTED BY IDOCK:   -3.58 KCAL/MOL
REMARK 924 INTRA-LIGAND FREE ENERGY PREDICTED BY IDOCK:   -0.24 KCAL/MOL
REMARK 927      BINDING AFFINITY PREDICTED BY RF-SCORE:    0.00 PKD
ROOT
HETATM    1  O   UNL     1     -10.925  13.660  64.286  1.00  0.00    -0.382 OA 
HETATM    2  C   UNL     1     -11.833  12.683  64.510  1.00  0.00    -0.379 C  
HETATM    3  C   UNL     1     -11.354  11.522  65.363  1.00  0.00    -0.078 C  
HETATM    4  O   UNL     1     -12.971  12.748  64.061  1.00  0.00    -0.690 OA 
ENDROOT
BRANCH   3   5
HETATM    5  S   UNL     1      -9.586  11.699  65.800  1.00  0.00    -0.225 SA 
HETATM    6  C   UNL     1      -9.444  10.567  67.240  1.00  0.00    -0.158 C  
HETATM    7  S   UNL     1      -9.767   8.848  66.676  1.00  0.00    -0.259 SA 
HETATM    8  S   UNL     1      -7.718  10.672  67.868  1.00  0.00    -0.101 SA 
BRANCH   7   9
HETATM    9  C   UNL     1      -9.612   7.930  68.254  1.00  0.00    -0.156 C  
HETATM   10  O   UNL     1     -11.261   6.487  67.201  1.00  0.00    -0.388 OA 
HETATM   11  O   UNL     1     -10.532   5.946  69.261  1.00  0.00    -0.217 OA 
HETATM   12  C   UNL     1     -10.500   6.700  68.299  1.00  0.00    -0.209 C  
ENDBRANCH   7   9
BRANCH   8  13
HETATM   13  C   UNL     1      -7.641  12.430  68.385  1.00  0.00    -0.129 C  
HETATM   14  C   UNL     1      -6.224  12.975  68.352  1.00  0.00    -0.081 C  
HETATM   15  O   UNL     1      -5.281  12.123  67.892  1.00  0.00    -0.052 OA 
HETATM   16  O   UNL     1      -5.951  14.115  68.700  1.00  0.00    -0.081 OA 
ENDBRANCH   8  13
ENDBRANCH   3   5
TORSDOF 3
ENDMDL
MODEL      156
REMARK 921   NORMALIZED FREE ENERGY PREDICTED BY IDOCK:   -3.03 KCAL/MOL
REMARK 922        TOTAL FREE ENERGY PREDICTED BY IDOCK:   -3.82 KCAL/MOL
REMARK 923 INTER-LIGAND FREE ENERGY PREDICTED BY IDOCK:   -3.54 KCAL/MOL
REMARK 924 INTRA-LIGAND FREE ENERGY PREDICTED BY IDOCK:   -0.29 KCAL/MOL
REMARK 927      BINDING AFFINITY PREDICTED BY RF-SCORE:    0.00 PKD
ROOT
HETATM    1  O   UNL     1      -8.768   6.844  65.432  1.00  0.00    -0.094 OA 
HETATM    2  C   UNL     1      -7.917   5.977  66.027  1.00  0.00    -0.109 C  
HETATM    3  C   UNL     1      -7.429   6.375  67.408  1.00  0.00    -0.088 C  
HETATM    4  O   UNL     1      -7.580   4.932  65.482  1.00  0.00    -0.083 OA 
ENDROOT
BRANCH   3   5
HETATM    5  S   UNL     1      -8.058   8.025  67.889  1.00  0.00    -0.130 SA 
HETATM    6  C   UNL     1      -9.749   7.620  68.479  1.00  0.00    -0.158 C  
HETATM    7  S   UNL     1      -9.617   6.556  69.972  1.00  0.00    -0.158 SA 
HETATM    8  S   UNL     1     -10.572   9.199  68.946  1.00  0.00    -0.151 SA 
BRANCH   7   9
HETATM    9  C   UNL     1     -11.387   6.259  70.344  1.00  0.00    -0.372 C  
HETATM   10  O   UNL     1     -10.857   7.575  72.319  1.00  0.00    -0.230 OA 
HETATM   11  O   UNL     1     -12.969   6.838  72.064  1.00  0.00    -0.269 OA 
HETATM   12  C   UNL     1     -11.822   6.908  71.645  1.00  0.00    -0.324 C  
ENDBRANCH   7   9
BRANCH   8  13
HETATM   13  C   UNL     1     -10.614  10.062  67.329  1.00  0.00    -0.257 C  
HETATM   14  C   UNL     1     -11.600  11.216  67.321  1.00  0.00    -0.011 C  
HETATM   15  O   UNL     1     -12.223  11.461  68.495  1.00  0.00    -0.557 OA 
HETATM   16  O   UNL     1     -11.809  11.894  66.325  1.00  0.00    -0.546 OA 
ENDBRANCH   8  13
ENDBRANCH   3   5
TORSDOF 3
ENDMDL
MODEL      157
REMARK 921   NORMALIZED FREE ENERGY PREDICTED BY IDOCK:   -3.02 KCAL/MOL
REMARK 922        TOTAL FREE ENERGY PREDICTED BY IDOCK:   -3.81 KCAL/MOL
REMARK 923 INTER-LIGAND FREE ENERGY PREDICTED BY IDOCK:   -3.49 KCAL/MOL
REMARK 924 INTRA-LIGAND FREE ENERGY PREDICTED BY IDOCK:   -0.32 KCAL/MOL
REMARK 927      BINDING AFFINITY PREDICTED BY RF-SCORE:    0.00 PKD
ROOT
HETATM    1  O   UNL     1     -10.478  12.632  65.336  1.00  0.00    -0.273 OA 
HETATM    2  C   UNL     1     -11.248  13.070  66.357  1.00  0.00    -0.300 C  
HETATM    3  C   UNL     1     -11.412  12.109  67.520  1.00  0.00    -0.340 C  
HETATM    4  O   UNL     1     -11.765  14.182  66.341  1.00  0.00    -0.357 OA 
ENDROOT
BRANCH   3   5
HETATM    5  S   UNL     1     -10.580  10.513  67.189  1.00  0.00    -0.260 SA 
HETATM    6  C   UNL     1     -10.052  10.012  68.875  1.00  0.00    -0.190 C  
HETATM    7  S   UNL     1     -11.547   9.721  69.902  1.00  0.00    -0.006 SA 
HETATM    8  S   UNL     1      -9.119   8.433  68.724  1.00  0.00    -0.143 SA 
BRANCH   7   9
HETATM    9  C   UNL     1     -10.784   9.283  71.510  1.00  0.00    -0.355 C  
HETATM   10  O   UNL     1     -12.416   7.482  71.424  1.00  0.00    -0.329 OA 
HETATM   11  O   UNL     1     -11.030   7.581  73.196  1.00  0.00    -0.376 OA 
HETATM   12  C   UNL     1     -11.408   8.046  72.129  1.00  0.00    -0.328 C  
ENDBRANCH   7   9
BRANCH   8  13
HETATM   13  C   UNL     1      -7.692   8.966  67.704  1.00  0.00    -0.101 C  
HETATM   14  C   UNL     1      -6.501   9.373  68.553  1.00  0.00    -0.053 C  
HETATM   15  O   UNL     1      -6.652   9.214  69.886  1.00  0.00    -0.043 OA 
HETATM   16  O   UNL     1      -5.463   9.799  68.067  1.00  0.00    -0.040 OA 
ENDBRANCH   8  13
ENDBRANCH   3   5
TORSDOF 3
ENDMDL
MODEL      158
REMARK 921   NORMALIZED FREE ENERGY PREDICTED BY IDOCK:   -3.02 KCAL/MOL
REMARK 922        TOTAL FREE ENERGY PREDICTED BY IDOCK:   -3.81 KCAL/MOL
REMARK 923 INTER-LIGAND FREE ENERGY PREDICTED BY IDOCK:   -3.42 KCAL/MOL
REMARK 924 INTRA-LIGAND FREE ENERGY PREDICTED BY IDOCK:   -0.39 KCAL/MOL
REMARK 927      BINDING AFFINITY PREDICTED BY RF-SCORE:    0.00 PKD
ROOT
HETATM    1  O   UNL     1     -10.753   4.713  65.927  1.00  0.00    -0.307 OA 
HETATM    2  C   UNL     1      -9.409   4.857  65.911  1.00  0.00    -0.159 C  
HETATM    3  C   UNL     1      -8.795   5.464  67.159  1.00  0.00    -0.109 C  
HETATM    4  O   UNL     1      -8.736   4.502  64.949  1.00  0.00    -0.128 OA 
ENDROOT
BRANCH   3   5
HETATM    5  S   UNL     1     -10.081   5.954  68.365  1.00  0.00    -0.184 SA 
HETATM    6  C   UNL     1      -9.839   7.773  68.448  1.00  0.00    -0.168 C  
HETATM    7  S   UNL     1     -10.231   8.498  66.806  1.00  0.00    -0.270 SA 
HETATM    8  S   UNL     1     -11.022   8.440  69.690  1.00  0.00    -0.007 SA 
BRANCH   7   9
HETATM    9  C   UNL     1      -9.886  10.271  67.119  1.00  0.00    -0.185 C  
HETATM   10  O   UNL     1     -10.266  10.433  64.722  1.00  0.00    -0.345 OA 
HETATM   11  O   UNL     1      -9.788  12.319  65.856  1.00  0.00    -0.247 OA 
HETATM   12  C   UNL     1      -9.971  11.109  65.857  1.00  0.00    -0.239 C  
ENDBRANCH   7   9
BRANCH   8  13
HETATM   13  C   UNL     1     -10.430   7.613  71.216  1.00  0.00    -0.206 C  
HETATM   14  C   UNL     1     -11.522   6.798  71.886  1.00  0.00    -0.282 C  
HETATM   15  O   UNL     1     -12.705   6.756  71.232  1.00  0.00    -0.345 OA 
HETATM   16  O   UNL     1     -11.344   6.202  72.939  1.00  0.00    -0.242 OA 
ENDBRANCH   8  13
ENDBRANCH   3   5
TORSDOF 3
ENDMDL
MODEL      159
REMARK 921   NORMALIZED FREE ENERGY PREDICTED BY IDOCK:   -3.02 KCAL/MOL
REMARK 922        TOTAL FREE ENERGY PREDICTED BY IDOCK:   -3.81 KCAL/MOL
REMARK 923 INTER-LIGAND FREE ENERGY PREDICTED BY IDOCK:   -3.52 KCAL/MOL
REMARK 924 INTRA-LIGAND FREE ENERGY PREDICTED BY IDOCK:   -0.29 KCAL/MOL
REMARK 927      BINDING AFFINITY PREDICTED BY RF-SCORE:    0.00 PKD
ROOT
HETATM    1  O   UNL     1     -12.540  12.714  70.979  1.00  0.00    -0.361 OA 
HETATM    2  C   UNL     1     -12.578  11.367  71.094  1.00  0.00    -0.386 C  
HETATM    3  C   UNL     1     -11.698  10.598  70.125  1.00  0.00    -0.332 C  
HETATM    4  O   UNL     1     -13.270  10.813  71.940  1.00  0.00    -0.469 OA 
ENDROOT
BRANCH   3   5
HETATM    5  S   UNL     1     -10.861  11.721  68.947  1.00  0.00    -0.207 SA 
HETATM    6  C   UNL     1      -9.559  10.628  68.253  1.00  0.00    -0.162 C  
HETATM    7  S   UNL     1     -10.365   9.260  67.328  1.00  0.00    -0.265 SA 
HETATM    8  S   UNL     1      -8.555  11.629  67.079  1.00  0.00    -0.174 SA 
BRANCH   7   9
HETATM    9  C   UNL     1      -8.901   8.305  66.776  1.00  0.00    -0.140 C  
HETATM   10  O   UNL     1      -9.401   7.007  68.770  1.00  0.00    -0.136 OA 
HETATM   11  O   UNL     1      -7.654   6.377  67.499  1.00  0.00    -0.096 OA 
HETATM   12  C   UNL     1      -8.584   7.144  67.700  1.00  0.00    -0.122 C  
ENDBRANCH   7   9
BRANCH   8  13
HETATM   13  C   UNL     1      -7.845  12.885  68.210  1.00  0.00    -0.142 C  
HETATM   14  C   UNL     1      -6.385  13.170  67.906  1.00  0.00    -0.139 C  
HETATM   15  O   UNL     1      -5.874  12.522  66.836  1.00  0.00    -0.304 OA 
HETATM   16  O   UNL     1      -5.715  13.947  68.572  1.00  0.00    -0.081 OA 
ENDBRANCH   8  13
ENDBRANCH   3   5
TORSDOF 3
ENDMDL
MODEL      160
REMARK 921   NORMALIZED FREE ENERGY PREDICTED BY IDOCK:   -3.02 KCAL/MOL
REMARK 922        TOTAL FREE ENERGY PREDICTED BY IDOCK:   -3.81 KCAL/MOL
REMARK 923 INTER-LIGAND FREE ENERGY PREDICTED BY IDOCK:   -3.45 KCAL/MOL
REMARK 924 INTRA-LIGAND FREE ENERGY PREDICTED BY IDOCK:   -0.35 KCAL/MOL
REMARK 927      BINDING AFFINITY PREDICTED BY RF-SCORE:    0.00 PKD
ROOT
HETATM    1  O   UNL     1      -6.729   9.080  72.924  1.00  0.00    -0.324 OA 
HETATM    2  C   UNL     1      -7.105   7.838  73.305  1.00  0.00    -0.088 C  
HETATM    3  C   UNL     1      -7.616   6.935  72.198  1.00  0.00    -0.092 C  
HETATM    4  O   UNL     1      -7.019   7.470  74.471  1.00  0.00    -0.102 OA 
ENDROOT
BRANCH   3   5
HETATM    5  S   UNL     1      -7.690   7.819  70.596  1.00  0.00    -0.092 SA 
HETATM    6  C   UNL     1      -9.498   7.851  70.273  1.00  0.00    -0.163 C  
HETATM    7  S   UNL     1     -10.314   8.865  71.570  1.00  0.00    -0.347 SA 
HETATM    8  S   UNL     1      -9.760   8.654  68.638  1.00  0.00    -0.167 SA 
BRANCH   7   9
HETATM    9  C   UNL     1     -12.071   8.719  71.070  1.00  0.00    -0.225 C  
HETATM   10  O   UNL     1     -11.917   6.640  72.321  1.00  0.00    -0.284 OA 
HETATM   11  O   UNL     1     -13.893   7.177  71.384  1.00  0.00    -0.364 OA 
HETATM   12  C   UNL     1     -12.720   7.453  71.596  1.00  0.00    -0.365 C  
ENDBRANCH   7   9
BRANCH   8  13
HETATM   13  C   UNL     1      -8.900   7.476  67.528  1.00  0.00    -0.127 C  
HETATM   14  C   UNL     1      -9.871   6.584  66.776  1.00  0.00    -0.162 C  
HETATM   15  O   UNL     1     -11.182   6.840  66.985  1.00  0.00    -0.393 OA 
HETATM   16  O   UNL     1      -9.498   5.701  66.015  1.00  0.00    -0.159 OA 
ENDBRANCH   8  13
ENDBRANCH   3   5
TORSDOF 3
ENDMDL
MODEL      161
REMARK 921   NORMALIZED FREE ENERGY PREDICTED BY IDOCK:   -3.00 KCAL/MOL
REMARK 922        TOTAL FREE ENERGY PREDICTED BY IDOCK:   -3.78 KCAL/MOL
REMARK 923 INTER-LIGAND FREE ENERGY PREDICTED BY IDOCK:   -3.41 KCAL/MOL
REMARK 924 INTRA-LIGAND FREE ENERGY PREDICTED BY IDOCK:   -0.38 KCAL/MOL
REMARK 927      BINDING AFFINITY PREDICTED BY RF-SCORE:    0.00 PKD
ROOT
HETATM    1  O   UNL     1     -12.019  11.072  67.657  1.00  0.00    -0.583 OA 
HETATM    2  C   UNL     1     -11.794  11.648  68.860  1.00  0.00    -0.329 C  
HETATM    3  C   UNL     1     -11.166  10.753  69.912  1.00  0.00    -0.300 C  
HETATM    4  O   UNL     1     -12.070  12.823  69.072  1.00  0.00    -0.262 OA 
ENDROOT
BRANCH   3   5
HETATM    5  S   UNL     1     -10.959   9.042  69.296  1.00  0.00     0.054 SA 
HETATM    6  C   UNL     1      -9.683   8.386  70.443  1.00  0.00    -0.173 C  
HETATM    7  S   UNL     1     -10.379   8.344  72.142  1.00  0.00    -0.342 SA 
HETATM    8  S   UNL     1      -9.290   6.666  69.919  1.00  0.00    -0.152 SA 
BRANCH   7   9
HETATM    9  C   UNL     1      -8.945   7.708  73.090  1.00  0.00    -0.191 C  
HETATM   10  O   UNL     1     -10.546   5.996  73.738  1.00  0.00    -0.260 OA 
HETATM   11  O   UNL     1      -8.447   5.851  74.539  1.00  0.00    -0.114 OA 
HETATM   12  C   UNL     1      -9.273   6.440  73.857  1.00  0.00    -0.140 C  
ENDBRANCH   7   9
BRANCH   8  13
HETATM   13  C   UNL     1      -8.602   6.958  68.245  1.00  0.00    -0.125 C  
HETATM   14  C   UNL     1      -9.413   6.266  67.164  1.00  0.00    -0.124 C  
HETATM   15  O   UNL     1     -10.522   5.621  67.588  1.00  0.00    -0.209 OA 
HETATM   16  O   UNL     1      -9.098   6.302  65.982  1.00  0.00    -0.156 OA 
ENDBRANCH   8  13
ENDBRANCH   3   5
TORSDOF 3
ENDMDL
MODEL      162
REMARK 921   NORMALIZED FREE ENERGY PREDICTED BY IDOCK:   -3.00 KCAL/MOL
REMARK 922        TOTAL FREE ENERGY PREDICTED BY IDOCK:   -3.78 KCAL/MOL
REMARK 923 INTER-LIGAND FREE ENERGY PREDICTED BY IDOCK:   -3.48 KCAL/MOL
REMARK 924 INTRA-LIGAND FREE ENERGY PREDICTED BY IDOCK:   -0.30 KCAL/MOL
REMARK 927      BINDING AFFINITY PREDICTED BY RF-SCORE:    0.00 PKD
ROOT
HETATM    1  O   UNL     1      -6.738   8.985  69.185  1.00  0.00    -0.049 OA 
HETATM    2  C   UNL     1      -6.648   9.478  70.441  1.00  0.00    -0.086 C  
HETATM    3  C   UNL     1      -7.294   8.636  71.527  1.00  0.00    -0.100 C  
HETATM    4  O   UNL     1      -6.067  10.530  70.679  1.00  0.00    -0.144 OA 
ENDROOT
BRANCH   3   5
HETATM    5  S   UNL     1      -8.142   7.174  70.824  1.00  0.00    -0.109 SA 
HETATM    6  C   UNL     1      -9.693   7.137  71.805  1.00  0.00    -0.157 C  
HETATM    7  S   UNL     1     -10.668   8.649  71.432  1.00  0.00    -0.294 SA 
HETATM    8  S   UNL     1     -10.657   5.662  71.274  1.00  0.00    -0.243 SA 
BRANCH   7   9
HETATM    9  C   UNL     1     -12.114   8.411  72.531  1.00  0.00    -0.337 C  
HETATM   10  O   UNL     1     -13.171   9.898  70.924  1.00  0.00    -0.348 OA 
HETATM   11  O   UNL     1     -14.410   9.129  72.640  1.00  0.00    -0.561 OA 
HETATM   12  C   UNL     1     -13.338   9.169  72.052  1.00  0.00    -0.445 C  
ENDBRANCH   7   9
BRANCH   8  13
HETATM   13  C   UNL     1      -9.521   4.308  71.761  1.00  0.00    -0.145 C  
HETATM   14  C   UNL     1     -10.030   3.540  72.967  1.00  0.00    -0.143 C  
HETATM   15  O   UNL     1     -11.240   3.920  73.435  1.00  0.00    -0.237 OA 
HETATM   16  O   UNL     1      -9.399   2.624  73.477  1.00  0.00    -0.083 OA 
ENDBRANCH   8  13
ENDBRANCH   3   5
TORSDOF 3
ENDMDL
MODEL      163
REMARK 921   NORMALIZED FREE ENERGY PREDICTED BY IDOCK:   -2.99 KCAL/MOL
REMARK 922        TOTAL FREE ENERGY PREDICTED BY IDOCK:   -3.77 KCAL/MOL
REMARK 923 INTER-LIGAND FREE ENERGY PREDICTED BY IDOCK:   -4.01 KCAL/MOL
REMARK 924 INTRA-LIGAND FREE ENERGY PREDICTED BY IDOCK:    0.24 KCAL/MOL
REMARK 927      BINDING AFFINITY PREDICTED BY RF-SCORE:    0.00 PKD
ROOT
HETATM    1  O   UNL     1      -9.946  12.247  68.511  1.00  0.00    -0.213 OA 
HETATM    2  C   UNL     1      -8.918  13.074  68.210  1.00  0.00    -0.177 C  
HETATM    3  C   UNL     1      -7.733  12.427  67.517  1.00  0.00    -0.161 C  
HETATM    4  O   UNL     1      -8.959  14.270  68.472  1.00  0.00    -0.188 OA 
ENDROOT
BRANCH   3   5
HETATM    5  S   UNL     1      -7.962  10.618  67.350  1.00  0.00    -0.112 SA 
HETATM    6  C   UNL     1      -9.522  10.529  66.385  1.00  0.00    -0.171 C  
HETATM    7  S   UNL     1      -9.236  11.266  64.727  1.00  0.00    -0.019 SA 
HETATM    8  S   UNL     1      -9.954   8.752  66.180  1.00  0.00    -0.044 SA 
BRANCH   7   9
HETATM    9  C   UNL     1     -10.903  11.103  63.982  1.00  0.00    -0.281 C  
HETATM   10  O   UNL     1     -10.855  13.529  64.137  1.00  0.00    -0.372 OA 
HETATM   11  O   UNL     1     -12.680  12.554  63.251  1.00  0.00    -0.678 OA 
HETATM   12  C   UNL     1     -11.570  12.447  63.752  1.00  0.00    -0.473 C  
ENDBRANCH   7   9
BRANCH   8  13
HETATM   13  C   UNL     1     -10.213   8.251  67.924  1.00  0.00    -0.220 C  
HETATM   14  C   UNL     1     -10.981   6.947  68.038  1.00  0.00    -0.166 C  
HETATM   15  O   UNL     1     -11.282   6.342  66.867  1.00  0.00    -0.368 OA 
HETATM   16  O   UNL     1     -11.294   6.461  69.116  1.00  0.00    -0.364 OA 
ENDBRANCH   8  13
ENDBRANCH   3   5
TORSDOF 3
ENDMDL
MODEL      164
REMARK 921   NORMALIZED FREE ENERGY PREDICTED BY IDOCK:   -2.98 KCAL/MOL
REMARK 922        TOTAL FREE ENERGY PREDICTED BY IDOCK:   -3.76 KCAL/MOL
REMARK 923 INTER-LIGAND FREE ENERGY PREDICTED BY IDOCK:   -3.45 KCAL/MOL
REMARK 924 INTRA-LIGAND FREE ENERGY PREDICTED BY IDOCK:   -0.31 KCAL/MOL
REMARK 927      BINDING AFFINITY PREDICTED BY RF-SCORE:    0.00 PKD
ROOT
HETATM    1  O   UNL     1      -9.964   6.969  71.544  1.00  0.00    -0.181 OA 
HETATM    2  C   UNL     1     -10.854   7.974  71.381  1.00  0.00    -0.231 C  
HETATM    3  C   UNL     1     -10.828   8.666  70.031  1.00  0.00    -0.221 C  
HETATM    4  O   UNL     1     -11.639   8.287  72.269  1.00  0.00    -0.332 OA 
ENDROOT
BRANCH   3   5
HETATM    5  S   UNL     1      -9.488   8.010  68.970  1.00  0.00    -0.152 SA 
HETATM    6  C   UNL     1     -10.004   8.604  67.310  1.00  0.00    -0.219 C  
HETATM    7  S   UNL     1      -9.952  10.441  67.296  1.00  0.00    -0.196 SA 
HETATM    8  S   UNL     1      -8.789   7.966  66.084  1.00  0.00    -0.163 SA 
BRANCH   7   9
HETATM    9  C   UNL     1     -10.531  10.791  65.593  1.00  0.00    -0.186 C  
HETATM   10  O   UNL     1     -11.914  12.425  66.746  1.00  0.00    -0.559 OA 
HETATM   11  O   UNL     1     -12.073  12.287  64.505  1.00  0.00    -0.392 OA 
HETATM   12  C   UNL     1     -11.571  11.895  65.549  1.00  0.00    -0.218 C  
ENDBRANCH   7   9
BRANCH   8  13
HETATM   13  C   UNL     1      -9.035   6.157  66.257  1.00  0.00    -0.154 C  
HETATM   14  C   UNL     1      -7.772   5.449  66.713  1.00  0.00    -0.100 C  
HETATM   15  O   UNL     1      -6.716   6.249  66.980  1.00  0.00    -0.056 OA 
HETATM   16  O   UNL     1      -7.714   4.234  66.850  1.00  0.00    -0.091 OA 
ENDBRANCH   8  13
ENDBRANCH   3   5
TORSDOF 3
ENDMDL
MODEL      165
REMARK 921   NORMALIZED FREE ENERGY PREDICTED BY IDOCK:   -2.96 KCAL/MOL
REMARK 922        TOTAL FREE ENERGY PREDICTED BY IDOCK:   -3.74 KCAL/MOL
REMARK 923 INTER-LIGAND FREE ENERGY PREDICTED BY IDOCK:   -3.35 KCAL/MOL
REMARK 924 INTRA-LIGAND FREE ENERGY PREDICTED BY IDOCK:   -0.39 KCAL/MOL
REMARK 927      BINDING AFFINITY PREDICTED BY RF-SCORE:    0.00 PKD
ROOT
HETATM    1  O   UNL     1     -11.261   9.755  71.541  1.00  0.00    -0.360 OA 
HETATM    2  C   UNL     1     -12.506   9.272  71.331  1.00  0.00    -0.341 C  
HETATM    3  C   UNL     1     -12.711   7.806  71.668  1.00  0.00    -0.335 C  
HETATM    4  O   UNL     1     -13.409   9.985  70.909  1.00  0.00    -0.382 OA 
ENDROOT
BRANCH   3   5
HETATM    5  S   UNL     1     -11.145   7.017  72.194  1.00  0.00    -0.254 SA 
HETATM    6  C   UNL     1     -10.869   5.803  70.844  1.00  0.00    -0.256 C  
HETATM    7  S   UNL     1     -10.596   6.715  69.273  1.00  0.00    -0.261 SA 
HETATM    8  S   UNL     1      -9.347   4.851  71.250  1.00  0.00    -0.157 SA 
BRANCH   7   9
HETATM    9  C   UNL     1     -10.389   5.326  68.096  1.00  0.00    -0.114 C  
HETATM   10  O   UNL     1      -8.332   6.509  67.566  1.00  0.00    -0.119 OA 
HETATM   11  O   UNL     1      -8.769   4.590  66.473  1.00  0.00    -0.112 OA 
HETATM   12  C   UNL     1      -9.100   5.427  67.301  1.00  0.00    -0.111 C  
ENDBRANCH   7   9
BRANCH   8  13
HETATM   13  C   UNL     1      -9.857   4.024  72.805  1.00  0.00    -0.147 C  
HETATM   14  C   UNL     1     -10.112   2.540  72.607  1.00  0.00    -0.156 C  
HETATM   15  O   UNL     1      -9.862   2.064  71.367  1.00  0.00    -0.146 OA 
HETATM   16  O   UNL     1     -10.502   1.814  73.512  1.00  0.00    -0.094 OA 
ENDBRANCH   8  13
ENDBRANCH   3   5
TORSDOF 3
ENDMDL
MODEL      166
REMARK 921   NORMALIZED FREE ENERGY PREDICTED BY IDOCK:   -2.94 KCAL/MOL
REMARK 922        TOTAL FREE ENERGY PREDICTED BY IDOCK:   -3.71 KCAL/MOL
REMARK 923 INTER-LIGAND FREE ENERGY PREDICTED BY IDOCK:   -3.38 KCAL/MOL
REMARK 924 INTRA-LIGAND FREE ENERGY PREDICTED BY IDOCK:   -0.34 KCAL/MOL
REMARK 927      BINDING AFFINITY PREDICTED BY RF-SCORE:    0.00 PKD
ROOT
HETATM    1  O   UNL     1     -11.441  10.327  70.880  1.00  0.00    -0.338 OA 
HETATM    2  C   UNL     1     -11.513   9.020  71.219  1.00  0.00    -0.320 C  
HETATM    3  C   UNL     1     -10.936   8.045  70.209  1.00  0.00    -0.242 C  
HETATM    4  O   UNL     1     -12.001   8.658  72.283  1.00  0.00    -0.364 OA 
ENDROOT
BRANCH   3   5
HETATM    5  S   UNL     1     -10.364   8.907  68.699  1.00  0.00    -0.188 SA 
HETATM    6  C   UNL     1      -9.666   7.519  67.720  1.00  0.00    -0.146 C  
HETATM    7  S   UNL     1     -11.023   6.359  67.285  1.00  0.00    -0.347 SA 
HETATM    8  S   UNL     1      -8.965   8.223  66.171  1.00  0.00    -0.183 SA 
BRANCH   7   9
HETATM    9  C   UNL     1     -10.098   5.070  66.369  1.00  0.00    -0.249 C  
HETATM   10  O   UNL     1      -9.789   4.162  68.603  1.00  0.00    -0.122 OA 
HETATM   11  O   UNL     1      -8.901   3.040  66.865  1.00  0.00    -0.125 OA 
HETATM   12  C   UNL     1      -9.538   3.997  67.284  1.00  0.00    -0.189 C  
ENDBRANCH   7   9
BRANCH   8  13
HETATM   13  C   UNL     1      -7.644   9.302  66.843  1.00  0.00    -0.091 C  
HETATM   14  C   UNL     1      -7.747  10.724  66.322  1.00  0.00    -0.146 C  
HETATM   15  O   UNL     1      -8.807  10.980  65.524  1.00  0.00    -0.195 OA 
HETATM   16  O   UNL     1      -6.936  11.592  66.617  1.00  0.00    -0.131 OA 
ENDBRANCH   8  13
ENDBRANCH   3   5
TORSDOF 3
ENDMDL
MODEL      167
REMARK 921   NORMALIZED FREE ENERGY PREDICTED BY IDOCK:   -2.93 KCAL/MOL
REMARK 922        TOTAL FREE ENERGY PREDICTED BY IDOCK:   -3.70 KCAL/MOL
REMARK 923 INTER-LIGAND FREE ENERGY PREDICTED BY IDOCK:   -3.25 KCAL/MOL
REMARK 924 INTRA-LIGAND FREE ENERGY PREDICTED BY IDOCK:   -0.45 KCAL/MOL
REMARK 927      BINDING AFFINITY PREDICTED BY RF-SCORE:    0.00 PKD
ROOT
HETATM    1  O   UNL     1      -9.010   7.562  65.527  1.00  0.00    -0.054 OA 
HETATM    2  C   UNL     1      -9.590   7.246  66.707  1.00  0.00    -0.185 C  
HETATM    3  C   UNL     1     -10.510   8.300  67.293  1.00  0.00    -0.303 C  
HETATM    4  O   UNL     1      -9.390   6.166  67.252  1.00  0.00    -0.114 OA 
ENDROOT
BRANCH   3   5
HETATM    5  S   UNL     1     -10.523   9.819  66.271  1.00  0.00    -0.014 SA 
HETATM    6  C   UNL     1      -9.724  11.031  67.396  1.00  0.00    -0.168 C  
HETATM    7  S   UNL     1      -7.988  10.507  67.695  1.00  0.00    -0.106 SA 
HETATM    8  S   UNL     1      -9.715  12.663  66.547  1.00  0.00    -0.259 SA 
BRANCH   7   9
HETATM    9  C   UNL     1      -7.424  11.816  68.847  1.00  0.00    -0.080 C  
HETATM   10  O   UNL     1      -5.635  12.030  67.214  1.00  0.00    -0.105 OA 
HETATM   11  O   UNL     1      -5.621  13.405  68.997  1.00  0.00    -0.072 OA 
HETATM   12  C   UNL     1      -6.152  12.495  68.376  1.00  0.00    -0.058 C  
ENDBRANCH   7   9
BRANCH   8  13
HETATM   13  C   UNL     1     -11.513  12.982  66.383  1.00  0.00    -0.341 C  
HETATM   14  C   UNL     1     -11.939  13.126  64.933  1.00  0.00    -0.388 C  
HETATM   15  O   UNL     1     -10.966  12.932  64.016  1.00  0.00    -0.376 OA 
HETATM   16  O   UNL     1     -13.091  13.383  64.610  1.00  0.00    -0.626 OA 
ENDBRANCH   8  13
ENDBRANCH   3   5
TORSDOF 3
ENDMDL
MODEL      168
REMARK 921   NORMALIZED FREE ENERGY PREDICTED BY IDOCK:   -2.92 KCAL/MOL
REMARK 922        TOTAL FREE ENERGY PREDICTED BY IDOCK:   -3.69 KCAL/MOL
REMARK 923 INTER-LIGAND FREE ENERGY PREDICTED BY IDOCK:   -3.52 KCAL/MOL
REMARK 924 INTRA-LIGAND FREE ENERGY PREDICTED BY IDOCK:   -0.17 KCAL/MOL
REMARK 927      BINDING AFFINITY PREDICTED BY RF-SCORE:    0.00 PKD
ROOT
HETATM    1  O   UNL     1     -12.268   9.379  71.058  1.00  0.00    -0.296 OA 
HETATM    2  C   UNL     1     -13.158   8.616  71.732  1.00  0.00    -0.361 C  
HETATM    3  C   UNL     1     -12.986   7.115  71.585  1.00  0.00    -0.370 C  
HETATM    4  O   UNL     1     -14.035   9.115  72.428  1.00  0.00    -0.471 OA 
ENDROOT
BRANCH   3   5
HETATM    5  S   UNL     1     -11.637   6.710  70.415  1.00  0.00    -0.377 SA 
HETATM    6  C   UNL     1     -10.149   6.975  71.458  1.00  0.00    -0.187 C  
HETATM    7  S   UNL     1     -10.160   5.750  72.828  1.00  0.00    -0.184 SA 
HETATM    8  S   UNL     1      -8.668   6.677  70.407  1.00  0.00    -0.152 SA 
BRANCH   7   9
HETATM    9  C   UNL     1      -8.638   6.227  73.732  1.00  0.00    -0.123 C  
HETATM   10  O   UNL     1      -7.968   3.965  73.141  1.00  0.00    -0.084 OA 
HETATM   11  O   UNL     1      -6.518   5.238  74.300  1.00  0.00    -0.066 OA 
HETATM   12  C   UNL     1      -7.607   5.114  73.759  1.00  0.00    -0.091 C  
ENDBRANCH   7   9
BRANCH   8  13
HETATM   13  C   UNL     1      -8.856   8.003  69.155  1.00  0.00    -0.145 C  
HETATM   14  C   UNL     1      -8.572   9.379  69.731  1.00  0.00    -0.175 C  
HETATM   15  O   UNL     1      -8.168   9.401  71.020  1.00  0.00    -0.294 OA 
HETATM   16  O   UNL     1      -8.682  10.403  69.070  1.00  0.00    -0.149 OA 
ENDBRANCH   8  13
ENDBRANCH   3   5
TORSDOF 3
ENDMDL
MODEL      169
REMARK 921   NORMALIZED FREE ENERGY PREDICTED BY IDOCK:   -2.90 KCAL/MOL
REMARK 922        TOTAL FREE ENERGY PREDICTED BY IDOCK:   -3.67 KCAL/MOL
REMARK 923 INTER-LIGAND FREE ENERGY PREDICTED BY IDOCK:   -3.35 KCAL/MOL
REMARK 924 INTRA-LIGAND FREE ENERGY PREDICTED BY IDOCK:   -0.32 KCAL/MOL
REMARK 927      BINDING AFFINITY PREDICTED BY RF-SCORE:    0.00 PKD
ROOT
HETATM    1  O   UNL     1      -7.953   9.127  71.432  1.00  0.00    -0.314 OA 
HETATM    2  C   UNL     1      -9.210   8.641  71.322  1.00  0.00    -0.220 C  
HETATM    3  C   UNL     1      -9.520   7.895  70.037  1.00  0.00    -0.157 C  
HETATM    4  O   UNL     1     -10.035   8.785  72.217  1.00  0.00    -0.308 OA 
ENDROOT
BRANCH   3   5
HETATM    5  S   UNL     1      -8.098   7.933  68.884  1.00  0.00    -0.126 SA 
HETATM    6  C   UNL     1      -8.832   8.753  67.414  1.00  0.00    -0.133 C  
HETATM    7  S   UNL     1      -9.300  10.471  67.866  1.00  0.00    -0.144 SA 
HETATM    8  S   UNL     1      -7.542   8.813  66.103  1.00  0.00    -0.095 SA 
BRANCH   7   9
HETATM    9  C   UNL     1     -10.028  11.058  66.290  1.00  0.00    -0.224 C  
HETATM   10  O   UNL     1     -11.929  11.545  67.726  1.00  0.00    -0.623 OA 
HETATM   11  O   UNL     1     -12.090  12.048  65.538  1.00  0.00    -0.479 OA 
HETATM   12  C   UNL     1     -11.436  11.596  66.467  1.00  0.00    -0.187 C  
ENDBRANCH   7   9
BRANCH   8  13
HETATM   13  C   UNL     1      -7.262   7.025  65.806  1.00  0.00    -0.073 C  
HETATM   14  C   UNL     1      -7.453   6.650  64.348  1.00  0.00    -0.095 C  
HETATM   15  O   UNL     1      -7.721   7.677  63.510  1.00  0.00    -0.119 OA 
HETATM   16  O   UNL     1      -7.353   5.499  63.947  1.00  0.00    -0.049 OA 
ENDBRANCH   8  13
ENDBRANCH   3   5
TORSDOF 3
ENDMDL
MODEL      170
REMARK 921   NORMALIZED FREE ENERGY PREDICTED BY IDOCK:   -2.90 KCAL/MOL
REMARK 922        TOTAL FREE ENERGY PREDICTED BY IDOCK:   -3.66 KCAL/MOL
REMARK 923 INTER-LIGAND FREE ENERGY PREDICTED BY IDOCK:   -3.34 KCAL/MOL
REMARK 924 INTRA-LIGAND FREE ENERGY PREDICTED BY IDOCK:   -0.32 KCAL/MOL
REMARK 927      BINDING AFFINITY PREDICTED BY RF-SCORE:    0.00 PKD
ROOT
HETATM    1  O   UNL     1      -5.966   8.933  70.898  1.00  0.00    -0.034 OA 
HETATM    2  C   UNL     1      -6.437  10.168  70.614  1.00  0.00    -0.084 C  
HETATM    3  C   UNL     1      -7.745  10.215  69.846  1.00  0.00    -0.160 C  
HETATM    4  O   UNL     1      -5.845  11.180  70.973  1.00  0.00    -0.337 OA 
ENDROOT
BRANCH   3   5
HETATM    5  S   UNL     1      -8.317   8.534  69.399  1.00  0.00    -0.120 SA 
HETATM    6  C   UNL     1      -9.522   8.183  70.740  1.00  0.00    -0.162 C  
HETATM    7  S   UNL     1     -10.923   9.364  70.602  1.00  0.00    -0.317 SA 
HETATM    8  S   UNL     1     -10.158   6.475  70.489  1.00  0.00    -0.187 SA 
BRANCH   7   9
HETATM    9  C   UNL     1     -11.948   8.855  72.033  1.00  0.00    -0.369 C  
HETATM   10  O   UNL     1     -13.719   9.869  70.711  1.00  0.00    -0.187 OA 
HETATM   11  O   UNL     1     -14.260   8.959  72.698  1.00  0.00    -0.563 OA 
HETATM   12  C   UNL     1     -13.410   9.224  71.860  1.00  0.00    -0.429 C  
ENDBRANCH   7   9
BRANCH   8  13
HETATM   13  C   UNL     1      -8.621   5.496  70.693  1.00  0.00    -0.129 C  
HETATM   14  C   UNL     1      -8.499   4.397  69.653  1.00  0.00    -0.068 C  
HETATM   15  O   UNL     1      -9.480   4.360  68.724  1.00  0.00    -0.141 OA 
HETATM   16  O   UNL     1      -7.567   3.606  69.640  1.00  0.00    -0.051 OA 
ENDBRANCH   8  13
ENDBRANCH   3   5
TORSDOF 3
ENDMDL
MODEL      171
REMARK 921   NORMALIZED FREE ENERGY PREDICTED BY IDOCK:   -2.88 KCAL/MOL
REMARK 922        TOTAL FREE ENERGY PREDICTED BY IDOCK:   -3.65 KCAL/MOL
REMARK 923 INTER-LIGAND FREE ENERGY PREDICTED BY IDOCK:   -3.33 KCAL/MOL
REMARK 924 INTRA-LIGAND FREE ENERGY PREDICTED BY IDOCK:   -0.31 KCAL/MOL
REMARK 927      BINDING AFFINITY PREDICTED BY RF-SCORE:    0.00 PKD
ROOT
HETATM    1  O   UNL     1     -11.983  11.728  67.353  1.00  0.00    -0.617 OA 
HETATM    2  C   UNL     1     -11.211  12.005  68.429  1.00  0.00    -0.262 C  
HETATM    3  C   UNL     1     -10.134  10.984  68.748  1.00  0.00    -0.203 C  
HETATM    4  O   UNL     1     -11.370  13.026  69.088  1.00  0.00    -0.261 OA 
ENDROOT
BRANCH   3   5
HETATM    5  S   UNL     1     -10.222   9.545  67.621  1.00  0.00    -0.236 SA 
HETATM    6  C   UNL     1      -9.878   8.153  68.768  1.00  0.00    -0.176 C  
HETATM    7  S   UNL     1     -11.238   8.050  69.999  1.00  0.00    -0.007 SA 
HETATM    8  S   UNL     1      -9.856   6.603  67.776  1.00  0.00    -0.130 SA 
BRANCH   7   9
HETATM    9  C   UNL     1     -10.666   6.648  71.032  1.00  0.00    -0.236 C  
HETATM   10  O   UNL     1     -12.912   6.828  71.946  1.00  0.00    -0.325 OA 
HETATM   11  O   UNL     1     -11.557   5.223  72.756  1.00  0.00    -0.284 OA 
HETATM   12  C   UNL     1     -11.736   6.160  71.990  1.00  0.00    -0.299 C  
ENDBRANCH   7   9
BRANCH   8  13
HETATM   13  C   UNL     1      -8.435   6.922  66.661  1.00  0.00    -0.121 C  
HETATM   14  C   UNL     1      -7.131   6.395  67.231  1.00  0.00    -0.073 C  
HETATM   15  O   UNL     1      -7.231   5.730  68.404  1.00  0.00    -0.075 OA 
HETATM   16  O   UNL     1      -6.058   6.543  66.662  1.00  0.00    -0.030 OA 
ENDBRANCH   8  13
ENDBRANCH   3   5
TORSDOF 3
ENDMDL
MODEL      172
REMARK 921   NORMALIZED FREE ENERGY PREDICTED BY IDOCK:   -2.85 KCAL/MOL
REMARK 922        TOTAL FREE ENERGY PREDICTED BY IDOCK:   -3.61 KCAL/MOL
REMARK 923 INTER-LIGAND FREE ENERGY PREDICTED BY IDOCK:   -3.25 KCAL/MOL
REMARK 924 INTRA-LIGAND FREE ENERGY PREDICTED BY IDOCK:   -0.35 KCAL/MOL
REMARK 927      BINDING AFFINITY PREDICTED BY RF-SCORE:    0.00 PKD
ROOT
HETATM    1  O   UNL     1      -9.932   9.134  70.963  1.00  0.00    -0.250 OA 
HETATM    2  C   UNL     1      -8.594   9.328  70.950  1.00  0.00    -0.162 C  
HETATM    3  C   UNL     1      -8.061  10.169  69.804  1.00  0.00    -0.154 C  
HETATM    4  O   UNL     1      -7.869   8.863  71.821  1.00  0.00    -0.299 OA 
ENDROOT
BRANCH   3   5
HETATM    5  S   UNL     1      -9.396  10.637  68.642  1.00  0.00    -0.183 SA 
HETATM    6  C   UNL     1      -8.635  10.232  67.020  1.00  0.00    -0.129 C  
HETATM    7  S   UNL     1      -8.355   8.418  66.934  1.00  0.00    -0.107 SA 
HETATM    8  S   UNL     1      -9.829  10.712  65.705  1.00  0.00    -0.256 SA 
BRANCH   7   9
HETATM    9  C   UNL     1      -7.572   8.266  65.284  1.00  0.00    -0.094 C  
HETATM   10  O   UNL     1      -7.165   5.993  66.045  1.00  0.00    -0.072 OA 
HETATM   11  O   UNL     1      -6.466   6.568  63.984  1.00  0.00    -0.033 OA 
HETATM   12  C   UNL     1      -7.015   6.877  65.032  1.00  0.00    -0.051 C  
ENDBRANCH   7   9
BRANCH   8  13
HETATM   13  C   UNL     1      -9.927  12.524  65.968  1.00  0.00    -0.257 C  
HETATM   14  C   UNL     1     -11.341  12.982  66.280  1.00  0.00    -0.317 C  
HETATM   15  O   UNL     1     -12.264  12.000  66.381  1.00  0.00    -0.551 OA 
HETATM   16  O   UNL     1     -11.628  14.159  66.447  1.00  0.00    -0.341 OA 
ENDBRANCH   8  13
ENDBRANCH   3   5
TORSDOF 3
ENDMDL
MODEL      173
REMARK 921   NORMALIZED FREE ENERGY PREDICTED BY IDOCK:   -2.85 KCAL/MOL
REMARK 922        TOTAL FREE ENERGY PREDICTED BY IDOCK:   -3.60 KCAL/MOL
REMARK 923 INTER-LIGAND FREE ENERGY PREDICTED BY IDOCK:   -3.24 KCAL/MOL
REMARK 924 INTRA-LIGAND FREE ENERGY PREDICTED BY IDOCK:   -0.36 KCAL/MOL
REMARK 927      BINDING AFFINITY PREDICTED BY RF-SCORE:    0.00 PKD
ROOT
HETATM    1  O   UNL     1      -9.040  10.217  65.498  1.00  0.00    -0.158 OA 
HETATM    2  C   UNL     1      -8.229  10.477  66.549  1.00  0.00    -0.133 C  
HETATM    3  C   UNL     1      -8.084   9.358  67.563  1.00  0.00    -0.110 C  
HETATM    4  O   UNL     1      -7.641  11.547  66.656  1.00  0.00    -0.144 OA 
ENDROOT
BRANCH   3   5
HETATM    5  S   UNL     1      -9.157   7.934  67.145  1.00  0.00    -0.142 SA 
HETATM    6  C   UNL     1      -9.679   7.361  68.810  1.00  0.00    -0.149 C  
HETATM    7  S   UNL     1     -10.689   8.677  69.600  1.00  0.00    -0.159 SA 
HETATM    8  S   UNL     1     -10.726   5.864  68.584  1.00  0.00    -0.250 SA 
BRANCH   7   9
HETATM    9  C   UNL     1     -11.051   7.910  71.224  1.00  0.00    -0.250 C  
HETATM   10  O   UNL     1      -8.979   9.019  71.846  1.00  0.00    -0.364 OA 
HETATM   11  O   UNL     1     -10.068   7.836  73.421  1.00  0.00    -0.317 OA 
HETATM   12  C   UNL     1     -10.002   8.241  72.269  1.00  0.00    -0.296 C  
ENDBRANCH   7   9
BRANCH   8  13
HETATM   13  C   UNL     1      -9.523   4.709  67.822  1.00  0.00    -0.152 C  
HETATM   14  C   UNL     1      -9.909   4.333  66.403  1.00  0.00    -0.220 C  
HETATM   15  O   UNL     1     -11.010   4.948  65.915  1.00  0.00    -0.248 OA 
HETATM   16  O   UNL     1      -9.261   3.541  65.733  1.00  0.00    -0.148 OA 
ENDBRANCH   8  13
ENDBRANCH   3   5
TORSDOF 3
ENDMDL
MODEL      174
REMARK 921   NORMALIZED FREE ENERGY PREDICTED BY IDOCK:   -2.85 KCAL/MOL
REMARK 922        TOTAL FREE ENERGY PREDICTED BY IDOCK:   -3.60 KCAL/MOL
REMARK 923 INTER-LIGAND FREE ENERGY PREDICTED BY IDOCK:   -3.23 KCAL/MOL
REMARK 924 INTRA-LIGAND FREE ENERGY PREDICTED BY IDOCK:   -0.37 KCAL/MOL
REMARK 927      BINDING AFFINITY PREDICTED BY RF-SCORE:    0.00 PKD
ROOT
HETATM    1  O   UNL     1      -7.059   9.708  71.441  1.00  0.00    -0.324 OA 
HETATM    2  C   UNL     1      -6.440  10.436  70.484  1.00  0.00    -0.093 C  
HETATM    3  C   UNL     1      -6.683   9.989  69.055  1.00  0.00    -0.053 C  
HETATM    4  O   UNL     1      -5.742  11.404  70.765  1.00  0.00    -0.228 OA 
ENDROOT
BRANCH   3   5
HETATM    5  S   UNL     1      -7.702   8.470  68.994  1.00  0.00    -0.097 SA 
HETATM    6  C   UNL     1      -9.107   9.007  67.940  1.00  0.00    -0.135 C  
HETATM    7  S   UNL     1      -8.474   9.387  66.258  1.00  0.00    -0.128 SA 
HETATM    8  S   UNL     1     -10.291   7.602  67.826  1.00  0.00    -0.219 SA 
BRANCH   7   9
HETATM    9  C   UNL     1     -10.013   9.925  65.421  1.00  0.00    -0.279 C  
HETATM   10  O   UNL     1      -9.327  12.100  66.266  1.00  0.00    -0.230 OA 
HETATM   11  O   UNL     1     -11.221  11.976  65.054  1.00  0.00    -0.315 OA 
HETATM   12  C   UNL     1     -10.255  11.417  65.554  1.00  0.00    -0.264 C  
ENDBRANCH   7   9
BRANCH   8  13
HETATM   13  C   UNL     1     -10.795   7.427  69.580  1.00  0.00    -0.210 C  
HETATM   14  C   UNL     1     -10.519   6.035  70.119  1.00  0.00    -0.246 C  
HETATM   15  O   UNL     1      -9.898   5.190  69.266  1.00  0.00    -0.156 OA 
HETATM   16  O   UNL     1     -10.820   5.700  71.257  1.00  0.00    -0.255 OA 
ENDBRANCH   8  13
ENDBRANCH   3   5
TORSDOF 3
ENDMDL
MODEL      175
REMARK 921   NORMALIZED FREE ENERGY PREDICTED BY IDOCK:   -2.82 KCAL/MOL
REMARK 922        TOTAL FREE ENERGY PREDICTED BY IDOCK:   -3.58 KCAL/MOL
REMARK 923 INTER-LIGAND FREE ENERGY PREDICTED BY IDOCK:   -4.24 KCAL/MOL
REMARK 924 INTRA-LIGAND FREE ENERGY PREDICTED BY IDOCK:    0.67 KCAL/MOL
REMARK 927      BINDING AFFINITY PREDICTED BY RF-SCORE:    0.00 PKD
ROOT
HETATM    1  O   UNL     1     -11.044  11.756  65.627  1.00  0.00    -0.305 OA 
HETATM    2  C   UNL     1     -10.697  12.550  64.589  1.00  0.00    -0.311 C  
HETATM    3  C   UNL     1     -11.087  14.011  64.718  1.00  0.00    -0.387 C  
HETATM    4  O   UNL     1     -10.093  12.111  63.618  1.00  0.00    -0.395 OA 
ENDROOT
BRANCH   3   5
HETATM    5  S   UNL     1     -12.045  14.315  66.248  1.00  0.00    -0.382 SA 
HETATM    6  C   UNL     1     -10.766  15.037  67.350  1.00  0.00    -0.289 C  
HETATM    7  S   UNL     1     -10.214  16.641  66.645  1.00  0.00    -0.304 SA 
HETATM    8  S   UNL     1     -11.547  15.344  68.988  1.00  0.00    -0.359 SA 
BRANCH   7   9
HETATM    9  C   UNL     1      -8.942  17.138  67.868  1.00  0.00    -0.230 C  
HETATM   10  O   UNL     1      -7.437  16.598  66.036  1.00  0.00    -0.131 OA 
HETATM   11  O   UNL     1      -6.545  17.341  67.965  1.00  0.00    -0.158 OA 
HETATM   12  C   UNL     1      -7.534  17.041  67.311  1.00  0.00    -0.163 C  
ENDBRANCH   7   9
BRANCH   8  13
HETATM   13  C   UNL     1     -11.983  13.637  69.493  1.00  0.00    -0.341 C  
HETATM   14  C   UNL     1     -10.878  12.646  69.176  1.00  0.00    -0.077 C  
HETATM   15  O   UNL     1      -9.751  13.175  68.650  1.00  0.00    -0.171 OA 
HETATM   16  O   UNL     1     -10.987  11.447  69.395  1.00  0.00    -0.240 OA 
ENDBRANCH   8  13
ENDBRANCH   3   5
TORSDOF 3
ENDMDL
MODEL      176
REMARK 921   NORMALIZED FREE ENERGY PREDICTED BY IDOCK:   -2.82 KCAL/MOL
REMARK 922        TOTAL FREE ENERGY PREDICTED BY IDOCK:   -3.57 KCAL/MOL
REMARK 923 INTER-LIGAND FREE ENERGY PREDICTED BY IDOCK:   -3.31 KCAL/MOL
REMARK 924 INTRA-LIGAND FREE ENERGY PREDICTED BY IDOCK:   -0.26 KCAL/MOL
REMARK 927      BINDING AFFINITY PREDICTED BY RF-SCORE:    0.00 PKD
ROOT
HETATM    1  O   UNL     1      -6.474  12.219  68.263  1.00  0.00    -0.051 OA 
HETATM    2  C   UNL     1      -6.398  11.388  67.199  1.00  0.00    -0.109 C  
HETATM    3  C   UNL     1      -7.268  10.147  67.269  1.00  0.00    -0.089 C  
HETATM    4  O   UNL     1      -5.681  11.639  66.237  1.00  0.00    -0.225 OA 
ENDROOT
BRANCH   3   5
HETATM    5  S   UNL     1      -8.149  10.038  68.870  1.00  0.00    -0.120 SA 
HETATM    6  C   UNL     1      -9.385   8.724  68.525  1.00  0.00    -0.141 C  
HETATM    7  S   UNL     1      -8.500   7.147  68.204  1.00  0.00    -0.122 SA 
HETATM    8  S   UNL     1     -10.427   8.527  70.029  1.00  0.00    -0.226 SA 
BRANCH   7   9
HETATM    9  C   UNL     1      -9.906   6.024  67.855  1.00  0.00    -0.120 C  
HETATM   10  O   UNL     1      -8.877   5.948  65.654  1.00  0.00    -0.151 OA 
HETATM   11  O   UNL     1     -10.737   4.729  66.004  1.00  0.00    -0.319 OA 
HETATM   12  C   UNL     1      -9.892   5.503  66.431  1.00  0.00    -0.167 C  
ENDBRANCH   7   9
BRANCH   8  13
HETATM   13  C   UNL     1     -11.213  10.180  70.130  1.00  0.00    -0.310 C  
HETATM   14  C   UNL     1     -12.243  10.258  71.242  1.00  0.00    -0.395 C  
HETATM   15  O   UNL     1     -12.364   9.149  72.006  1.00  0.00    -0.360 OA 
HETATM   16  O   UNL     1     -12.911  11.262  71.450  1.00  0.00    -0.406 OA 
ENDBRANCH   8  13
ENDBRANCH   3   5
TORSDOF 3
ENDMDL
MODEL      177
REMARK 921   NORMALIZED FREE ENERGY PREDICTED BY IDOCK:   -2.80 KCAL/MOL
REMARK 922        TOTAL FREE ENERGY PREDICTED BY IDOCK:   -3.55 KCAL/MOL
REMARK 923 INTER-LIGAND FREE ENERGY PREDICTED BY IDOCK:   -3.55 KCAL/MOL
REMARK 924 INTRA-LIGAND FREE ENERGY PREDICTED BY IDOCK:    0.00 KCAL/MOL
REMARK 927      BINDING AFFINITY PREDICTED BY RF-SCORE:    0.00 PKD
ROOT
HETATM    1  O   UNL     1      -8.536   6.822  69.355  1.00  0.00    -0.130 OA 
HETATM    2  C   UNL     1      -9.749   7.303  69.708  1.00  0.00    -0.166 C  
HETATM    3  C   UNL     1     -10.360   8.315  68.756  1.00  0.00    -0.205 C  
HETATM    4  O   UNL     1     -10.317   6.929  70.727  1.00  0.00    -0.202 OA 
ENDROOT
BRANCH   3   5
HETATM    5  S   UNL     1      -9.218   8.711  67.380  1.00  0.00    -0.138 SA 
HETATM    6  C   UNL     1      -9.743  10.416  66.942  1.00  0.00    -0.181 C  
HETATM    7  S   UNL     1      -9.397  11.526  68.364  1.00  0.00    -0.182 SA 
HETATM    8  S   UNL     1      -8.733  10.960  65.503  1.00  0.00    -0.136 SA 
BRANCH   7   9
HETATM    9  C   UNL     1     -10.026  13.122  67.720  1.00  0.00    -0.227 C  
HETATM   10  O   UNL     1     -12.143  11.926  67.742  1.00  0.00    -0.564 OA 
HETATM   11  O   UNL     1     -12.137  14.070  67.054  1.00  0.00    -0.427 OA 
HETATM   12  C   UNL     1     -11.523  13.098  67.471  1.00  0.00    -0.328 C  
ENDBRANCH   7   9
BRANCH   8  13
HETATM   13  C   UNL     1      -9.255   9.748  64.231  1.00  0.00    -0.232 C  
HETATM   14  C   UNL     1      -8.085   9.246  63.404  1.00  0.00    -0.161 C  
HETATM   15  O   UNL     1      -6.869   9.705  63.772  1.00  0.00    -0.102 OA 
HETATM   16  O   UNL     1      -8.226   8.463  62.475  1.00  0.00    -0.171 OA 
ENDBRANCH   8  13
ENDBRANCH   3   5
TORSDOF 3
ENDMDL
MODEL      178
REMARK 921   NORMALIZED FREE ENERGY PREDICTED BY IDOCK:   -2.79 KCAL/MOL
REMARK 922        TOTAL FREE ENERGY PREDICTED BY IDOCK:   -3.54 KCAL/MOL
REMARK 923 INTER-LIGAND FREE ENERGY PREDICTED BY IDOCK:   -3.19 KCAL/MOL
REMARK 924 INTRA-LIGAND FREE ENERGY PREDICTED BY IDOCK:   -0.35 KCAL/MOL
REMARK 927      BINDING AFFINITY PREDICTED BY RF-SCORE:    0.00 PKD
ROOT
HETATM    1  O   UNL     1      -6.558  14.481  70.457  1.00  0.00    -0.142 OA 
HETATM    2  C   UNL     1      -6.683  13.271  69.866  1.00  0.00     0.201 C  
HETATM    3  C   UNL     1      -7.598  13.220  68.656  1.00  0.00    -0.094 C  
HETATM    4  O   UNL     1      -6.080  12.288  70.280  1.00  0.00    -0.154 OA 
ENDROOT
BRANCH   3   5
HETATM    5  S   UNL     1      -8.400  14.838  68.357  1.00  0.00    -0.161 SA 
HETATM    6  C   UNL     1      -8.912  14.680  66.600  1.00  0.00    -0.238 C  
HETATM    7  S   UNL     1     -10.164  13.341  66.466  1.00  0.00    -0.290 SA 
HETATM    8  S   UNL     1      -9.687  16.271  66.097  1.00  0.00    -0.346 SA 
BRANCH   7   9
HETATM    9  C   UNL     1     -10.483  13.345  64.661  1.00  0.00    -0.411 C  
HETATM   10  O   UNL     1      -9.045  11.386  64.731  1.00  0.00    -0.102 OA 
HETATM   11  O   UNL     1      -9.887  12.019  62.742  1.00  0.00    -0.187 OA 
HETATM   12  C   UNL     1      -9.787  12.201  63.947  1.00  0.00    -0.214 C  
ENDBRANCH   7   9
BRANCH   8  13
HETATM   13  C   UNL     1      -8.273  17.423  66.283  1.00  0.00    -0.253 C  
HETATM   14  C   UNL     1      -8.545  18.500  67.318  1.00  0.00    -0.262 C  
HETATM   15  O   UNL     1      -9.724  18.400  67.970  1.00  0.00    -0.292 OA 
HETATM   16  O   UNL     1      -7.744  19.392  67.563  1.00  0.00    -0.248 OA 
ENDBRANCH   8  13
ENDBRANCH   3   5
TORSDOF 3
ENDMDL
MODEL      179
REMARK 921   NORMALIZED FREE ENERGY PREDICTED BY IDOCK:   -2.79 KCAL/MOL
REMARK 922        TOTAL FREE ENERGY PREDICTED BY IDOCK:   -3.54 KCAL/MOL
REMARK 923 INTER-LIGAND FREE ENERGY PREDICTED BY IDOCK:   -3.14 KCAL/MOL
REMARK 924 INTRA-LIGAND FREE ENERGY PREDICTED BY IDOCK:   -0.40 KCAL/MOL
REMARK 927      BINDING AFFINITY PREDICTED BY RF-SCORE:    0.00 PKD
ROOT
HETATM    1  O   UNL     1      -9.573   8.479  72.168  1.00  0.00    -0.262 OA 
HETATM    2  C   UNL     1     -10.779   7.872  72.086  1.00  0.00    -0.257 C  
HETATM    3  C   UNL     1     -10.844   6.653  71.184  1.00  0.00    -0.241 C  
HETATM    4  O   UNL     1     -11.747   8.279  72.717  1.00  0.00    -0.397 OA 
ENDROOT
BRANCH   3   5
HETATM    5  S   UNL     1      -9.249   6.367  70.332  1.00  0.00    -0.155 SA 
HETATM    6  C   UNL     1      -9.674   6.790  68.596  1.00  0.00    -0.131 C  
HETATM    7  S   UNL     1     -10.104   8.574  68.509  1.00  0.00    -0.197 SA 
HETATM    8  S   UNL     1      -8.181   6.486  67.564  1.00  0.00    -0.122 SA 
BRANCH   7   9
HETATM    9  C   UNL     1     -10.519   8.745  66.732  1.00  0.00    -0.213 C  
HETATM   10  O   UNL     1      -8.813  10.475  66.833  1.00  0.00    -0.136 OA 
HETATM   11  O   UNL     1      -9.811  10.075  64.854  1.00  0.00    -0.317 OA 
HETATM   12  C   UNL     1      -9.694   9.817  66.044  1.00  0.00    -0.255 C  
ENDBRANCH   7   9
BRANCH   8  13
HETATM   13  C   UNL     1      -7.967   4.679  67.782  1.00  0.00    -0.092 C  
HETATM   14  C   UNL     1      -8.694   3.883  66.713  1.00  0.00    -0.115 C  
HETATM   15  O   UNL     1      -9.307   4.613  65.756  1.00  0.00    -0.141 OA 
HETATM   16  O   UNL     1      -8.711   2.659  66.703  1.00  0.00    -0.109 OA 
ENDBRANCH   8  13
ENDBRANCH   3   5
TORSDOF 3
ENDMDL
MODEL      180
REMARK 921   NORMALIZED FREE ENERGY PREDICTED BY IDOCK:   -2.79 KCAL/MOL
REMARK 922        TOTAL FREE ENERGY PREDICTED BY IDOCK:   -3.53 KCAL/MOL
REMARK 923 INTER-LIGAND FREE ENERGY PREDICTED BY IDOCK:   -3.19 KCAL/MOL
REMARK 924 INTRA-LIGAND FREE ENERGY PREDICTED BY IDOCK:   -0.34 KCAL/MOL
REMARK 927      BINDING AFFINITY PREDICTED BY RF-SCORE:    0.00 PKD
ROOT
HETATM    1  O   UNL     1      -9.095   5.464  67.966  1.00  0.00    -0.108 OA 
HETATM    2  C   UNL     1      -8.355   5.348  69.092  1.00  0.00    -0.097 C  
HETATM    3  C   UNL     1      -8.799   6.205  70.263  1.00  0.00    -0.149 C  
HETATM    4  O   UNL     1      -7.399   4.584  69.157  1.00  0.00    -0.052 OA 
ENDROOT
BRANCH   3   5
HETATM    5  S   UNL     1     -10.204   7.285  69.806  1.00  0.00    -0.215 SA 
HETATM    6  C   UNL     1      -9.407   8.939  69.774  1.00  0.00    -0.166 C  
HETATM    7  S   UNL     1      -8.152   8.966  68.432  1.00  0.00    -0.109 SA 
HETATM    8  S   UNL     1     -10.710  10.182  69.394  1.00  0.00    -0.253 SA 
BRANCH   7   9
HETATM    9  C   UNL     1      -7.481  10.661  68.618  1.00  0.00    -0.098 C  
HETATM   10  O   UNL     1      -8.068  10.802  66.262  1.00  0.00    -0.149 OA 
HETATM   11  O   UNL     1      -7.164  12.614  67.246  1.00  0.00    -0.151 OA 
HETATM   12  C   UNL     1      -7.549  11.456  67.327  1.00  0.00    -0.138 C  
ENDBRANCH   7   9
BRANCH   8  13
HETATM   13  C   UNL     1     -11.807   9.994  70.850  1.00  0.00    -0.368 C  
HETATM   14  C   UNL     1     -12.584  11.263  71.150  1.00  0.00    -0.397 C  
HETATM   15  O   UNL     1     -12.402  12.280  70.278  1.00  0.00    -0.273 OA 
HETATM   16  O   UNL     1     -13.341  11.360  72.106  1.00  0.00    -0.469 OA 
ENDBRANCH   8  13
ENDBRANCH   3   5
TORSDOF 3
ENDMDL
MODEL      181
REMARK 921   NORMALIZED FREE ENERGY PREDICTED BY IDOCK:   -2.78 KCAL/MOL
REMARK 922        TOTAL FREE ENERGY PREDICTED BY IDOCK:   -3.53 KCAL/MOL
REMARK 923 INTER-LIGAND FREE ENERGY PREDICTED BY IDOCK:   -3.18 KCAL/MOL
REMARK 924 INTRA-LIGAND FREE ENERGY PREDICTED BY IDOCK:   -0.35 KCAL/MOL
REMARK 927      BINDING AFFINITY PREDICTED BY RF-SCORE:    0.00 PKD
ROOT
HETATM    1  O   UNL     1      -7.744   9.178  68.617  1.00  0.00    -0.090 OA 
HETATM    2  C   UNL     1      -6.767   8.264  68.812  1.00  0.00    -0.058 C  
HETATM    3  C   UNL     1      -6.675   7.685  70.212  1.00  0.00    -0.046 C  
HETATM    4  O   UNL     1      -6.018   7.920  67.904  1.00  0.00    -0.039 OA 
ENDROOT
BRANCH   3   5
HETATM    5  S   UNL     1      -7.884   8.470  71.340  1.00  0.00    -0.133 SA 
HETATM    6  C   UNL     1      -9.227   7.218  71.374  1.00  0.00    -0.142 C  
HETATM    7  S   UNL     1      -8.583   5.678  72.142  1.00  0.00    -0.126 SA 
HETATM    8  S   UNL     1     -10.586   7.882  72.422  1.00  0.00    -0.326 SA 
BRANCH   7   9
HETATM    9  C   UNL     1     -10.055   4.593  72.031  1.00  0.00    -0.197 C  
HETATM   10  O   UNL     1      -9.941   4.734  74.455  1.00  0.00    -0.166 OA 
HETATM   11  O   UNL     1     -11.600   3.522  73.536  1.00  0.00    -0.167 OA 
HETATM   12  C   UNL     1     -10.611   4.227  73.395  1.00  0.00    -0.208 C  
ENDBRANCH   7   9
BRANCH   8  13
HETATM   13  C   UNL     1     -11.074   9.367  71.463  1.00  0.00    -0.376 C  
HETATM   14  C   UNL     1     -12.581   9.542  71.407  1.00  0.00    -0.359 C  
HETATM   15  O   UNL     1     -13.301   8.642  72.112  1.00  0.00    -0.361 OA 
HETATM   16  O   UNL     1     -13.114  10.448  70.780  1.00  0.00    -0.385 OA 
ENDBRANCH   8  13
ENDBRANCH   3   5
TORSDOF 3
ENDMDL
MODEL      182
REMARK 921   NORMALIZED FREE ENERGY PREDICTED BY IDOCK:   -2.74 KCAL/MOL
REMARK 922        TOTAL FREE ENERGY PREDICTED BY IDOCK:   -3.48 KCAL/MOL
REMARK 923 INTER-LIGAND FREE ENERGY PREDICTED BY IDOCK:   -3.25 KCAL/MOL
REMARK 924 INTRA-LIGAND FREE ENERGY PREDICTED BY IDOCK:   -0.23 KCAL/MOL
REMARK 927      BINDING AFFINITY PREDICTED BY RF-SCORE:    0.00 PKD
ROOT
HETATM    1  O   UNL     1      -8.420   4.735  67.405  1.00  0.00    -0.105 OA 
HETATM    2  C   UNL     1      -8.900   5.476  66.380  1.00  0.00    -0.126 C  
HETATM    3  C   UNL     1      -9.487   6.823  66.759  1.00  0.00    -0.162 C  
HETATM    4  O   UNL     1      -8.845   5.081  65.221  1.00  0.00    -0.147 OA 
ENDROOT
BRANCH   3   5
HETATM    5  S   UNL     1      -9.486   7.065  68.573  1.00  0.00    -0.133 SA 
HETATM    6  C   UNL     1      -9.191   8.873  68.706  1.00  0.00    -0.140 C  
HETATM    7  S   UNL     1     -10.621   9.762  67.970  1.00  0.00    -0.242 SA 
HETATM    8  S   UNL     1      -9.087   9.294  70.495  1.00  0.00    -0.261 SA 
BRANCH   7   9
HETATM    9  C   UNL     1     -10.091  11.504  68.179  1.00  0.00    -0.193 C  
HETATM   10  O   UNL     1     -12.087  11.929  66.857  1.00  0.00    -0.599 OA 
HETATM   11  O   UNL     1     -10.866  13.693  67.540  1.00  0.00    -0.260 OA 
HETATM   12  C   UNL     1     -11.036  12.482  67.504  1.00  0.00    -0.251 C  
ENDBRANCH   7   9
BRANCH   8  13
HETATM   13  C   UNL     1      -7.607   8.333  70.993  1.00  0.00    -0.081 C  
HETATM   14  C   UNL     1      -7.498   8.190  72.501  1.00  0.00    -0.117 C  
HETATM   15  O   UNL     1      -8.519   8.717  73.213  1.00  0.00    -0.366 OA 
HETATM   16  O   UNL     1      -6.560   7.619  73.040  1.00  0.00    -0.063 OA 
ENDBRANCH   8  13
ENDBRANCH   3   5
TORSDOF 3
ENDMDL
MODEL      183
REMARK 921   NORMALIZED FREE ENERGY PREDICTED BY IDOCK:   -2.73 KCAL/MOL
REMARK 922        TOTAL FREE ENERGY PREDICTED BY IDOCK:   -3.46 KCAL/MOL
REMARK 923 INTER-LIGAND FREE ENERGY PREDICTED BY IDOCK:   -3.11 KCAL/MOL
REMARK 924 INTRA-LIGAND FREE ENERGY PREDICTED BY IDOCK:   -0.36 KCAL/MOL
REMARK 927      BINDING AFFINITY PREDICTED BY RF-SCORE:    0.00 PKD
ROOT
HETATM    1  O   UNL     1     -10.814   8.661  68.303  1.00  0.00    -0.098 OA 
HETATM    2  C   UNL     1     -10.489   7.538  67.625  1.00  0.00    -0.250 C  
HETATM    3  C   UNL     1     -10.671   6.235  68.381  1.00  0.00    -0.290 C  
HETATM    4  O   UNL     1     -10.087   7.579  66.468  1.00  0.00    -0.213 OA 
ENDROOT
BRANCH   3   5
HETATM    5  S   UNL     1     -11.207   6.533  70.106  1.00  0.00    -0.404 SA 
HETATM    6  C   UNL     1      -9.688   6.108  71.046  1.00  0.00    -0.177 C  
HETATM    7  S   UNL     1      -8.363   7.301  70.601  1.00  0.00    -0.129 SA 
HETATM    8  S   UNL     1     -10.070   6.285  72.838  1.00  0.00    -0.190 SA 
BRANCH   7   9
HETATM    9  C   UNL     1      -6.971   6.666  71.609  1.00  0.00    -0.075 C  
HETATM   10  O   UNL     1      -7.359   8.719  72.852  1.00  0.00    -0.346 OA 
HETATM   11  O   UNL     1      -5.727   7.338  73.558  1.00  0.00    -0.049 OA 
HETATM   12  C   UNL     1      -6.619   7.590  72.760  1.00  0.00    -0.061 C  
ENDBRANCH   7   9
BRANCH   8  13
HETATM   13  C   UNL     1     -11.368   5.007  73.045  1.00  0.00    -0.298 C  
HETATM   14  C   UNL     1     -10.812   3.713  73.611  1.00  0.00    -0.239 C  
HETATM   15  O   UNL     1      -9.499   3.730  73.930  1.00  0.00    -0.095 OA 
HETATM   16  O   UNL     1     -11.506   2.721  73.787  1.00  0.00    -0.197 OA 
ENDBRANCH   8  13
ENDBRANCH   3   5
TORSDOF 3
ENDMDL
MODEL      184
REMARK 921   NORMALIZED FREE ENERGY PREDICTED BY IDOCK:   -2.72 KCAL/MOL
REMARK 922        TOTAL FREE ENERGY PREDICTED BY IDOCK:   -3.46 KCAL/MOL
REMARK 923 INTER-LIGAND FREE ENERGY PREDICTED BY IDOCK:   -3.15 KCAL/MOL
REMARK 924 INTRA-LIGAND FREE ENERGY PREDICTED BY IDOCK:   -0.31 KCAL/MOL
REMARK 927      BINDING AFFINITY PREDICTED BY RF-SCORE:    0.00 PKD
ROOT
HETATM    1  O   UNL     1     -11.641  12.904  68.954  1.00  0.00    -0.273 OA 
HETATM    2  C   UNL     1     -11.393  13.079  67.636  1.00  0.00    -0.300 C  
HETATM    3  C   UNL     1     -10.523  12.020  66.983  1.00  0.00    -0.221 C  
HETATM    4  O   UNL     1     -11.858  14.027  67.015  1.00  0.00    -0.383 OA 
ENDROOT
BRANCH   3   5
HETATM    5  S   UNL     1      -9.932  10.793  68.206  1.00  0.00    -0.175 SA 
HETATM    6  C   UNL     1      -9.270   9.472  67.117  1.00  0.00    -0.134 C  
HETATM    7  S   UNL     1      -7.838  10.140  66.178  1.00  0.00    -0.121 SA 
HETATM    8  S   UNL     1      -8.686   8.098  68.193  1.00  0.00    -0.136 SA 
BRANCH   7   9
HETATM    9  C   UNL     1      -7.384   8.687  65.157  1.00  0.00    -0.088 C  
HETATM   10  O   UNL     1      -9.003   9.663  63.628  1.00  0.00    -0.232 OA 
HETATM   11  O   UNL     1      -7.957   7.769  63.006  1.00  0.00    -0.140 OA 
HETATM   12  C   UNL     1      -8.130   8.651  63.836  1.00  0.00    -0.163 C  
ENDBRANCH   7   9
BRANCH   8  13
HETATM   13  C   UNL     1     -10.256   7.588  68.990  1.00  0.00    -0.205 C  
HETATM   14  C   UNL     1     -10.061   7.203  70.446  1.00  0.00    -0.191 C  
HETATM   15  O   UNL     1      -8.809   7.361  70.929  1.00  0.00    -0.146 OA 
HETATM   16  O   UNL     1     -10.977   6.794  71.146  1.00  0.00    -0.242 OA 
ENDBRANCH   8  13
ENDBRANCH   3   5
TORSDOF 3
ENDMDL
MODEL      185
REMARK 921   NORMALIZED FREE ENERGY PREDICTED BY IDOCK:   -2.68 KCAL/MOL
REMARK 922        TOTAL FREE ENERGY PREDICTED BY IDOCK:   -3.41 KCAL/MOL
REMARK 923 INTER-LIGAND FREE ENERGY PREDICTED BY IDOCK:   -3.08 KCAL/MOL
REMARK 924 INTRA-LIGAND FREE ENERGY PREDICTED BY IDOCK:   -0.33 KCAL/MOL
REMARK 927      BINDING AFFINITY PREDICTED BY RF-SCORE:    0.00 PKD
ROOT
HETATM    1  O   UNL     1     -11.884  16.191  69.636  1.00  0.00    -0.271 OA 
HETATM    2  C   UNL     1     -12.337  15.442  70.667  1.00  0.00    -0.403 C  
HETATM    3  C   UNL     1     -12.538  13.967  70.371  1.00  0.00    -0.282 C  
HETATM    4  O   UNL     1     -12.554  15.930  71.770  1.00  0.00    -0.441 OA 
ENDROOT
BRANCH   3   5
HETATM    5  S   UNL     1     -12.201  13.586  68.613  1.00  0.00     0.029 SA 
HETATM    6  C   UNL     1     -11.280  12.003  68.745  1.00  0.00    -0.263 C  
HETATM    7  S   UNL     1     -12.397  10.724  69.446  1.00  0.00     0.121 SA 
HETATM    8  S   UNL     1     -10.787  11.497  67.046  1.00  0.00    -0.286 SA 
BRANCH   7   9
HETATM    9  C   UNL     1     -11.270   9.281  69.518  1.00  0.00     0.004 C  
HETATM   10  O   UNL     1     -11.610   9.546  71.911  1.00  0.00    -0.371 OA 
HETATM   11  O   UNL     1     -10.287   7.868  71.202  1.00  0.00    -0.199 OA 
HETATM   12  C   UNL     1     -11.002   8.825  70.941  1.00  0.00    -0.262 C  
ENDBRANCH   7   9
BRANCH   8  13
HETATM   13  C   UNL     1      -9.681  12.882  66.575  1.00  0.00    -0.257 C  
HETATM   14  C   UNL     1     -10.117  13.549  65.283  1.00  0.00    -0.257 C  
HETATM   15  O   UNL     1     -11.259  13.076  64.737  1.00  0.00    -0.299 OA 
HETATM   16  O   UNL     1      -9.489  14.467  64.774  1.00  0.00     0.354 OA 
ENDBRANCH   8  13
ENDBRANCH   3   5
TORSDOF 3
ENDMDL
MODEL      186
REMARK 921   NORMALIZED FREE ENERGY PREDICTED BY IDOCK:   -2.68 KCAL/MOL
REMARK 922        TOTAL FREE ENERGY PREDICTED BY IDOCK:   -3.40 KCAL/MOL
REMARK 923 INTER-LIGAND FREE ENERGY PREDICTED BY IDOCK:   -3.13 KCAL/MOL
REMARK 924 INTRA-LIGAND FREE ENERGY PREDICTED BY IDOCK:   -0.27 KCAL/MOL
REMARK 927      BINDING AFFINITY PREDICTED BY RF-SCORE:    0.00 PKD
ROOT
HETATM    1  O   UNL     1     -12.020  12.109  67.392  1.00  0.00    -0.563 OA 
HETATM    2  C   UNL     1     -10.802  12.501  67.830  1.00  0.00    -0.225 C  
HETATM    3  C   UNL     1      -9.760  11.404  67.947  1.00  0.00    -0.180 C  
HETATM    4  O   UNL     1     -10.561  13.672  68.097  1.00  0.00    -0.235 OA 
ENDROOT
BRANCH   3   5
HETATM    5  S   UNL     1     -10.469   9.764  67.550  1.00  0.00    -0.262 SA 
HETATM    6  C   UNL     1      -9.614   8.685  68.766  1.00  0.00    -0.156 C  
HETATM    7  S   UNL     1     -10.126   9.179  70.459  1.00  0.00    -0.256 SA 
HETATM    8  S   UNL     1     -10.160   6.954  68.461  1.00  0.00    -0.169 SA 
BRANCH   7   9
HETATM    9  C   UNL     1      -9.137   8.017  71.474  1.00  0.00    -0.143 C  
HETATM   10  O   UNL     1      -7.408   9.690  71.122  1.00  0.00    -0.332 OA 
HETATM   11  O   UNL     1      -6.905   7.883  72.366  1.00  0.00    -0.063 OA 
HETATM   12  C   UNL     1      -7.719   8.508  71.702  1.00  0.00    -0.117 C  
ENDBRANCH   7   9
BRANCH   8  13
HETATM   13  C   UNL     1      -9.529   6.683  66.761  1.00  0.00    -0.160 C  
HETATM   14  C   UNL     1      -8.049   6.346  66.747  1.00  0.00    -0.109 C  
HETATM   15  O   UNL     1      -7.463   6.232  67.960  1.00  0.00    -0.086 OA 
HETATM   16  O   UNL     1      -7.425   6.169  65.709  1.00  0.00    -0.078 OA 
ENDBRANCH   8  13
ENDBRANCH   3   5
TORSDOF 3
ENDMDL
MODEL      187
REMARK 921   NORMALIZED FREE ENERGY PREDICTED BY IDOCK:   -2.67 KCAL/MOL
REMARK 922        TOTAL FREE ENERGY PREDICTED BY IDOCK:   -3.40 KCAL/MOL
REMARK 923 INTER-LIGAND FREE ENERGY PREDICTED BY IDOCK:   -3.12 KCAL/MOL
REMARK 924 INTRA-LIGAND FREE ENERGY PREDICTED BY IDOCK:   -0.28 KCAL/MOL
REMARK 927      BINDING AFFINITY PREDICTED BY RF-SCORE:    0.00 PKD
ROOT
HETATM    1  O   UNL     1      -7.537   7.810  63.417  1.00  0.00    -0.108 OA 
HETATM    2  C   UNL     1      -6.939   9.021  63.487  1.00  0.00    -0.089 C  
HETATM    3  C   UNL     1      -7.520   9.986  64.504  1.00  0.00    -0.142 C  
HETATM    4  O   UNL     1      -5.979   9.305  62.780  1.00  0.00    -0.092 OA 
ENDROOT
BRANCH   3   5
HETATM    5  S   UNL     1      -8.991   9.277  65.332  1.00  0.00    -0.212 SA 
HETATM    6  C   UNL     1      -9.348  10.549  66.608  1.00  0.00    -0.161 C  
HETATM    7  S   UNL     1      -9.813  12.116  65.769  1.00  0.00    -0.228 SA 
HETATM    8  S   UNL     1     -10.781   9.959  67.601  1.00  0.00    -0.255 SA 
BRANCH   7   9
HETATM    9  C   UNL     1     -10.077  13.216  67.210  1.00  0.00    -0.233 C  
HETATM   10  O   UNL     1      -9.682  14.948  65.550  1.00  0.00    -0.331 OA 
HETATM   11  O   UNL     1     -10.125  15.580  67.665  1.00  0.00    -0.239 OA 
HETATM   12  C   UNL     1      -9.967  14.685  66.846  1.00  0.00    -0.253 C  
ENDBRANCH   7   9
BRANCH   8  13
HETATM   13  C   UNL     1     -10.086   8.435  68.347  1.00  0.00    -0.198 C  
HETATM   14  C   UNL     1      -9.625   8.656  69.776  1.00  0.00    -0.171 C  
HETATM   15  O   UNL     1      -9.859   9.887  70.282  1.00  0.00    -0.253 OA 
HETATM   16  O   UNL     1      -9.093   7.775  70.438  1.00  0.00    -0.153 OA 
ENDBRANCH   8  13
ENDBRANCH   3   5
TORSDOF 3
ENDMDL
MODEL      188
REMARK 921   NORMALIZED FREE ENERGY PREDICTED BY IDOCK:   -2.67 KCAL/MOL
REMARK 922        TOTAL FREE ENERGY PREDICTED BY IDOCK:   -3.40 KCAL/MOL
REMARK 923 INTER-LIGAND FREE ENERGY PREDICTED BY IDOCK:   -3.17 KCAL/MOL
REMARK 924 INTRA-LIGAND FREE ENERGY PREDICTED BY IDOCK:   -0.23 KCAL/MOL
REMARK 927      BINDING AFFINITY PREDICTED BY RF-SCORE:    0.00 PKD
ROOT
HETATM    1  O   UNL     1      -6.318   8.996  71.663  1.00  0.00    -0.079 OA 
HETATM    2  C   UNL     1      -7.305   8.438  72.400  1.00  0.00    -0.090 C  
HETATM    3  C   UNL     1      -8.116   7.358  71.708  1.00  0.00    -0.102 C  
HETATM    4  O   UNL     1      -7.513   8.780  73.559  1.00  0.00    -0.379 OA 
ENDROOT
BRANCH   3   5
HETATM    5  S   UNL     1      -7.599   7.150  69.964  1.00  0.00    -0.092 SA 
HETATM    6  C   UNL     1      -8.953   8.013  69.071  1.00  0.00    -0.145 C  
HETATM    7  S   UNL     1      -8.912   9.796  69.513  1.00  0.00    -0.218 SA 
HETATM    8  S   UNL     1      -8.632   7.840  67.267  1.00  0.00    -0.129 SA 
BRANCH   7   9
HETATM    9  C   UNL     1     -10.343  10.423  68.555  1.00  0.00    -0.176 C  
HETATM   10  O   UNL     1     -11.428  10.323  70.728  1.00  0.00    -0.319 OA 
HETATM   11  O   UNL     1     -12.626  11.064  68.972  1.00  0.00    -0.378 OA 
HETATM   12  C   UNL     1     -11.571  10.636  69.420  1.00  0.00    -0.280 C  
ENDBRANCH   7   9
BRANCH   8  13
HETATM   13  C   UNL     1      -8.745   6.021  67.064  1.00  0.00    -0.110 C  
HETATM   14  C   UNL     1     -10.183   5.544  66.969  1.00  0.00    -0.224 C  
HETATM   15  O   UNL     1     -11.123   6.516  66.977  1.00  0.00    -0.399 OA 
HETATM   16  O   UNL     1     -10.478   4.361  66.872  1.00  0.00    -0.046 OA 
ENDBRANCH   8  13
ENDBRANCH   3   5
TORSDOF 3
ENDMDL
MODEL      189
REMARK 921   NORMALIZED FREE ENERGY PREDICTED BY IDOCK:   -2.67 KCAL/MOL
REMARK 922        TOTAL FREE ENERGY PREDICTED BY IDOCK:   -3.40 KCAL/MOL
REMARK 923 INTER-LIGAND FREE ENERGY PREDICTED BY IDOCK:   -3.07 KCAL/MOL
REMARK 924 INTRA-LIGAND FREE ENERGY PREDICTED BY IDOCK:   -0.32 KCAL/MOL
REMARK 927      BINDING AFFINITY PREDICTED BY RF-SCORE:    0.00 PKD
ROOT
HETATM    1  O   UNL     1      -7.941  11.771  68.046  1.00  0.00    -0.125 OA 
HETATM    2  C   UNL     1      -6.993  10.879  67.680  1.00  0.00    -0.082 C  
HETATM    3  C   UNL     1      -6.807   9.695  68.611  1.00  0.00    -0.056 C  
HETATM    4  O   UNL     1      -6.341  11.020  66.651  1.00  0.00    -0.099 OA 
ENDROOT
BRANCH   3   5
HETATM    5  S   UNL     1      -7.878   9.833  70.089  1.00  0.00    -0.170 SA 
HETATM    6  C   UNL     1      -8.942   8.346  69.918  1.00  0.00    -0.142 C  
HETATM    7  S   UNL     1      -7.891   6.846  70.061  1.00  0.00    -0.112 SA 
HETATM    8  S   UNL     1     -10.151   8.359  71.305  1.00  0.00    -0.219 SA 
BRANCH   7   9
HETATM    9  C   UNL     1      -9.138   5.524  69.824  1.00  0.00    -0.132 C  
HETATM   10  O   UNL     1      -8.602   5.049  72.148  1.00  0.00    -0.122 OA 
HETATM   11  O   UNL     1     -10.157   3.778  71.132  1.00  0.00    -0.128 OA 
HETATM   12  C   UNL     1      -9.355   4.700  71.079  1.00  0.00    -0.147 C  
ENDBRANCH   7   9
BRANCH   8  13
HETATM   13  C   UNL     1     -11.082   9.897  70.943  1.00  0.00    -0.348 C  
HETATM   14  C   UNL     1     -12.426   9.932  71.647  1.00  0.00    -0.415 C  
HETATM   15  O   UNL     1     -12.686   8.886  72.463  1.00  0.00    -0.390 OA 
HETATM   16  O   UNL     1     -13.218  10.853  71.504  1.00  0.00    -0.386 OA 
ENDBRANCH   8  13
ENDBRANCH   3   5
TORSDOF 3
ENDMDL
MODEL      190
REMARK 921   NORMALIZED FREE ENERGY PREDICTED BY IDOCK:   -2.66 KCAL/MOL
REMARK 922        TOTAL FREE ENERGY PREDICTED BY IDOCK:   -3.38 KCAL/MOL
REMARK 923 INTER-LIGAND FREE ENERGY PREDICTED BY IDOCK:   -3.01 KCAL/MOL
REMARK 924 INTRA-LIGAND FREE ENERGY PREDICTED BY IDOCK:   -0.37 KCAL/MOL
REMARK 927      BINDING AFFINITY PREDICTED BY RF-SCORE:    0.00 PKD
ROOT
HETATM    1  O   UNL     1      -7.228   7.617  65.282  1.00  0.00    -0.062 OA 
HETATM    2  C   UNL     1      -6.368   7.985  66.259  1.00  0.00    -0.046 C  
HETATM    3  C   UNL     1      -6.637   7.394  67.631  1.00  0.00    -0.061 C  
HETATM    4  O   UNL     1      -5.426   8.737  66.036  1.00  0.00    -0.036 OA 
ENDROOT
BRANCH   3   5
HETATM    5  S   UNL     1      -8.162   6.381  67.635  1.00  0.00    -0.118 SA 
HETATM    6  C   UNL     1      -9.255   7.360  68.739  1.00  0.00    -0.144 C  
HETATM    7  S   UNL     1      -9.599   8.981  67.946  1.00  0.00    -0.151 SA 
HETATM    8  S   UNL     1     -10.838   6.439  68.920  1.00  0.00    -0.344 SA 
BRANCH   7   9
HETATM    9  C   UNL     1     -10.648   9.775  69.221  1.00  0.00    -0.221 C  
HETATM   10  O   UNL     1     -11.639  10.844  67.275  1.00  0.00    -0.475 OA 
HETATM   11  O   UNL     1     -12.476  11.341  69.306  1.00  0.00    -0.331 OA 
HETATM   12  C   UNL     1     -11.671  10.723  68.623  1.00  0.00    -0.219 C  
ENDBRANCH   7   9
BRANCH   8  13
HETATM   13  C   UNL     1     -10.258   4.904  69.737  1.00  0.00    -0.214 C  
HETATM   14  C   UNL     1     -10.215   5.041  71.248  1.00  0.00    -0.203 C  
HETATM   15  O   UNL     1     -10.666   6.215  71.742  1.00  0.00    -0.226 OA 
HETATM   16  O   UNL     1      -9.817   4.143  71.978  1.00  0.00    -0.158 OA 
ENDBRANCH   8  13
ENDBRANCH   3   5
TORSDOF 3
ENDMDL
MODEL      191
REMARK 921   NORMALIZED FREE ENERGY PREDICTED BY IDOCK:   -2.65 KCAL/MOL
REMARK 922        TOTAL FREE ENERGY PREDICTED BY IDOCK:   -3.37 KCAL/MOL
REMARK 923 INTER-LIGAND FREE ENERGY PREDICTED BY IDOCK:   -3.09 KCAL/MOL
REMARK 924 INTRA-LIGAND FREE ENERGY PREDICTED BY IDOCK:   -0.28 KCAL/MOL
REMARK 927      BINDING AFFINITY PREDICTED BY RF-SCORE:    0.00 PKD
ROOT
HETATM    1  O   UNL     1      -6.144   7.238  68.758  1.00  0.00    -0.025 OA 
HETATM    2  C   UNL     1      -6.170   8.552  68.441  1.00  0.00    -0.054 C  
HETATM    3  C   UNL     1      -7.433   9.041  67.756  1.00  0.00    -0.085 C  
HETATM    4  O   UNL     1      -5.233   9.296  68.708  1.00  0.00    -0.037 OA 
ENDROOT
BRANCH   3   5
HETATM    5  S   UNL     1      -8.594   7.662  67.434  1.00  0.00    -0.125 SA 
HETATM    6  C   UNL     1      -9.555   7.614  68.999  1.00  0.00    -0.151 C  
HETATM    7  S   UNL     1     -10.498   9.182  69.164  1.00  0.00    -0.204 SA 
HETATM    8  S   UNL     1     -10.745   6.215  68.882  1.00  0.00    -0.339 SA 
BRANCH   7   9
HETATM    9  C   UNL     1     -11.326   8.921  70.778  1.00  0.00    -0.278 C  
HETATM   10  O   UNL     1     -11.950  11.250  70.467  1.00  0.00    -0.343 OA 
HETATM   11  O   UNL     1     -12.669  10.192  72.320  1.00  0.00    -0.307 OA 
HETATM   12  C   UNL     1     -12.043  10.165  71.269  1.00  0.00    -0.394 C  
ENDBRANCH   7   9
BRANCH   8  13
HETATM   13  C   UNL     1      -9.598   4.790  68.753  1.00  0.00    -0.163 C  
HETATM   14  C   UNL     1      -9.635   4.147  67.378  1.00  0.00    -0.180 C  
HETATM   15  O   UNL     1     -10.433   4.753  66.471  1.00  0.00    -0.268 OA 
HETATM   16  O   UNL     1      -8.974   3.157  67.099  1.00  0.00    -0.133 OA 
ENDBRANCH   8  13
ENDBRANCH   3   5
TORSDOF 3
ENDMDL
MODEL      192
REMARK 921   NORMALIZED FREE ENERGY PREDICTED BY IDOCK:   -2.64 KCAL/MOL
REMARK 922        TOTAL FREE ENERGY PREDICTED BY IDOCK:   -3.36 KCAL/MOL
REMARK 923 INTER-LIGAND FREE ENERGY PREDICTED BY IDOCK:   -3.04 KCAL/MOL
REMARK 924 INTRA-LIGAND FREE ENERGY PREDICTED BY IDOCK:   -0.33 KCAL/MOL
REMARK 927      BINDING AFFINITY PREDICTED BY RF-SCORE:    0.00 PKD
ROOT
HETATM    1  O   UNL     1      -5.940   7.836  66.154  1.00  0.00    -0.037 OA 
HETATM    2  C   UNL     1      -6.096   9.134  65.811  1.00  0.00    -0.055 C  
HETATM    3  C   UNL     1      -7.504   9.550  65.425  1.00  0.00    -0.099 C  
HETATM    4  O   UNL     1      -5.157   9.921  65.830  1.00  0.00    -0.034 OA 
ENDROOT
BRANCH   3   5
HETATM    5  S   UNL     1      -8.646   8.119  65.424  1.00  0.00    -0.086 SA 
HETATM    6  C   UNL     1      -9.470   8.301  67.055  1.00  0.00    -0.176 C  
HETATM    7  S   UNL     1     -10.442   9.861  67.057  1.00  0.00    -0.208 SA 
HETATM    8  S   UNL     1     -10.623   6.882  67.262  1.00  0.00    -0.357 SA 
BRANCH   7   9
HETATM    9  C   UNL     1     -11.123   9.843  68.759  1.00  0.00    -0.135 C  
HETATM   10  O   UNL     1     -11.944  12.036  68.105  1.00  0.00    -0.465 OA 
HETATM   11  O   UNL     1     -12.438  11.285  70.169  1.00  0.00    -0.275 OA 
HETATM   12  C   UNL     1     -11.893  11.108  69.088  1.00  0.00    -0.350 C  
ENDBRANCH   7   9
BRANCH   8  13
HETATM   13  C   UNL     1      -9.449   5.474  67.256  1.00  0.00    -0.117 C  
HETATM   14  C   UNL     1      -9.862   4.388  66.279  1.00  0.00    -0.231 C  
HETATM   15  O   UNL     1     -10.961   4.655  65.539  1.00  0.00    -0.255 OA 
HETATM   16  O   UNL     1      -9.235   3.345  66.153  1.00  0.00    -0.156 OA 
ENDBRANCH   8  13
ENDBRANCH   3   5
TORSDOF 3
ENDMDL
MODEL      193
REMARK 921   NORMALIZED FREE ENERGY PREDICTED BY IDOCK:   -2.64 KCAL/MOL
REMARK 922        TOTAL FREE ENERGY PREDICTED BY IDOCK:   -3.36 KCAL/MOL
REMARK 923 INTER-LIGAND FREE ENERGY PREDICTED BY IDOCK:   -3.01 KCAL/MOL
REMARK 924 INTRA-LIGAND FREE ENERGY PREDICTED BY IDOCK:   -0.35 KCAL/MOL
REMARK 927      BINDING AFFINITY PREDICTED BY RF-SCORE:    0.00 PKD
ROOT
HETATM    1  O   UNL     1     -11.061   9.601  71.480  1.00  0.00    -0.370 OA 
HETATM    2  C   UNL     1     -11.598  10.307  70.460  1.00  0.00    -0.338 C  
HETATM    3  C   UNL     1     -10.683  10.552  69.274  1.00  0.00    -0.234 C  
HETATM    4  O   UNL     1     -12.756  10.706  70.494  1.00  0.00    -0.340 OA 
ENDROOT
BRANCH   3   5
HETATM    5  S   UNL     1      -9.002   9.895  69.580  1.00  0.00    -0.209 SA 
HETATM    6  C   UNL     1      -8.483   9.399  67.890  1.00  0.00    -0.116 C  
HETATM    7  S   UNL     1      -8.371  10.902  66.840  1.00  0.00    -0.138 SA 
HETATM    8  S   UNL     1      -6.813   8.637  68.017  1.00  0.00    -0.071 SA 
BRANCH   7   9
HETATM    9  C   UNL     1      -7.888  10.167  65.232  1.00  0.00    -0.143 C  
HETATM   10  O   UNL     1     -10.296  10.127  64.896  1.00  0.00    -0.236 OA 
HETATM   11  O   UNL     1      -8.976   9.360  63.241  1.00  0.00    -0.227 OA 
HETATM   12  C   UNL     1      -9.087   9.844  64.359  1.00  0.00    -0.254 C  
ENDBRANCH   7   9
BRANCH   8  13
HETATM   13  C   UNL     1      -7.175   7.176  69.065  1.00  0.00    -0.086 C  
HETATM   14  C   UNL     1      -7.523   5.951  68.239  1.00  0.00    -0.085 C  
HETATM   15  O   UNL     1      -7.444   6.107  66.899  1.00  0.00    -0.084 OA 
HETATM   16  O   UNL     1      -7.837   4.883  68.748  1.00  0.00    -0.076 OA 
ENDBRANCH   8  13
ENDBRANCH   3   5
TORSDOF 3
ENDMDL
MODEL      194
REMARK 921   NORMALIZED FREE ENERGY PREDICTED BY IDOCK:   -2.62 KCAL/MOL
REMARK 922        TOTAL FREE ENERGY PREDICTED BY IDOCK:   -3.33 KCAL/MOL
REMARK 923 INTER-LIGAND FREE ENERGY PREDICTED BY IDOCK:   -2.96 KCAL/MOL
REMARK 924 INTRA-LIGAND FREE ENERGY PREDICTED BY IDOCK:   -0.37 KCAL/MOL
REMARK 927      BINDING AFFINITY PREDICTED BY RF-SCORE:    0.00 PKD
ROOT
HETATM    1  O   UNL     1     -13.045   7.628  71.721  1.00  0.00    -0.333 OA 
HETATM    2  C   UNL     1     -12.154   8.594  71.400  1.00  0.00    -0.303 C  
HETATM    3  C   UNL     1     -11.082   8.196  70.402  1.00  0.00    -0.239 C  
HETATM    4  O   UNL     1     -12.227   9.719  71.879  1.00  0.00    -0.375 OA 
ENDROOT
BRANCH   3   5
HETATM    5  S   UNL     1     -11.213   6.427  69.950  1.00  0.00    -0.437 SA 
HETATM    6  C   UNL     1      -9.643   5.754  70.624  1.00  0.00    -0.174 C  
HETATM    7  S   UNL     1      -9.663   5.922  72.454  1.00  0.00    -0.158 SA 
HETATM    8  S   UNL     1      -9.568   3.967  70.192  1.00  0.00    -0.192 SA 
BRANCH   7   9
HETATM    9  C   UNL     1      -8.019   5.237  72.884  1.00  0.00    -0.102 C  
HETATM   10  O   UNL     1      -7.788   7.372  74.023  1.00  0.00    -0.114 OA 
HETATM   11  O   UNL     1      -6.078   5.913  74.138  1.00  0.00    -0.061 OA 
HETATM   12  C   UNL     1      -7.199   6.189  73.734  1.00  0.00    -0.084 C  
ENDBRANCH   7   9
BRANCH   8  13
HETATM   13  C   UNL     1      -9.532   4.052  68.361  1.00  0.00    -0.149 C  
HETATM   14  C   UNL     1      -8.116   4.132  67.819  1.00  0.00    -0.094 C  
HETATM   15  O   UNL     1      -7.131   4.058  68.742  1.00  0.00    -0.052 OA 
HETATM   16  O   UNL     1      -7.874   4.237  66.624  1.00  0.00    -0.096 OA 
ENDBRANCH   8  13
ENDBRANCH   3   5
TORSDOF 3
ENDMDL
MODEL      195
REMARK 921   NORMALIZED FREE ENERGY PREDICTED BY IDOCK:   -2.61 KCAL/MOL
REMARK 922        TOTAL FREE ENERGY PREDICTED BY IDOCK:   -3.33 KCAL/MOL
REMARK 923 INTER-LIGAND FREE ENERGY PREDICTED BY IDOCK:   -2.87 KCAL/MOL
REMARK 924 INTRA-LIGAND FREE ENERGY PREDICTED BY IDOCK:   -0.46 KCAL/MOL
REMARK 927      BINDING AFFINITY PREDICTED BY RF-SCORE:    0.00 PKD
ROOT
HETATM    1  O   UNL     1      -9.078   8.084  71.237  1.00  0.00    -0.132 OA 
HETATM    2  C   UNL     1     -10.422   8.234  71.199  1.00  0.00    -0.209 C  
HETATM    3  C   UNL     1     -11.146   7.429  70.135  1.00  0.00    -0.246 C  
HETATM    4  O   UNL     1     -11.009   8.966  71.988  1.00  0.00    -0.352 OA 
ENDROOT
BRANCH   3   5
HETATM    5  S   UNL     1      -9.969   6.509  69.078  1.00  0.00    -0.151 SA 
HETATM    6  C   UNL     1     -10.185   7.351  67.460  1.00  0.00    -0.224 C  
HETATM    7  S   UNL     1      -9.628   9.095  67.622  1.00  0.00    -0.155 SA 
HETATM    8  S   UNL     1      -9.111   6.496  66.235  1.00  0.00    -0.121 SA 
BRANCH   7   9
HETATM    9  C   UNL     1      -9.969   9.726  65.935  1.00  0.00    -0.275 C  
HETATM   10  O   UNL     1      -7.543   9.871  65.851  1.00  0.00    -0.100 OA 
HETATM   11  O   UNL     1      -8.711  10.489  64.029  1.00  0.00    -0.176 OA 
HETATM   12  C   UNL     1      -8.699  10.066  65.176  1.00  0.00    -0.164 C  
ENDBRANCH   7   9
BRANCH   8  13
HETATM   13  C   UNL     1      -9.858   4.821  66.225  1.00  0.00    -0.220 C  
HETATM   14  C   UNL     1      -8.892   3.761  66.722  1.00  0.00    -0.126 C  
HETATM   15  O   UNL     1      -7.692   4.216  67.148  1.00  0.00    -0.086 OA 
HETATM   16  O   UNL     1      -9.181   2.573  66.755  1.00  0.00    -0.137 OA 
ENDBRANCH   8  13
ENDBRANCH   3   5
TORSDOF 3
ENDMDL
MODEL      196
REMARK 921   NORMALIZED FREE ENERGY PREDICTED BY IDOCK:   -2.61 KCAL/MOL
REMARK 922        TOTAL FREE ENERGY PREDICTED BY IDOCK:   -3.32 KCAL/MOL
REMARK 923 INTER-LIGAND FREE ENERGY PREDICTED BY IDOCK:   -3.05 KCAL/MOL
REMARK 924 INTRA-LIGAND FREE ENERGY PREDICTED BY IDOCK:   -0.28 KCAL/MOL
REMARK 927      BINDING AFFINITY PREDICTED BY RF-SCORE:    0.00 PKD
ROOT
HETATM    1  O   UNL     1     -12.981   8.003  72.126  1.00  0.00    -0.294 OA 
HETATM    2  C   UNL     1     -12.794   9.311  71.840  1.00  0.00    -0.404 C  
HETATM    3  C   UNL     1     -11.551   9.640  71.034  1.00  0.00    -0.359 C  
HETATM    4  O   UNL     1     -13.593  10.168  72.202  1.00  0.00    -0.368 OA 
ENDROOT
BRANCH   3   5
HETATM    5  S   UNL     1     -10.538   8.146  70.730  1.00  0.00    -0.218 SA 
HETATM    6  C   UNL     1      -9.557   8.654  69.264  1.00  0.00    -0.166 C  
HETATM    7  S   UNL     1      -8.461  10.050  69.739  1.00  0.00    -0.133 SA 
HETATM    8  S   UNL     1      -8.513   7.223  68.764  1.00  0.00    -0.129 SA 
BRANCH   7   9
HETATM    9  C   UNL     1      -7.632  10.400  68.143  1.00  0.00    -0.091 C  
HETATM   10  O   UNL     1      -5.860  11.191  69.608  1.00  0.00    -0.057 OA 
HETATM   11  O   UNL     1      -5.528  11.290  67.383  1.00  0.00    -0.043 OA 
HETATM   12  C   UNL     1      -6.250  10.999  68.327  1.00  0.00    -0.049 C  
ENDBRANCH   7   9
BRANCH   8  13
HETATM   13  C   UNL     1      -9.797   5.992  68.319  1.00  0.00    -0.132 C  
HETATM   14  C   UNL     1     -10.004   5.897  66.819  1.00  0.00    -0.175 C  
HETATM   15  O   UNL     1      -9.182   6.662  66.066  1.00  0.00    -0.130 OA 
HETATM   16  O   UNL     1     -10.845   5.165  66.316  1.00  0.00    -0.296 OA 
ENDBRANCH   8  13
ENDBRANCH   3   5
TORSDOF 3
ENDMDL
MODEL      197
REMARK 921   NORMALIZED FREE ENERGY PREDICTED BY IDOCK:   -2.60 KCAL/MOL
REMARK 922        TOTAL FREE ENERGY PREDICTED BY IDOCK:   -3.32 KCAL/MOL
REMARK 923 INTER-LIGAND FREE ENERGY PREDICTED BY IDOCK:   -3.09 KCAL/MOL
REMARK 924 INTRA-LIGAND FREE ENERGY PREDICTED BY IDOCK:   -0.23 KCAL/MOL
REMARK 927      BINDING AFFINITY PREDICTED BY RF-SCORE:    0.00 PKD
ROOT
HETATM    1  O   UNL     1      -6.292   6.547  67.917  1.00  0.00    -0.036 OA 
HETATM    2  C   UNL     1      -7.406   7.110  67.396  1.00  0.00    -0.092 C  
HETATM    3  C   UNL     1      -8.658   7.006  68.247  1.00  0.00    -0.129 C  
HETATM    4  O   UNL     1      -7.390   7.680  66.311  1.00  0.00    -0.076 OA 
ENDROOT
BRANCH   3   5
HETATM    5  S   UNL     1      -8.355   6.026  69.763  1.00  0.00    -0.127 SA 
HETATM    6  C   UNL     1      -9.503   6.823  70.956  1.00  0.00    -0.164 C  
HETATM    7  S   UNL     1     -11.229   6.553  70.387  1.00  0.00    -0.382 SA 
HETATM    8  S   UNL     1      -9.278   5.999  72.586  1.00  0.00    -0.142 SA 
BRANCH   7   9
HETATM    9  C   UNL     1     -12.165   7.450  71.682  1.00  0.00    -0.330 C  
HETATM   10  O   UNL     1     -11.598   9.371  70.304  1.00  0.00    -0.233 OA 
HETATM   11  O   UNL     1     -12.827   9.715  72.159  1.00  0.00    -0.390 OA 
HETATM   12  C   UNL     1     -12.235   8.943  71.418  1.00  0.00    -0.318 C  
ENDBRANCH   7   9
BRANCH   8  13
HETATM   13  C   UNL     1      -7.531   6.418  72.951  1.00  0.00    -0.095 C  
HETATM   14  C   UNL     1      -7.376   7.846  73.444  1.00  0.00    -0.122 C  
HETATM   15  O   UNL     1      -8.526   8.539  73.598  1.00  0.00    -0.353 OA 
HETATM   16  O   UNL     1      -6.286   8.336  73.704  1.00  0.00    -0.099 OA 
ENDBRANCH   8  13
ENDBRANCH   3   5
TORSDOF 3
ENDMDL
MODEL      198
REMARK 921   NORMALIZED FREE ENERGY PREDICTED BY IDOCK:   -2.59 KCAL/MOL
REMARK 922        TOTAL FREE ENERGY PREDICTED BY IDOCK:   -3.30 KCAL/MOL
REMARK 923 INTER-LIGAND FREE ENERGY PREDICTED BY IDOCK:   -3.01 KCAL/MOL
REMARK 924 INTRA-LIGAND FREE ENERGY PREDICTED BY IDOCK:   -0.29 KCAL/MOL
REMARK 927      BINDING AFFINITY PREDICTED BY RF-SCORE:    0.00 PKD
ROOT
HETATM    1  O   UNL     1      -9.732  11.668  67.151  1.00  0.00    -0.180 OA 
HETATM    2  C   UNL     1     -10.966  11.167  67.385  1.00  0.00    -0.290 C  
HETATM    3  C   UNL     1     -11.034   9.670  67.629  1.00  0.00    -0.124 C  
HETATM    4  O   UNL     1     -11.957  11.887  67.412  1.00  0.00    -0.603 OA 
ENDROOT
BRANCH   3   5
HETATM    5  S   UNL     1      -9.390   8.887  67.439  1.00  0.00    -0.139 SA 
HETATM    6  C   UNL     1      -9.279   7.879  68.970  1.00  0.00    -0.147 C  
HETATM    7  S   UNL     1     -10.583   6.585  68.923  1.00  0.00    -0.268 SA 
HETATM    8  S   UNL     1      -7.631   7.061  68.984  1.00  0.00    -0.106 SA 
BRANCH   7   9
HETATM    9  C   UNL     1     -10.305   5.754  70.532  1.00  0.00    -0.247 C  
HETATM   10  O   UNL     1     -11.590   7.643  71.363  1.00  0.00    -0.262 OA 
HETATM   11  O   UNL     1     -10.884   6.101  72.843  1.00  0.00    -0.236 OA 
HETATM   12  C   UNL     1     -10.944   6.500  71.689  1.00  0.00    -0.249 C  
ENDBRANCH   7   9
BRANCH   8  13
HETATM   13  C   UNL     1      -6.519   8.518  69.056  1.00  0.00    -0.048 C  
HETATM   14  C   UNL     1      -6.041   8.804  70.468  1.00  0.00    -0.033 C  
HETATM   15  O   UNL     1      -6.443   7.923  71.411  1.00  0.00    -0.037 OA 
HETATM   16  O   UNL     1      -5.324   9.758  70.738  1.00  0.00    -0.041 OA 
ENDBRANCH   8  13
ENDBRANCH   3   5
TORSDOF 3
ENDMDL
MODEL      199
REMARK 921   NORMALIZED FREE ENERGY PREDICTED BY IDOCK:   -2.58 KCAL/MOL
REMARK 922        TOTAL FREE ENERGY PREDICTED BY IDOCK:   -3.29 KCAL/MOL
REMARK 923 INTER-LIGAND FREE ENERGY PREDICTED BY IDOCK:   -3.08 KCAL/MOL
REMARK 924 INTRA-LIGAND FREE ENERGY PREDICTED BY IDOCK:   -0.22 KCAL/MOL
REMARK 927      BINDING AFFINITY PREDICTED BY RF-SCORE:    0.00 PKD
ROOT
HETATM    1  O   UNL     1     -11.290  14.544  66.761  1.00  0.00    -0.332 OA 
HETATM    2  C   UNL     1     -10.823  14.582  65.492  1.00  0.00    -0.336 C  
HETATM    3  C   UNL     1     -10.606  13.235  64.828  1.00  0.00    -0.386 C  
HETATM    4  O   UNL     1     -10.608  15.644  64.919  1.00  0.00    -0.427 OA 
ENDROOT
BRANCH   3   5
HETATM    5  S   UNL     1     -10.947  11.858  65.985  1.00  0.00    -0.314 SA 
HETATM    6  C   UNL     1      -9.258  11.204  66.292  1.00  0.00    -0.195 C  
HETATM    7  S   UNL     1      -8.270  12.494  67.150  1.00  0.00    -0.137 SA 
HETATM    8  S   UNL     1      -9.416   9.742  67.398  1.00  0.00    -0.155 SA 
BRANCH   7   9
HETATM    9  C   UNL     1      -6.654  11.645  67.308  1.00  0.00    -0.122 C  
HETATM   10  O   UNL     1      -7.379  11.395  69.616  1.00  0.00    -0.011 OA 
HETATM   11  O   UNL     1      -5.386  10.529  69.025  1.00  0.00    -0.042 OA 
HETATM   12  C   UNL     1      -6.402  11.136  68.716  1.00  0.00    -0.046 C  
ENDBRANCH   7   9
BRANCH   8  13
HETATM   13  C   UNL     1     -10.394   8.608  66.341  1.00  0.00    -0.057 C  
HETATM   14  C   UNL     1     -10.490   7.213  66.934  1.00  0.00    -0.294 C  
HETATM   15  O   UNL     1      -9.917   7.053  68.147  1.00  0.00    -0.143 OA 
HETATM   16  O   UNL     1     -11.065   6.296  66.364  1.00  0.00    -0.081 OA 
ENDBRANCH   8  13
ENDBRANCH   3   5
TORSDOF 3
ENDMDL
MODEL      200
REMARK 921   NORMALIZED FREE ENERGY PREDICTED BY IDOCK:   -2.58 KCAL/MOL
REMARK 922        TOTAL FREE ENERGY PREDICTED BY IDOCK:   -3.28 KCAL/MOL
REMARK 923 INTER-LIGAND FREE ENERGY PREDICTED BY IDOCK:   -2.99 KCAL/MOL
REMARK 924 INTRA-LIGAND FREE ENERGY PREDICTED BY IDOCK:   -0.30 KCAL/MOL
REMARK 927      BINDING AFFINITY PREDICTED BY RF-SCORE:    0.00 PKD
ROOT
HETATM    1  O   UNL     1     -12.506   8.184  72.031  1.00  0.00    -0.311 OA 
HETATM    2  C   UNL     1     -12.643   9.380  71.413  1.00  0.00    -0.348 C  
HETATM    3  C   UNL     1     -11.386   9.939  70.774  1.00  0.00    -0.353 C  
HETATM    4  O   UNL     1     -13.722   9.959  71.366  1.00  0.00    -0.271 OA 
ENDROOT
BRANCH   3   5
HETATM    5  S   UNL     1      -9.938   8.867  71.098  1.00  0.00    -0.299 SA 
HETATM    6  C   UNL     1      -9.116   8.846  69.456  1.00  0.00    -0.146 C  
HETATM    7  S   UNL     1      -8.543  10.546  69.059  1.00  0.00    -0.145 SA 
HETATM    8  S   UNL     1      -7.652   7.738  69.576  1.00  0.00    -0.102 SA 
BRANCH   7   9
HETATM    9  C   UNL     1      -7.810  10.287  67.399  1.00  0.00    -0.102 C  
HETATM   10  O   UNL     1     -10.142  10.355  66.715  1.00  0.00    -0.198 OA 
HETATM   11  O   UNL     1      -8.573  10.073  65.125  1.00  0.00    -0.141 OA 
HETATM   12  C   UNL     1      -8.859  10.227  66.305  1.00  0.00    -0.146 C  
ENDBRANCH   7   9
BRANCH   8  13
HETATM   13  C   UNL     1      -8.458   6.133  69.944  1.00  0.00    -0.129 C  
HETATM   14  C   UNL     1      -8.009   5.559  71.276  1.00  0.00    -0.111 C  
HETATM   15  O   UNL     1      -7.164   6.334  71.991  1.00  0.00    -0.087 OA 
HETATM   16  O   UNL     1      -8.398   4.475  71.688  1.00  0.00    -0.099 OA 
ENDBRANCH   8  13
ENDBRANCH   3   5
TORSDOF 3
ENDMDL
MODEL      201
REMARK 921   NORMALIZED FREE ENERGY PREDICTED BY IDOCK:   -2.57 KCAL/MOL
REMARK 922        TOTAL FREE ENERGY PREDICTED BY IDOCK:   -3.28 KCAL/MOL
REMARK 923 INTER-LIGAND FREE ENERGY PREDICTED BY IDOCK:   -2.95 KCAL/MOL
REMARK 924 INTRA-LIGAND FREE ENERGY PREDICTED BY IDOCK:   -0.33 KCAL/MOL
REMARK 927      BINDING AFFINITY PREDICTED BY RF-SCORE:    0.00 PKD
ROOT
HETATM    1  O   UNL     1      -9.705   8.321  66.328  1.00  0.00    -0.230 OA 
HETATM    2  C   UNL     1      -9.119   7.102  66.318  1.00  0.00    -0.147 C  
HETATM    3  C   UNL     1      -9.267   6.289  67.591  1.00  0.00    -0.111 C  
HETATM    4  O   UNL     1      -8.522   6.684  65.332  1.00  0.00    -0.150 OA 
ENDROOT
BRANCH   3   5
HETATM    5  S   UNL     1     -10.141   7.236  68.890  1.00  0.00    -0.185 SA 
HETATM    6  C   UNL     1      -9.617   6.351  70.411  1.00  0.00    -0.165 C  
HETATM    7  S   UNL     1      -7.803   6.555  70.621  1.00  0.00    -0.108 SA 
HETATM    8  S   UNL     1     -10.473   7.136  71.839  1.00  0.00    -0.197 SA 
BRANCH   7   9
HETATM    9  C   UNL     1      -7.517   5.577  72.144  1.00  0.00    -0.099 C  
HETATM   10  O   UNL     1      -6.999   3.829  70.535  1.00  0.00    -0.033 OA 
HETATM   11  O   UNL     1      -6.833   3.343  72.726  1.00  0.00    -0.034 OA 
HETATM   12  C   UNL     1      -7.087   4.153  71.846  1.00  0.00    -0.050 C  
ENDBRANCH   7   9
BRANCH   8  13
HETATM   13  C   UNL     1     -12.226   6.789  71.430  1.00  0.00    -0.363 C  
HETATM   14  C   UNL     1     -13.105   8.016  71.589  1.00  0.00    -0.329 C  
HETATM   15  O   UNL     1     -12.462   9.155  71.930  1.00  0.00    -0.339 OA 
HETATM   16  O   UNL     1     -14.314   7.986  71.405  1.00  0.00    -0.410 OA 
ENDBRANCH   8  13
ENDBRANCH   3   5
TORSDOF 3
ENDMDL
MODEL      202
REMARK 921   NORMALIZED FREE ENERGY PREDICTED BY IDOCK:   -2.56 KCAL/MOL
REMARK 922        TOTAL FREE ENERGY PREDICTED BY IDOCK:   -3.26 KCAL/MOL
REMARK 923 INTER-LIGAND FREE ENERGY PREDICTED BY IDOCK:   -3.17 KCAL/MOL
REMARK 924 INTRA-LIGAND FREE ENERGY PREDICTED BY IDOCK:   -0.09 KCAL/MOL
REMARK 927      BINDING AFFINITY PREDICTED BY RF-SCORE:    0.00 PKD
ROOT
HETATM    1  O   UNL     1      -5.655   7.984  71.387  1.00  0.00    -0.034 OA 
HETATM    2  C   UNL     1      -6.830   8.394  71.915  1.00  0.00    -0.087 C  
HETATM    3  C   UNL     1      -7.999   8.463  70.949  1.00  0.00    -0.108 C  
HETATM    4  O   UNL     1      -6.937   8.676  73.103  1.00  0.00    -0.284 OA 
ENDROOT
BRANCH   3   5
HETATM    5  S   UNL     1      -7.479   8.055  69.242  1.00  0.00    -0.096 SA 
HETATM    6  C   UNL     1      -8.953   8.567  68.273  1.00  0.00    -0.139 C  
HETATM    7  S   UNL     1      -9.164  10.385  68.431  1.00  0.00    -0.153 SA 
HETATM    8  S   UNL     1      -8.633   8.157  66.508  1.00  0.00    -0.146 SA 
BRANCH   7   9
HETATM    9  C   UNL     1     -10.681  10.647  67.438  1.00  0.00    -0.276 C  
HETATM   10  O   UNL     1     -10.539  12.874  68.402  1.00  0.00    -0.241 OA 
HETATM   11  O   UNL     1     -12.229  12.435  66.981  1.00  0.00    -0.508 OA 
HETATM   12  C   UNL     1     -11.229  12.055  67.576  1.00  0.00    -0.294 C  
ENDBRANCH   7   9
BRANCH   8  13
HETATM   13  C   UNL     1      -8.487   6.332  66.594  1.00  0.00    -0.114 C  
HETATM   14  C   UNL     1      -9.809   5.666  66.928  1.00  0.00    -0.159 C  
HETATM   15  O   UNL     1     -10.871   6.496  67.036  1.00  0.00    -0.328 OA 
HETATM   16  O   UNL     1      -9.918   4.456  67.073  1.00  0.00    -0.206 OA 
ENDBRANCH   8  13
ENDBRANCH   3   5
TORSDOF 3
ENDMDL
MODEL      203
REMARK 921   NORMALIZED FREE ENERGY PREDICTED BY IDOCK:   -2.56 KCAL/MOL
REMARK 922        TOTAL FREE ENERGY PREDICTED BY IDOCK:   -3.26 KCAL/MOL
REMARK 923 INTER-LIGAND FREE ENERGY PREDICTED BY IDOCK:   -3.01 KCAL/MOL
REMARK 924 INTRA-LIGAND FREE ENERGY PREDICTED BY IDOCK:   -0.25 KCAL/MOL
REMARK 927      BINDING AFFINITY PREDICTED BY RF-SCORE:    0.00 PKD
ROOT
HETATM    1  O   UNL     1     -11.520   6.216  71.642  1.00  0.00    -0.286 OA 
HETATM    2  C   UNL     1     -11.554   7.524  71.298  1.00  0.00    -0.281 C  
HETATM    3  C   UNL     1     -10.982   7.862  69.933  1.00  0.00    -0.178 C  
HETATM    4  O   UNL     1     -12.033   8.371  72.042  1.00  0.00    -0.310 OA 
ENDROOT
BRANCH   3   5
HETATM    5  S   UNL     1     -10.279   6.381  69.118  1.00  0.00    -0.199 SA 
HETATM    6  C   UNL     1      -9.492   7.115  67.630  1.00  0.00    -0.126 C  
HETATM    7  S   UNL     1      -8.129   8.224  68.167  1.00  0.00    -0.125 SA 
HETATM    8  S   UNL     1      -8.782   5.739  66.635  1.00  0.00    -0.122 SA 
BRANCH   7   9
HETATM    9  C   UNL     1      -7.537   8.854  66.551  1.00  0.00    -0.092 C  
HETATM   10  O   UNL     1      -9.394  10.396  66.838  1.00  0.00    -0.159 OA 
HETATM   11  O   UNL     1      -8.122  10.592  64.991  1.00  0.00    -0.152 OA 
HETATM   12  C   UNL     1      -8.364  10.021  66.045  1.00  0.00    -0.125 C  
ENDBRANCH   7   9
BRANCH   8  13
HETATM   13  C   UNL     1     -10.298   4.804  66.201  1.00  0.00    -0.300 C  
HETATM   14  C   UNL     1     -10.272   4.304  64.768  1.00  0.00    -0.145 C  
HETATM   15  O   UNL     1      -9.137   4.559  64.081  1.00  0.00    -0.151 OA 
HETATM   16  O   UNL     1     -11.207   3.693  64.269  1.00  0.00    -0.259 OA 
ENDBRANCH   8  13
ENDBRANCH   3   5
TORSDOF 3
ENDMDL
MODEL      204
REMARK 921   NORMALIZED FREE ENERGY PREDICTED BY IDOCK:   -2.55 KCAL/MOL
REMARK 922        TOTAL FREE ENERGY PREDICTED BY IDOCK:   -3.25 KCAL/MOL
REMARK 923 INTER-LIGAND FREE ENERGY PREDICTED BY IDOCK:   -2.90 KCAL/MOL
REMARK 924 INTRA-LIGAND FREE ENERGY PREDICTED BY IDOCK:   -0.35 KCAL/MOL
REMARK 927      BINDING AFFINITY PREDICTED BY RF-SCORE:    0.00 PKD
ROOT
HETATM    1  O   UNL     1      -7.192   9.383  71.330  1.00  0.00    -0.318 OA 
HETATM    2  C   UNL     1      -7.733   8.502  72.202  1.00  0.00    -0.078 C  
HETATM    3  C   UNL     1      -9.224   8.260  72.055  1.00  0.00    -0.204 C  
HETATM    4  O   UNL     1      -7.050   7.929  73.044  1.00  0.00    -0.078 OA 
ENDROOT
BRANCH   3   5
HETATM    5  S   UNL     1      -9.950   9.331  70.760  1.00  0.00    -0.295 SA 
HETATM    6  C   UNL     1      -9.831   8.254  69.277  1.00  0.00    -0.186 C  
HETATM    7  S   UNL     1     -10.902   6.782  69.527  1.00  0.00    -0.284 SA 
HETATM    8  S   UNL     1     -10.461   9.211  67.837  1.00  0.00    -0.218 SA 
BRANCH   7   9
HETATM    9  C   UNL     1     -10.594   5.861  67.973  1.00  0.00    -0.252 C  
HETATM   10  O   UNL     1      -9.319   4.421  69.461  1.00  0.00    -0.124 OA 
HETATM   11  O   UNL     1      -9.421   3.875  67.279  1.00  0.00    -0.179 OA 
HETATM   12  C   UNL     1      -9.730   4.632  68.189  1.00  0.00    -0.138 C  
ENDBRANCH   7   9
BRANCH   8  13
HETATM   13  C   UNL     1      -9.246  10.582  67.771  1.00  0.00    -0.145 C  
HETATM   14  C   UNL     1      -8.346  10.492  66.552  1.00  0.00    -0.141 C  
HETATM   15  O   UNL     1      -8.622   9.483  65.695  1.00  0.00    -0.127 OA 
HETATM   16  O   UNL     1      -7.441  11.288  66.343  1.00  0.00    -0.133 OA 
ENDBRANCH   8  13
ENDBRANCH   3   5
TORSDOF 3
ENDMDL
MODEL      205
REMARK 921   NORMALIZED FREE ENERGY PREDICTED BY IDOCK:   -2.55 KCAL/MOL
REMARK 922        TOTAL FREE ENERGY PREDICTED BY IDOCK:   -3.25 KCAL/MOL
REMARK 923 INTER-LIGAND FREE ENERGY PREDICTED BY IDOCK:   -2.92 KCAL/MOL
REMARK 924 INTRA-LIGAND FREE ENERGY PREDICTED BY IDOCK:   -0.33 KCAL/MOL
REMARK 927      BINDING AFFINITY PREDICTED BY RF-SCORE:    0.00 PKD
ROOT
HETATM    1  O   UNL     1      -7.446   8.099  64.384  1.00  0.00    -0.091 OA 
HETATM    2  C   UNL     1      -6.657   9.059  64.917  1.00  0.00    -0.069 C  
HETATM    3  C   UNL     1      -6.787   9.262  66.415  1.00  0.00    -0.083 C  
HETATM    4  O   UNL     1      -5.880   9.708  64.227  1.00  0.00    -0.075 OA 
ENDROOT
BRANCH   3   5
HETATM    5  S   UNL     1      -8.091   8.190  67.124  1.00  0.00    -0.117 SA 
HETATM    6  C   UNL     1      -9.284   9.431  67.764  1.00  0.00    -0.128 C  
HETATM    7  S   UNL     1      -9.972  10.377  66.347  1.00  0.00    -0.230 SA 
HETATM    8  S   UNL     1     -10.652   8.518  68.590  1.00  0.00    -0.055 SA 
BRANCH   7   9
HETATM    9  C   UNL     1     -11.079  11.550  67.217  1.00  0.00    -0.293 C  
HETATM   10  O   UNL     1      -9.421  13.164  66.469  1.00  0.00    -0.252 OA 
HETATM   11  O   UNL     1     -11.187  13.917  67.645  1.00  0.00    -0.276 OA 
HETATM   12  C   UNL     1     -10.582  12.982  67.139  1.00  0.00    -0.246 C  
ENDBRANCH   7   9
BRANCH   8  13
HETATM   13  C   UNL     1      -9.747   7.691  69.953  1.00  0.00    -0.175 C  
HETATM   14  C   UNL     1     -10.542   6.547  70.556  1.00  0.00    -0.234 C  
HETATM   15  O   UNL     1     -11.727   6.281  69.963  1.00  0.00    -0.408 OA 
HETATM   16  O   UNL     1     -10.134   5.892  71.505  1.00  0.00    -0.183 OA 
ENDBRANCH   8  13
ENDBRANCH   3   5
TORSDOF 3
ENDMDL
MODEL      206
REMARK 921   NORMALIZED FREE ENERGY PREDICTED BY IDOCK:   -2.53 KCAL/MOL
REMARK 922        TOTAL FREE ENERGY PREDICTED BY IDOCK:   -3.23 KCAL/MOL
REMARK 923 INTER-LIGAND FREE ENERGY PREDICTED BY IDOCK:   -2.86 KCAL/MOL
REMARK 924 INTRA-LIGAND FREE ENERGY PREDICTED BY IDOCK:   -0.36 KCAL/MOL
REMARK 927      BINDING AFFINITY PREDICTED BY RF-SCORE:    0.00 PKD
ROOT
HETATM    1  O   UNL     1      -9.369  10.943  67.599  1.00  0.00    -0.153 OA 
HETATM    2  C   UNL     1     -10.655  10.583  67.811  1.00  0.00    -0.243 C  
HETATM    3  C   UNL     1     -10.898   9.667  68.997  1.00  0.00    -0.183 C  
HETATM    4  O   UNL     1     -11.563  10.989  67.094  1.00  0.00    -0.469 OA 
ENDROOT
BRANCH   3   5
HETATM    5  S   UNL     1      -9.325   9.188  69.802  1.00  0.00    -0.194 SA 
HETATM    6  C   UNL     1      -9.515   7.366  69.932  1.00  0.00    -0.153 C  
HETATM    7  S   UNL     1      -9.578   6.654  68.240  1.00  0.00    -0.125 SA 
HETATM    8  S   UNL     1      -8.030   6.709  70.799  1.00  0.00    -0.112 SA 
BRANCH   7   9
HETATM    9  C   UNL     1      -9.804   4.876  68.619  1.00  0.00    -0.152 C  
HETATM   10  O   UNL     1      -8.936   4.617  66.363  1.00  0.00    -0.112 OA 
HETATM   11  O   UNL     1      -9.446   2.760  67.528  1.00  0.00    -0.194 OA 
HETATM   12  C   UNL     1      -9.385   3.980  67.468  1.00  0.00    -0.183 C  
ENDBRANCH   7   9
BRANCH   8  13
HETATM   13  C   UNL     1      -8.193   7.520  72.435  1.00  0.00    -0.104 C  
HETATM   14  C   UNL     1      -6.964   8.334  72.795  1.00  0.00    -0.097 C  
HETATM   15  O   UNL     1      -6.000   8.388  71.849  1.00  0.00    -0.040 OA 
HETATM   16  O   UNL     1      -6.854   8.921  73.863  1.00  0.00    -0.349 OA 
ENDBRANCH   8  13
ENDBRANCH   3   5
TORSDOF 3
ENDMDL
MODEL      207
REMARK 921   NORMALIZED FREE ENERGY PREDICTED BY IDOCK:   -2.52 KCAL/MOL
REMARK 922        TOTAL FREE ENERGY PREDICTED BY IDOCK:   -3.22 KCAL/MOL
REMARK 923 INTER-LIGAND FREE ENERGY PREDICTED BY IDOCK:   -2.93 KCAL/MOL
REMARK 924 INTRA-LIGAND FREE ENERGY PREDICTED BY IDOCK:   -0.29 KCAL/MOL
REMARK 927      BINDING AFFINITY PREDICTED BY RF-SCORE:    0.00 PKD
ROOT
HETATM    1  O   UNL     1     -10.835   9.890  69.097  1.00  0.00    -0.218 OA 
HETATM    2  C   UNL     1     -11.216  10.663  68.054  1.00  0.00    -0.307 C  
HETATM    3  C   UNL     1     -10.302  10.633  66.843  1.00  0.00    -0.236 C  
HETATM    4  O   UNL     1     -12.245  11.328  68.090  1.00  0.00    -0.622 OA 
ENDROOT
BRANCH   3   5
HETATM    5  S   UNL     1      -8.819   9.606  67.151  1.00  0.00    -0.131 SA 
HETATM    6  C   UNL     1      -7.494  10.876  67.213  1.00  0.00    -0.104 C  
HETATM    7  S   UNL     1      -7.790  11.971  68.658  1.00  0.00    -0.044 SA 
HETATM    8  S   UNL     1      -5.891  10.002  67.448  1.00  0.00    -0.054 SA 
BRANCH   7   9
HETATM    9  C   UNL     1      -6.397  13.151  68.490  1.00  0.00    -0.082 C  
HETATM   10  O   UNL     1      -8.016  14.369  67.146  1.00  0.00    -0.192 OA 
HETATM   11  O   UNL     1      -5.971  15.268  67.425  1.00  0.00    -0.325 OA 
HETATM   12  C   UNL     1      -6.759  14.358  67.645  1.00  0.00    -0.169 C  
ENDBRANCH   7   9
BRANCH   8  13
HETATM   13  C   UNL     1      -5.803   9.013  65.906  1.00  0.00    -0.051 C  
HETATM   14  C   UNL     1      -5.433   9.861  64.703  1.00  0.00    -0.080 C  
HETATM   15  O   UNL     1      -5.165  11.160  64.962  1.00  0.00    -0.246 OA 
HETATM   16  O   UNL     1      -5.362   9.400  63.572  1.00  0.00    -0.065 OA 
ENDBRANCH   8  13
ENDBRANCH   3   5
TORSDOF 3
ENDMDL
MODEL      208
REMARK 921   NORMALIZED FREE ENERGY PREDICTED BY IDOCK:   -2.51 KCAL/MOL
REMARK 922        TOTAL FREE ENERGY PREDICTED BY IDOCK:   -3.21 KCAL/MOL
REMARK 923 INTER-LIGAND FREE ENERGY PREDICTED BY IDOCK:   -2.89 KCAL/MOL
REMARK 924 INTRA-LIGAND FREE ENERGY PREDICTED BY IDOCK:   -0.32 KCAL/MOL
REMARK 927      BINDING AFFINITY PREDICTED BY RF-SCORE:    0.00 PKD
ROOT
HETATM    1  O   UNL     1      -8.040   9.616  66.119  1.00  0.00    -0.107 OA 
HETATM    2  C   UNL     1      -7.299   9.273  67.197  1.00  0.00    -0.091 C  
HETATM    3  C   UNL     1      -7.234   7.788  67.507  1.00  0.00    -0.091 C  
HETATM    4  O   UNL     1      -6.708  10.114  67.864  1.00  0.00    -0.066 OA 
ENDROOT
BRANCH   3   5
HETATM    5  S   UNL     1      -8.291   6.821  66.367  1.00  0.00    -0.127 SA 
HETATM    6  C   UNL     1      -9.401   5.948  67.541  1.00  0.00    -0.110 C  
HETATM    7  S   UNL     1     -10.428   7.190  68.422  1.00  0.00    -0.184 SA 
HETATM    8  S   UNL     1     -10.506   4.853  66.557  1.00  0.00    -0.177 SA 
BRANCH   7   9
HETATM    9  C   UNL     1     -11.400   6.109  69.537  1.00  0.00    -0.356 C  
HETATM   10  O   UNL     1     -11.276   8.049  70.997  1.00  0.00    -0.256 OA 
HETATM   11  O   UNL     1     -12.399   6.239  71.724  1.00  0.00    -0.283 OA 
HETATM   12  C   UNL     1     -11.743   6.788  70.850  1.00  0.00    -0.372 C  
ENDBRANCH   7   9
BRANCH   8  13
HETATM   13  C   UNL     1      -9.286   3.708  65.807  1.00  0.00    -0.159 C  
HETATM   14  C   UNL     1      -9.646   3.344  64.378  1.00  0.00    -0.159 C  
HETATM   15  O   UNL     1     -10.739   3.959  63.876  1.00  0.00    -0.262 OA 
HETATM   16  O   UNL     1      -8.983   2.559  63.713  1.00  0.00    -0.092 OA 
ENDBRANCH   8  13
ENDBRANCH   3   5
TORSDOF 3
ENDMDL
MODEL      209
REMARK 921   NORMALIZED FREE ENERGY PREDICTED BY IDOCK:   -2.47 KCAL/MOL
REMARK 922        TOTAL FREE ENERGY PREDICTED BY IDOCK:   -3.17 KCAL/MOL
REMARK 923 INTER-LIGAND FREE ENERGY PREDICTED BY IDOCK:   -2.86 KCAL/MOL
REMARK 924 INTRA-LIGAND FREE ENERGY PREDICTED BY IDOCK:   -0.30 KCAL/MOL
REMARK 927      BINDING AFFINITY PREDICTED BY RF-SCORE:    0.00 PKD
ROOT
HETATM    1  O   UNL     1     -11.180  10.522  67.595  1.00  0.00    -0.326 OA 
HETATM    2  C   UNL     1     -10.229  10.527  66.634  1.00  0.00    -0.233 C  
HETATM    3  C   UNL     1      -8.864  10.012  67.053  1.00  0.00    -0.138 C  
HETATM    4  O   UNL     1     -10.469  10.911  65.495  1.00  0.00    -0.261 OA 
ENDROOT
BRANCH   3   5
HETATM    5  S   UNL     1      -8.826   9.596  68.835  1.00  0.00    -0.142 SA 
HETATM    6  C   UNL     1      -8.804   7.761  68.788  1.00  0.00    -0.134 C  
HETATM    7  S   UNL     1      -7.241   7.207  67.997  1.00  0.00    -0.093 SA 
HETATM    8  S   UNL     1      -8.838   7.155  70.525  1.00  0.00    -0.154 SA 
BRANCH   7   9
HETATM    9  C   UNL     1      -7.461   5.388  68.027  1.00  0.00    -0.077 C  
HETATM   10  O   UNL     1      -5.752   5.536  69.750  1.00  0.00    -0.014 OA 
HETATM   11  O   UNL     1      -6.572   3.504  69.233  1.00  0.00    -0.033 OA 
HETATM   12  C   UNL     1      -6.565   4.713  69.048  1.00  0.00    -0.045 C  
ENDBRANCH   7   9
BRANCH   8  13
HETATM   13  C   UNL     1     -10.462   7.793  71.086  1.00  0.00    -0.208 C  
HETATM   14  C   UNL     1     -11.605   6.873  70.695  1.00  0.00    -0.353 C  
HETATM   15  O   UNL     1     -11.247   5.727  70.075  1.00  0.00    -0.335 OA 
HETATM   16  O   UNL     1     -12.774   7.138  70.939  1.00  0.00    -0.314 OA 
ENDBRANCH   8  13
ENDBRANCH   3   5
TORSDOF 3
ENDMDL
MODEL      210
REMARK 921   NORMALIZED FREE ENERGY PREDICTED BY IDOCK:   -2.47 KCAL/MOL
REMARK 922        TOTAL FREE ENERGY PREDICTED BY IDOCK:   -3.16 KCAL/MOL
REMARK 923 INTER-LIGAND FREE ENERGY PREDICTED BY IDOCK:   -2.85 KCAL/MOL
REMARK 924 INTRA-LIGAND FREE ENERGY PREDICTED BY IDOCK:   -0.30 KCAL/MOL
REMARK 927      BINDING AFFINITY PREDICTED BY RF-SCORE:    0.00 PKD
ROOT
HETATM    1  O   UNL     1      -5.716   8.225  67.910  1.00  0.00    -0.037 OA 
HETATM    2  C   UNL     1      -6.498   7.347  67.243  1.00  0.00    -0.060 C  
HETATM    3  C   UNL     1      -7.968   7.354  67.622  1.00  0.00    -0.114 C  
HETATM    4  O   UNL     1      -6.042   6.607  66.380  1.00  0.00    -0.031 OA 
ENDROOT
BRANCH   3   5
HETATM    5  S   UNL     1      -8.298   8.516  68.997  1.00  0.00    -0.118 SA 
HETATM    6  C   UNL     1      -9.268   7.464  70.148  1.00  0.00    -0.151 C  
HETATM    7  S   UNL     1      -8.197   6.096  70.745  1.00  0.00    -0.127 SA 
HETATM    8  S   UNL     1      -9.757   8.507  71.583  1.00  0.00    -0.280 SA 
BRANCH   7   9
HETATM    9  C   UNL     1      -9.368   5.183  71.820  1.00  0.00    -0.146 C  
HETATM   10  O   UNL     1      -8.611   3.295  70.488  1.00  0.00    -0.062 OA 
HETATM   11  O   UNL     1     -10.120   2.914  72.115  1.00  0.00    -0.167 OA 
HETATM   12  C   UNL     1      -9.411   3.700  71.501  1.00  0.00    -0.150 C  
ENDBRANCH   7   9
BRANCH   8  13
HETATM   13  C   UNL     1     -10.816   9.758  70.761  1.00  0.00    -0.333 C  
HETATM   14  C   UNL     1     -12.270   9.646  71.185  1.00  0.00    -0.350 C  
HETATM   15  O   UNL     1     -12.533   8.714  72.129  1.00  0.00    -0.344 OA 
HETATM   16  O   UNL     1     -13.146  10.362  70.721  1.00  0.00    -0.385 OA 
ENDBRANCH   8  13
ENDBRANCH   3   5
TORSDOF 3
ENDMDL
MODEL      211
REMARK 921   NORMALIZED FREE ENERGY PREDICTED BY IDOCK:   -2.43 KCAL/MOL
REMARK 922        TOTAL FREE ENERGY PREDICTED BY IDOCK:   -3.12 KCAL/MOL
REMARK 923 INTER-LIGAND FREE ENERGY PREDICTED BY IDOCK:   -3.12 KCAL/MOL
REMARK 924 INTRA-LIGAND FREE ENERGY PREDICTED BY IDOCK:    0.00 KCAL/MOL
REMARK 927      BINDING AFFINITY PREDICTED BY RF-SCORE:    0.00 PKD
ROOT
HETATM    1  O   UNL     1     -12.175  13.064  68.978  1.00  0.00    -0.227 OA 
HETATM    2  C   UNL     1     -11.683  13.378  67.758  1.00  0.00    -0.359 C  
HETATM    3  C   UNL     1     -11.167  12.211  66.936  1.00  0.00    -0.320 C  
HETATM    4  O   UNL     1     -11.674  14.532  67.347  1.00  0.00    -0.372 OA 
ENDROOT
BRANCH   3   5
HETATM    5  S   UNL     1     -11.253  10.642  67.874  1.00  0.00    -0.260 SA 
HETATM    6  C   UNL     1      -9.554   9.981  67.649  1.00  0.00    -0.148 C  
HETATM    7  S   UNL     1      -8.363  11.118  68.465  1.00  0.00    -0.156 SA 
HETATM    8  S   UNL     1      -9.476   8.342  68.482  1.00  0.00    -0.148 SA 
BRANCH   7   9
HETATM    9  C   UNL     1      -6.774  10.290  68.081  1.00  0.00    -0.058 C  
HETATM   10  O   UNL     1      -7.409  10.846  65.800  1.00  0.00    -0.102 OA 
HETATM   11  O   UNL     1      -5.453   9.781  66.133  1.00  0.00    -0.045 OA 
HETATM   12  C   UNL     1      -6.473  10.274  66.594  1.00  0.00    -0.076 C  
ENDBRANCH   7   9
BRANCH   8  13
HETATM   13  C   UNL     1     -10.702   7.394  67.501  1.00  0.00    -0.240 C  
HETATM   14  C   UNL     1     -10.163   6.044  67.063  1.00  0.00    -0.205 C  
HETATM   15  O   UNL     1      -8.927   5.734  67.512  1.00  0.00    -0.110 OA 
HETATM   16  O   UNL     1     -10.809   5.275  66.364  1.00  0.00    -0.292 OA 
ENDBRANCH   8  13
ENDBRANCH   3   5
TORSDOF 3
ENDMDL
MODEL      212
REMARK 921   NORMALIZED FREE ENERGY PREDICTED BY IDOCK:   -2.40 KCAL/MOL
REMARK 922        TOTAL FREE ENERGY PREDICTED BY IDOCK:   -3.08 KCAL/MOL
REMARK 923 INTER-LIGAND FREE ENERGY PREDICTED BY IDOCK:   -2.76 KCAL/MOL
REMARK 924 INTRA-LIGAND FREE ENERGY PREDICTED BY IDOCK:   -0.32 KCAL/MOL
REMARK 927      BINDING AFFINITY PREDICTED BY RF-SCORE:    0.00 PKD
ROOT
HETATM    1  O   UNL     1      -7.267   9.810  71.003  1.00  0.00    -0.332 OA 
HETATM    2  C   UNL     1      -8.430   9.161  70.768  1.00  0.00    -0.212 C  
HETATM    3  C   UNL     1      -8.612   8.622  69.361  1.00  0.00    -0.127 C  
HETATM    4  O   UNL     1      -9.270   9.010  71.648  1.00  0.00    -0.288 OA 
ENDROOT
BRANCH   3   5
HETATM    5  S   UNL     1      -7.211   9.090  68.280  1.00  0.00    -0.079 SA 
HETATM    6  C   UNL     1      -7.984  10.356  67.197  1.00  0.00    -0.115 C  
HETATM    7  S   UNL     1      -8.471  11.798  68.226  1.00  0.00    -0.159 SA 
HETATM    8  S   UNL     1      -6.717  10.898  65.977  1.00  0.00    -0.021 SA 
BRANCH   7   9
HETATM    9  C   UNL     1      -9.236  12.883  66.963  1.00  0.00    -0.226 C  
HETATM   10  O   UNL     1     -10.837  13.288  68.748  1.00  0.00    -0.245 OA 
HETATM   11  O   UNL     1     -11.131  14.358  66.789  1.00  0.00    -0.308 OA 
HETATM   12  C   UNL     1     -10.483  13.580  67.475  1.00  0.00    -0.237 C  
ENDBRANCH   7   9
BRANCH   8  13
HETATM   13  C   UNL     1      -6.414   9.333  65.071  1.00  0.00    -0.070 C  
HETATM   14  C   UNL     1      -7.195   9.262  63.771  1.00  0.00    -0.095 C  
HETATM   15  O   UNL     1      -7.916  10.363  63.462  1.00  0.00    -0.157 OA 
HETATM   16  O   UNL     1      -7.165   8.283  63.038  1.00  0.00    -0.092 OA 
ENDBRANCH   8  13
ENDBRANCH   3   5
TORSDOF 3
ENDMDL
MODEL      213
REMARK 921   NORMALIZED FREE ENERGY PREDICTED BY IDOCK:   -2.39 KCAL/MOL
REMARK 922        TOTAL FREE ENERGY PREDICTED BY IDOCK:   -3.07 KCAL/MOL
REMARK 923 INTER-LIGAND FREE ENERGY PREDICTED BY IDOCK:   -2.72 KCAL/MOL
REMARK 924 INTRA-LIGAND FREE ENERGY PREDICTED BY IDOCK:   -0.36 KCAL/MOL
REMARK 927      BINDING AFFINITY PREDICTED BY RF-SCORE:    0.00 PKD
ROOT
HETATM    1  O   UNL     1      -9.845   4.114  66.883  1.00  0.00    -0.216 OA 
HETATM    2  C   UNL     1      -9.179   4.734  65.882  1.00  0.00    -0.149 C  
HETATM    3  C   UNL     1      -9.118   6.248  65.970  1.00  0.00    -0.109 C  
HETATM    4  O   UNL     1      -8.650   4.103  64.975  1.00  0.00    -0.112 OA 
ENDROOT
BRANCH   3   5
HETATM    5  S   UNL     1     -10.076   6.873  67.399  1.00  0.00    -0.207 SA 
HETATM    6  C   UNL     1      -8.811   7.859  68.293  1.00  0.00    -0.129 C  
HETATM    7  S   UNL     1      -8.301   9.270  67.232  1.00  0.00    -0.125 SA 
HETATM    8  S   UNL     1      -9.591   8.517  69.824  1.00  0.00    -0.172 SA 
BRANCH   7   9
HETATM    9  C   UNL     1      -7.036  10.064  68.295  1.00  0.00    -0.072 C  
HETATM   10  O   UNL     1      -8.547  11.961  68.118  1.00  0.00    -0.152 OA 
HETATM   11  O   UNL     1      -6.681  12.196  69.356  1.00  0.00    -0.107 OA 
HETATM   12  C   UNL     1      -7.390  11.498  68.644  1.00  0.00    -0.106 C  
ENDBRANCH   7   9
BRANCH   8  13
HETATM   13  C   UNL     1      -9.983   6.962  70.712  1.00  0.00    -0.190 C  
HETATM   14  C   UNL     1     -11.374   6.985  71.319  1.00  0.00    -0.274 C  
HETATM   15  O   UNL     1     -12.110   8.088  71.056  1.00  0.00    -0.292 OA 
HETATM   16  O   UNL     1     -11.814   6.060  71.989  1.00  0.00    -0.303 OA 
ENDBRANCH   8  13
ENDBRANCH   3   5
TORSDOF 3
ENDMDL
MODEL      214
REMARK 921   NORMALIZED FREE ENERGY PREDICTED BY IDOCK:   -2.39 KCAL/MOL
REMARK 922        TOTAL FREE ENERGY PREDICTED BY IDOCK:   -3.07 KCAL/MOL
REMARK 923 INTER-LIGAND FREE ENERGY PREDICTED BY IDOCK:   -2.76 KCAL/MOL
REMARK 924 INTRA-LIGAND FREE ENERGY PREDICTED BY IDOCK:   -0.31 KCAL/MOL
REMARK 927      BINDING AFFINITY PREDICTED BY RF-SCORE:    0.00 PKD
ROOT
HETATM    1  O   UNL     1      -5.781   8.523  67.634  1.00  0.00    -0.038 OA 
HETATM    2  C   UNL     1      -6.080   9.148  68.795  1.00  0.00    -0.044 C  
HETATM    3  C   UNL     1      -7.559   9.313  69.093  1.00  0.00    -0.073 C  
HETATM    4  O   UNL     1      -5.205   9.540  69.558  1.00  0.00    -0.035 OA 
ENDROOT
BRANCH   3   5
HETATM    5  S   UNL     1      -8.592   8.693  67.715  1.00  0.00    -0.137 SA 
HETATM    6  C   UNL     1      -9.514   7.328  68.526  1.00  0.00    -0.140 C  
HETATM    7  S   UNL     1     -10.596   8.038  69.830  1.00  0.00    -0.239 SA 
HETATM    8  S   UNL     1     -10.570   6.528  67.248  1.00  0.00    -0.362 SA 
BRANCH   7   9
HETATM    9  C   UNL     1     -11.365   6.519  70.508  1.00  0.00    -0.367 C  
HETATM   10  O   UNL     1     -11.649   7.927  72.470  1.00  0.00    -0.352 OA 
HETATM   11  O   UNL     1     -12.417   5.812  72.555  1.00  0.00    -0.091 OA 
HETATM   12  C   UNL     1     -11.860   6.704  71.930  1.00  0.00    -0.332 C  
ENDBRANCH   7   9
BRANCH   8  13
HETATM   13  C   UNL     1      -9.297   5.887  66.095  1.00  0.00    -0.132 C  
HETATM   14  C   UNL     1      -8.981   4.424  66.347  1.00  0.00    -0.117 C  
HETATM   15  O   UNL     1      -9.719   3.823  67.307  1.00  0.00    -0.204 OA 
HETATM   16  O   UNL     1      -8.129   3.817  65.712  1.00  0.00    -0.093 OA 
ENDBRANCH   8  13
ENDBRANCH   3   5
TORSDOF 3
ENDMDL
MODEL      215
REMARK 921   NORMALIZED FREE ENERGY PREDICTED BY IDOCK:   -2.38 KCAL/MOL
REMARK 922        TOTAL FREE ENERGY PREDICTED BY IDOCK:   -3.05 KCAL/MOL
REMARK 923 INTER-LIGAND FREE ENERGY PREDICTED BY IDOCK:   -2.71 KCAL/MOL
REMARK 924 INTRA-LIGAND FREE ENERGY PREDICTED BY IDOCK:   -0.34 KCAL/MOL
REMARK 927      BINDING AFFINITY PREDICTED BY RF-SCORE:    0.00 PKD
ROOT
HETATM    1  O   UNL     1      -6.235   8.290  69.384  1.00  0.00    -0.036 OA 
HETATM    2  C   UNL     1      -6.737   8.888  68.280  1.00  0.00    -0.065 C  
HETATM    3  C   UNL     1      -8.246   9.054  68.248  1.00  0.00    -0.116 C  
HETATM    4  O   UNL     1      -6.010   9.282  67.375  1.00  0.00    -0.048 OA 
ENDROOT
BRANCH   3   5
HETATM    5  S   UNL     1      -9.032   8.287  69.712  1.00  0.00    -0.147 SA 
HETATM    6  C   UNL     1      -9.841   6.814  68.971  1.00  0.00    -0.149 C  
HETATM    7  S   UNL     1      -8.542   5.692  68.316  1.00  0.00    -0.106 SA 
HETATM    8  S   UNL     1     -10.757   5.945  70.310  1.00  0.00    -0.321 SA 
BRANCH   7   9
HETATM    9  C   UNL     1      -9.568   4.348  67.609  1.00  0.00    -0.166 C  
HETATM   10  O   UNL     1      -8.763   5.278  65.511  1.00  0.00    -0.140 OA 
HETATM   11  O   UNL     1     -10.129   3.490  65.430  1.00  0.00    -0.037 OA 
HETATM   12  C   UNL     1      -9.523   4.321  66.092  1.00  0.00    -0.178 C  
ENDBRANCH   7   9
BRANCH   8  13
HETATM   13  C   UNL     1     -11.987   7.222  70.777  1.00  0.00    -0.272 C  
HETATM   14  C   UNL     1     -11.746   7.764  72.175  1.00  0.00    -0.320 C  
HETATM   15  O   UNL     1     -10.652   7.284  72.808  1.00  0.00    -0.232 OA 
HETATM   16  O   UNL     1     -12.479   8.595  72.693  1.00  0.00    -0.375 OA 
ENDBRANCH   8  13
ENDBRANCH   3   5
TORSDOF 3
ENDMDL
MODEL      216
REMARK 921   NORMALIZED FREE ENERGY PREDICTED BY IDOCK:   -2.36 KCAL/MOL
REMARK 922        TOTAL FREE ENERGY PREDICTED BY IDOCK:   -3.03 KCAL/MOL
REMARK 923 INTER-LIGAND FREE ENERGY PREDICTED BY IDOCK:   -2.73 KCAL/MOL
REMARK 924 INTRA-LIGAND FREE ENERGY PREDICTED BY IDOCK:   -0.30 KCAL/MOL
REMARK 927      BINDING AFFINITY PREDICTED BY RF-SCORE:    0.00 PKD
ROOT
HETATM    1  O   UNL     1      -8.306   9.209  66.555  1.00  0.00    -0.116 OA 
HETATM    2  C   UNL     1      -9.621   9.186  66.241  1.00  0.00    -0.255 C  
HETATM    3  C   UNL     1     -10.478   8.238  67.060  1.00  0.00    -0.314 C  
HETATM    4  O   UNL     1     -10.084   9.899  65.358  1.00  0.00    -0.313 OA 
ENDROOT
BRANCH   3   5
HETATM    5  S   UNL     1      -9.464   7.266  68.234  1.00  0.00    -0.141 SA 
HETATM    6  C   UNL     1      -9.800   5.548  67.680  1.00  0.00    -0.144 C  
HETATM    7  S   UNL     1      -9.141   5.333  65.979  1.00  0.00    -0.154 SA 
HETATM    8  S   UNL     1      -8.903   4.408  68.813  1.00  0.00    -0.106 SA 
BRANCH   7   9
HETATM    9  C   UNL     1      -9.619   3.598  65.637  1.00  0.00    -0.142 C  
HETATM   10  O   UNL     1      -9.593   4.384  63.337  1.00  0.00    -0.122 OA 
HETATM   11  O   UNL     1     -10.100   2.224  63.719  1.00  0.00    -0.140 OA 
HETATM   12  C   UNL     1      -9.796   3.326  64.155  1.00  0.00    -0.171 C  
ENDBRANCH   7   9
BRANCH   8  13
HETATM   13  C   UNL     1      -9.731   4.776  70.407  1.00  0.00    -0.219 C  
HETATM   14  C   UNL     1      -9.807   3.556  71.307  1.00  0.00    -0.135 C  
HETATM   15  O   UNL     1      -9.205   2.442  70.835  1.00  0.00    -0.103 OA 
HETATM   16  O   UNL     1     -10.359   3.578  72.399  1.00  0.00    -0.159 OA 
ENDBRANCH   8  13
ENDBRANCH   3   5
TORSDOF 3
ENDMDL
MODEL      217
REMARK 921   NORMALIZED FREE ENERGY PREDICTED BY IDOCK:   -2.36 KCAL/MOL
REMARK 922        TOTAL FREE ENERGY PREDICTED BY IDOCK:   -3.03 KCAL/MOL
REMARK 923 INTER-LIGAND FREE ENERGY PREDICTED BY IDOCK:   -2.76 KCAL/MOL
REMARK 924 INTRA-LIGAND FREE ENERGY PREDICTED BY IDOCK:   -0.27 KCAL/MOL
REMARK 927      BINDING AFFINITY PREDICTED BY RF-SCORE:    0.00 PKD
ROOT
HETATM    1  O   UNL     1      -8.450   6.394  68.060  1.00  0.00    -0.118 OA 
HETATM    2  C   UNL     1      -7.628   5.879  69.001  1.00  0.00    -0.090 C  
HETATM    3  C   UNL     1      -7.310   6.791  70.171  1.00  0.00    -0.085 C  
HETATM    4  O   UNL     1      -7.184   4.739  68.912  1.00  0.00    -0.052 OA 
ENDROOT
BRANCH   3   5
HETATM    5  S   UNL     1      -8.066   8.444  69.953  1.00  0.00    -0.122 SA 
HETATM    6  C   UNL     1      -9.783   8.147  70.532  1.00  0.00    -0.174 C  
HETATM    7  S   UNL     1      -9.741   7.725  72.320  1.00  0.00    -0.203 SA 
HETATM    8  S   UNL     1     -10.727   9.712  70.313  1.00  0.00    -0.303 SA 
BRANCH   7   9
HETATM    9  C   UNL     1     -11.520   7.440  72.652  1.00  0.00    -0.291 C  
HETATM   10  O   UNL     1     -10.893   5.126  72.247  1.00  0.00    -0.218 OA 
HETATM   11  O   UNL     1     -13.037   5.574  72.767  1.00  0.00     0.286 OA 
HETATM   12  C   UNL     1     -11.899   5.974  72.564  1.00  0.00    -0.186 C  
ENDBRANCH   7   9
BRANCH   8  13
HETATM   13  C   UNL     1     -10.657   9.910  68.492  1.00  0.00    -0.217 C  
HETATM   14  C   UNL     1     -11.586  11.005  67.999  1.00  0.00    -0.249 C  
HETATM   15  O   UNL     1     -12.246  11.689  68.961  1.00  0.00    -0.321 OA 
HETATM   16  O   UNL     1     -11.719  11.268  66.812  1.00  0.00    -0.418 OA 
ENDBRANCH   8  13
ENDBRANCH   3   5
TORSDOF 3
ENDMDL
MODEL      218
REMARK 921   NORMALIZED FREE ENERGY PREDICTED BY IDOCK:   -2.36 KCAL/MOL
REMARK 922        TOTAL FREE ENERGY PREDICTED BY IDOCK:   -3.03 KCAL/MOL
REMARK 923 INTER-LIGAND FREE ENERGY PREDICTED BY IDOCK:   -2.64 KCAL/MOL
REMARK 924 INTRA-LIGAND FREE ENERGY PREDICTED BY IDOCK:   -0.39 KCAL/MOL
REMARK 927      BINDING AFFINITY PREDICTED BY RF-SCORE:    0.00 PKD
ROOT
HETATM    1  O   UNL     1     -11.679   8.179  72.461  1.00  0.00    -0.378 OA 
HETATM    2  C   UNL     1     -10.668   7.583  73.133  1.00  0.00    -0.398 C  
HETATM    3  C   UNL     1      -9.269   7.902  72.637  1.00  0.00    -0.208 C  
HETATM    4  O   UNL     1     -10.878   6.847  74.090  1.00  0.00    -0.105 OA 
ENDROOT
BRANCH   3   5
HETATM    5  S   UNL     1      -9.315   8.964  71.147  1.00  0.00    -0.267 SA 
HETATM    6  C   UNL     1      -8.639   7.836  69.866  1.00  0.00    -0.137 C  
HETATM    7  S   UNL     1      -9.796   6.426  69.648  1.00  0.00    -0.161 SA 
HETATM    8  S   UNL     1      -8.543   8.776  68.286  1.00  0.00    -0.135 SA 
BRANCH   7   9
HETATM    9  C   UNL     1      -8.909   5.442  68.381  1.00  0.00    -0.100 C  
HETATM   10  O   UNL     1      -9.088   3.704  70.072  1.00  0.00    -0.098 OA 
HETATM   11  O   UNL     1      -8.083   3.195  68.123  1.00  0.00    -0.072 OA 
HETATM   12  C   UNL     1      -8.650   4.016  68.831  1.00  0.00    -0.084 C  
ENDBRANCH   7   9
BRANCH   8  13
HETATM   13  C   UNL     1      -7.339  10.086  68.731  1.00  0.00    -0.078 C  
HETATM   14  C   UNL     1      -7.930  11.477  68.591  1.00  0.00    -0.135 C  
HETATM   15  O   UNL     1      -9.233  11.526  68.239  1.00  0.00    -0.174 OA 
HETATM   16  O   UNL     1      -7.278  12.491  68.800  1.00  0.00    -0.106 OA 
ENDBRANCH   8  13
ENDBRANCH   3   5
TORSDOF 3
ENDMDL
MODEL      219
REMARK 921   NORMALIZED FREE ENERGY PREDICTED BY IDOCK:   -2.35 KCAL/MOL
REMARK 922        TOTAL FREE ENERGY PREDICTED BY IDOCK:   -3.02 KCAL/MOL
REMARK 923 INTER-LIGAND FREE ENERGY PREDICTED BY IDOCK:   -2.92 KCAL/MOL
REMARK 924 INTRA-LIGAND FREE ENERGY PREDICTED BY IDOCK:   -0.09 KCAL/MOL
REMARK 927      BINDING AFFINITY PREDICTED BY RF-SCORE:    0.00 PKD
ROOT
HETATM    1  O   UNL     1      -7.278  10.017  71.064  1.00  0.00    -0.300 OA 
HETATM    2  C   UNL     1      -6.333   9.114  71.411  1.00  0.00    -0.077 C  
HETATM    3  C   UNL     1      -6.821   7.930  72.226  1.00  0.00    -0.067 C  
HETATM    4  O   UNL     1      -5.163   9.244  71.070  1.00  0.00    -0.028 OA 
ENDROOT
BRANCH   3   5
HETATM    5  S   UNL     1      -8.600   8.084  72.629  1.00  0.00    -0.197 SA 
HETATM    6  C   UNL     1      -9.382   7.291  71.169  1.00  0.00    -0.156 C  
HETATM    7  S   UNL     1      -8.913   5.515  71.138  1.00  0.00    -0.142 SA 
HETATM    8  S   UNL     1     -11.206   7.420  71.370  1.00  0.00    -0.252 SA 
BRANCH   7   9
HETATM    9  C   UNL     1      -9.758   4.959  69.609  1.00  0.00    -0.196 C  
HETATM   10  O   UNL     1      -8.023   3.256  69.656  1.00  0.00    -0.049 OA 
HETATM   11  O   UNL     1      -9.531   3.195  67.986  1.00  0.00    -0.200 OA 
HETATM   12  C   UNL     1      -9.108   3.730  69.001  1.00  0.00    -0.138 C  
ENDBRANCH   7   9
BRANCH   8  13
HETATM   13  C   UNL     1     -11.432   9.240  71.348  1.00  0.00    -0.369 C  
HETATM   14  C   UNL     1     -11.091   9.843  69.997  1.00  0.00    -0.285 C  
HETATM   15  O   UNL     1     -10.752   8.959  69.031  1.00  0.00    -0.209 OA 
HETATM   16  O   UNL     1     -11.135  11.046  69.785  1.00  0.00    -0.259 OA 
ENDBRANCH   8  13
ENDBRANCH   3   5
TORSDOF 3
ENDMDL
MODEL      220
REMARK 921   NORMALIZED FREE ENERGY PREDICTED BY IDOCK:   -2.22 KCAL/MOL
REMARK 922        TOTAL FREE ENERGY PREDICTED BY IDOCK:   -2.87 KCAL/MOL
REMARK 923 INTER-LIGAND FREE ENERGY PREDICTED BY IDOCK:   -2.51 KCAL/MOL
REMARK 924 INTRA-LIGAND FREE ENERGY PREDICTED BY IDOCK:   -0.36 KCAL/MOL
REMARK 927      BINDING AFFINITY PREDICTED BY RF-SCORE:    0.00 PKD
ROOT
HETATM    1  O   UNL     1      -5.582  10.033  67.678  1.00  0.00    -0.042 OA 
HETATM    2  C   UNL     1      -6.335   9.901  66.562  1.00  0.00    -0.070 C  
HETATM    3  C   UNL     1      -7.079   8.586  66.421  1.00  0.00    -0.079 C  
HETATM    4  O   UNL     1      -6.415  10.798  65.731  1.00  0.00    -0.125 OA 
ENDROOT
BRANCH   3   5
HETATM    5  S   UNL     1      -6.678   7.441  67.791  1.00  0.00    -0.064 SA 
HETATM    6  C   UNL     1      -7.998   7.836  69.005  1.00  0.00    -0.123 C  
HETATM    7  S   UNL     1      -9.624   7.380  68.282  1.00  0.00    -0.152 SA 
HETATM    8  S   UNL     1      -7.705   6.811  70.505  1.00  0.00    -0.105 SA 
BRANCH   7   9
HETATM    9  C   UNL     1     -10.758   7.891  69.628  1.00  0.00    -0.218 C  
HETATM   10  O   UNL     1     -11.028   5.488  69.874  1.00  0.00    -0.309 OA 
HETATM   11  O   UNL     1     -12.158   6.836  71.278  1.00  0.00    -0.343 OA 
HETATM   12  C   UNL     1     -11.383   6.707  70.341  1.00  0.00    -0.365 C  
ENDBRANCH   7   9
BRANCH   8  13
HETATM   13  C   UNL     1      -6.075   7.449  71.052  1.00  0.00    -0.035 C  
HETATM   14  C   UNL     1      -6.209   8.659  71.959  1.00  0.00    -0.072 C  
HETATM   15  O   UNL     1      -7.474   9.021  72.269  1.00  0.00    -0.340 OA 
HETATM   16  O   UNL     1      -5.239   9.260  72.399  1.00  0.00    -0.068 OA 
ENDBRANCH   8  13
ENDBRANCH   3   5
TORSDOF 3
ENDMDL
MODEL      221
REMARK 921   NORMALIZED FREE ENERGY PREDICTED BY IDOCK:   -2.19 KCAL/MOL
REMARK 922        TOTAL FREE ENERGY PREDICTED BY IDOCK:   -2.83 KCAL/MOL
REMARK 923 INTER-LIGAND FREE ENERGY PREDICTED BY IDOCK:   -2.83 KCAL/MOL
REMARK 924 INTRA-LIGAND FREE ENERGY PREDICTED BY IDOCK:    0.00 KCAL/MOL
REMARK 927      BINDING AFFINITY PREDICTED BY RF-SCORE:    0.00 PKD
ROOT
HETATM    1  O   UNL     1     -11.095   9.573  68.636  1.00  0.00    -0.121 OA 
HETATM    2  C   UNL     1      -9.754   9.448  68.764  1.00  0.00    -0.156 C  
HETATM    3  C   UNL     1      -8.993  10.736  69.020  1.00  0.00    -0.132 C  
HETATM    4  O   UNL     1      -9.201   8.357  68.692  1.00  0.00    -0.143 OA 
ENDROOT
BRANCH   3   5
HETATM    5  S   UNL     1     -10.108  12.188  68.988  1.00  0.00     0.228 SA 
HETATM    6  C   UNL     1      -9.862  12.808  67.277  1.00  0.00    -0.207 C  
HETATM    7  S   UNL     1     -10.472  11.542  66.094  1.00  0.00    -0.259 SA 
HETATM    8  S   UNL     1     -10.870  14.336  67.085  1.00  0.00    -0.301 SA 
BRANCH   7   9
HETATM    9  C   UNL     1     -10.094  12.351  64.494  1.00  0.00    -0.250 C  
HETATM   10  O   UNL     1      -8.962  10.241  64.066  1.00  0.00    -0.196 OA 
HETATM   11  O   UNL     1      -8.941  11.809  62.450  1.00  0.00    -0.166 OA 
HETATM   12  C   UNL     1      -9.284  11.459  63.571  1.00  0.00    -0.093 C  
ENDBRANCH   7   9
BRANCH   8  13
HETATM   13  C   UNL     1     -10.077  15.435  68.319  1.00  0.00    -0.218 C  
HETATM   14  C   UNL     1     -10.118  16.893  67.898  1.00  0.00    -0.288 C  
HETATM   15  O   UNL     1     -10.778  17.151  66.747  1.00  0.00    -0.231 OA 
HETATM   16  O   UNL     1      -9.607  17.784  68.563  1.00  0.00    -0.297 OA 
ENDBRANCH   8  13
ENDBRANCH   3   5
TORSDOF 3
ENDMDL
MODEL      222
REMARK 921   NORMALIZED FREE ENERGY PREDICTED BY IDOCK:   -2.16 KCAL/MOL
REMARK 922        TOTAL FREE ENERGY PREDICTED BY IDOCK:   -2.80 KCAL/MOL
REMARK 923 INTER-LIGAND FREE ENERGY PREDICTED BY IDOCK:   -2.49 KCAL/MOL
REMARK 924 INTRA-LIGAND FREE ENERGY PREDICTED BY IDOCK:   -0.30 KCAL/MOL
REMARK 927      BINDING AFFINITY PREDICTED BY RF-SCORE:    0.00 PKD
ROOT
HETATM    1  O   UNL     1     -10.082  12.714  65.604  1.00  0.00    -0.271 OA 
HETATM    2  C   UNL     1     -10.798  12.898  66.736  1.00  0.00    -0.267 C  
HETATM    3  C   UNL     1     -11.104  11.644  67.535  1.00  0.00    -0.276 C  
HETATM    4  O   UNL     1     -11.159  14.013  67.094  1.00  0.00    -0.291 OA 
ENDROOT
BRANCH   3   5
HETATM    5  S   UNL     1     -10.492  10.144  66.682  1.00  0.00    -0.147 SA 
HETATM    6  C   UNL     1      -9.178   9.574  67.831  1.00  0.00    -0.125 C  
HETATM    7  S   UNL     1      -9.952   9.098  69.428  1.00  0.00    -0.199 SA 
HETATM    8  S   UNL     1      -8.389   8.088  67.087  1.00  0.00    -0.122 SA 
BRANCH   7   9
HETATM    9  C   UNL     1      -8.475   8.614  70.399  1.00  0.00    -0.140 C  
HETATM   10  O   UNL     1     -10.154   7.610  71.842  1.00  0.00    -0.173 OA 
HETATM   11  O   UNL     1      -7.988   7.391  72.415  1.00  0.00    -0.096 OA 
HETATM   12  C   UNL     1      -8.833   7.819  71.642  1.00  0.00    -0.118 C  
ENDBRANCH   7   9
BRANCH   8  13
HETATM   13  C   UNL     1      -7.679   8.799  65.554  1.00  0.00    -0.092 C  
HETATM   14  C   UNL     1      -6.289   9.368  65.776  1.00  0.00    -0.068 C  
HETATM   15  O   UNL     1      -5.781   9.201  67.017  1.00  0.00    -0.044 OA 
HETATM   16  O   UNL     1      -5.658   9.926  64.889  1.00  0.00    -0.065 OA 
ENDBRANCH   8  13
ENDBRANCH   3   5
TORSDOF 3
ENDMDL
MODEL      223
REMARK 921   NORMALIZED FREE ENERGY PREDICTED BY IDOCK:   -2.14 KCAL/MOL
REMARK 922        TOTAL FREE ENERGY PREDICTED BY IDOCK:   -2.77 KCAL/MOL
REMARK 923 INTER-LIGAND FREE ENERGY PREDICTED BY IDOCK:   -2.52 KCAL/MOL
REMARK 924 INTRA-LIGAND FREE ENERGY PREDICTED BY IDOCK:   -0.25 KCAL/MOL
REMARK 927      BINDING AFFINITY PREDICTED BY RF-SCORE:    0.00 PKD
ROOT
HETATM    1  O   UNL     1     -10.128  12.610  65.535  1.00  0.00    -0.273 OA 
HETATM    2  C   UNL     1     -10.736  13.061  66.656  1.00  0.00    -0.274 C  
HETATM    3  C   UNL     1     -11.125  11.998  67.667  1.00  0.00    -0.264 C  
HETATM    4  O   UNL     1     -10.941  14.255  66.840  1.00  0.00    -0.294 OA 
ENDROOT
BRANCH   3   5
HETATM    5  S   UNL     1     -10.751  10.317  67.048  1.00  0.00    -0.174 SA 
HETATM    6  C   UNL     1      -9.026  10.081  67.632  1.00  0.00    -0.131 C  
HETATM    7  S   UNL     1      -9.019  10.072  69.470  1.00  0.00    -0.193 SA 
HETATM    8  S   UNL     1      -8.449   8.442  67.027  1.00  0.00    -0.123 SA 
BRANCH   7   9
HETATM    9  C   UNL     1      -7.230   9.868  69.809  1.00  0.00    -0.118 C  
HETATM   10  O   UNL     1      -7.175  12.217  69.185  1.00  0.00    -0.065 OA 
HETATM   11  O   UNL     1      -5.243  11.228  69.784  1.00  0.00    -0.048 OA 
HETATM   12  C   UNL     1      -6.450  11.152  69.596  1.00  0.00    -0.128 C  
ENDBRANCH   7   9
BRANCH   8  13
HETATM   13  C   UNL     1      -8.515   8.696  65.213  1.00  0.00    -0.179 C  
HETATM   14  C   UNL     1      -7.222   9.275  64.668  1.00  0.00    -0.100 C  
HETATM   15  O   UNL     1      -6.230   9.441  65.571  1.00  0.00    -0.062 OA 
HETATM   16  O   UNL     1      -7.075   9.558  63.487  1.00  0.00    -0.096 OA 
ENDBRANCH   8  13
ENDBRANCH   3   5
TORSDOF 3
ENDMDL
MODEL      224
REMARK 921   NORMALIZED FREE ENERGY PREDICTED BY IDOCK:   -2.13 KCAL/MOL
REMARK 922        TOTAL FREE ENERGY PREDICTED BY IDOCK:   -2.76 KCAL/MOL
REMARK 923 INTER-LIGAND FREE ENERGY PREDICTED BY IDOCK:   -2.44 KCAL/MOL
REMARK 924 INTRA-LIGAND FREE ENERGY PREDICTED BY IDOCK:   -0.32 KCAL/MOL
REMARK 927      BINDING AFFINITY PREDICTED BY RF-SCORE:    0.00 PKD
ROOT
HETATM    1  O   UNL     1      -7.128   9.283  67.347  1.00  0.00    -0.078 OA 
HETATM    2  C   UNL     1      -8.172  10.108  67.590  1.00  0.00    -0.110 C  
HETATM    3  C   UNL     1      -9.536   9.445  67.646  1.00  0.00    -0.132 C  
HETATM    4  O   UNL     1      -8.013  11.310  67.767  1.00  0.00    -0.111 OA 
ENDROOT
BRANCH   3   5
HETATM    5  S   UNL     1      -9.428   7.659  67.259  1.00  0.00    -0.157 SA 
HETATM    6  C   UNL     1      -9.394   6.917  68.938  1.00  0.00    -0.134 C  
HETATM    7  S   UNL     1     -10.993   7.266  69.773  1.00  0.00    -0.178 SA 
HETATM    8  S   UNL     1      -9.212   5.096  68.742  1.00  0.00    -0.125 SA 
BRANCH   7   9
HETATM    9  C   UNL     1     -10.712   6.480  71.404  1.00  0.00    -0.238 C  
HETATM   10  O   UNL     1     -11.072   8.751  72.197  1.00  0.00    -0.355 OA 
HETATM   11  O   UNL     1     -10.671   7.142  73.719  1.00  0.00    -0.361 OA 
HETATM   12  C   UNL     1     -10.812   7.471  72.550  1.00  0.00    -0.299 C  
ENDBRANCH   7   9
BRANCH   8  13
HETATM   13  C   UNL     1      -7.571   4.995  67.929  1.00  0.00    -0.083 C  
HETATM   14  C   UNL     1      -6.431   5.106  68.925  1.00  0.00    -0.036 C  
HETATM   15  O   UNL     1      -6.795   5.189  70.224  1.00  0.00    -0.042 OA 
HETATM   16  O   UNL     1      -5.257   5.104  68.582  1.00  0.00     0.000 OA 
ENDBRANCH   8  13
ENDBRANCH   3   5
TORSDOF 3
ENDMDL
MODEL      225
REMARK 921   NORMALIZED FREE ENERGY PREDICTED BY IDOCK:   -2.09 KCAL/MOL
REMARK 922        TOTAL FREE ENERGY PREDICTED BY IDOCK:   -2.72 KCAL/MOL
REMARK 923 INTER-LIGAND FREE ENERGY PREDICTED BY IDOCK:   -2.36 KCAL/MOL
REMARK 924 INTRA-LIGAND FREE ENERGY PREDICTED BY IDOCK:   -0.35 KCAL/MOL
REMARK 927      BINDING AFFINITY PREDICTED BY RF-SCORE:    0.00 PKD
ROOT
HETATM    1  O   UNL     1      -5.405   8.195  66.343  1.00  0.00    -0.027 OA 
HETATM    2  C   UNL     1      -6.215   9.189  66.772  1.00  0.00    -0.065 C  
HETATM    3  C   UNL     1      -7.701   8.971  66.554  1.00  0.00    -0.096 C  
HETATM    4  O   UNL     1      -5.767  10.193  67.315  1.00  0.00    -0.045 OA 
ENDROOT
BRANCH   3   5
HETATM    5  S   UNL     1      -8.021   7.413  65.648  1.00  0.00    -0.125 SA 
HETATM    6  C   UNL     1      -8.896   6.417  66.918  1.00  0.00    -0.119 C  
HETATM    7  S   UNL     1     -10.494   7.234  67.314  1.00  0.00    -0.335 SA 
HETATM    8  S   UNL     1      -9.240   4.761  66.193  1.00  0.00    -0.155 SA 
BRANCH   7   9
HETATM    9  C   UNL     1     -11.151   6.106  68.600  1.00  0.00    -0.294 C  
HETATM   10  O   UNL     1     -10.713   8.017  70.039  1.00  0.00    -0.240 OA 
HETATM   11  O   UNL     1     -11.597   6.165  70.966  1.00  0.00    -0.303 OA 
HETATM   12  C   UNL     1     -11.180   6.748  69.975  1.00  0.00    -0.328 C  
ENDBRANCH   7   9
BRANCH   8  13
HETATM   13  C   UNL     1      -7.537   4.143  65.911  1.00  0.00    -0.089 C  
HETATM   14  C   UNL     1      -6.996   3.387  67.112  1.00  0.00    -0.057 C  
HETATM   15  O   UNL     1      -7.857   3.233  68.142  1.00  0.00    -0.063 OA 
HETATM   16  O   UNL     1      -5.862   2.930  67.143  1.00  0.00    -0.021 OA 
ENDBRANCH   8  13
ENDBRANCH   3   5
TORSDOF 3
ENDMDL
MODEL      226
REMARK 921   NORMALIZED FREE ENERGY PREDICTED BY IDOCK:   -2.06 KCAL/MOL
REMARK 922        TOTAL FREE ENERGY PREDICTED BY IDOCK:   -2.68 KCAL/MOL
REMARK 923 INTER-LIGAND FREE ENERGY PREDICTED BY IDOCK:   -2.33 KCAL/MOL
REMARK 924 INTRA-LIGAND FREE ENERGY PREDICTED BY IDOCK:   -0.35 KCAL/MOL
REMARK 927      BINDING AFFINITY PREDICTED BY RF-SCORE:    0.00 PKD
ROOT
HETATM    1  O   UNL     1      -7.239   8.906  70.556  1.00  0.00    -0.054 OA 
HETATM    2  C   UNL     1      -7.205   8.792  71.903  1.00  0.00    -0.018 C  
HETATM    3  C   UNL     1      -8.503   8.362  72.561  1.00  0.00    -0.162 C  
HETATM    4  O   UNL     1      -6.182   9.010  72.541  1.00  0.00    -0.222 OA 
ENDROOT
BRANCH   3   5
HETATM    5  S   UNL     1      -9.852   8.199  71.334  1.00  0.00    -0.184 SA 
HETATM    6  C   UNL     1      -9.636   6.464  70.772  1.00  0.00    -0.179 C  
HETATM    7  S   UNL     1      -9.958   5.339  72.189  1.00  0.00    -0.190 SA 
HETATM    8  S   UNL     1     -10.885   6.140  69.460  1.00  0.00    -0.394 SA 
BRANCH   7   9
HETATM    9  C   UNL     1      -9.650   3.707  71.413  1.00  0.00    -0.167 C  
HETATM   10  O   UNL     1      -7.586   3.852  72.691  1.00  0.00    -0.068 OA 
HETATM   11  O   UNL     1      -7.939   2.013  71.442  1.00  0.00    -0.040 OA 
HETATM   12  C   UNL     1      -8.324   3.104  71.838  1.00  0.00    -0.062 C  
ENDBRANCH   7   9
BRANCH   8  13
HETATM   13  C   UNL     1     -10.357   7.334  68.173  1.00  0.00    -0.194 C  
HETATM   14  C   UNL     1      -9.351   6.729  67.210  1.00  0.00    -0.134 C  
HETATM   15  O   UNL     1      -9.065   5.423  67.406  1.00  0.00    -0.112 OA 
HETATM   16  O   UNL     1      -8.842   7.373  66.302  1.00  0.00    -0.148 OA 
ENDBRANCH   8  13
ENDBRANCH   3   5
TORSDOF 3
ENDMDL
MODEL      227
REMARK 921   NORMALIZED FREE ENERGY PREDICTED BY IDOCK:   -2.02 KCAL/MOL
REMARK 922        TOTAL FREE ENERGY PREDICTED BY IDOCK:   -2.64 KCAL/MOL
REMARK 923 INTER-LIGAND FREE ENERGY PREDICTED BY IDOCK:   -2.34 KCAL/MOL
REMARK 924 INTRA-LIGAND FREE ENERGY PREDICTED BY IDOCK:   -0.30 KCAL/MOL
REMARK 927      BINDING AFFINITY PREDICTED BY RF-SCORE:    0.00 PKD
ROOT
HETATM    1  O   UNL     1      -7.047   9.026  70.019  1.00  0.00    -0.048 OA 
HETATM    2  C   UNL     1      -6.629   7.790  70.377  1.00  0.00    -0.038 C  
HETATM    3  C   UNL     1      -7.632   6.670  70.171  1.00  0.00    -0.096 C  
HETATM    4  O   UNL     1      -5.505   7.597  70.824  1.00  0.00    -0.026 OA 
ENDROOT
BRANCH   3   5
HETATM    5  S   UNL     1      -9.236   7.312  69.566  1.00  0.00    -0.148 SA 
HETATM    6  C   UNL     1      -8.985   7.281  67.747  1.00  0.00    -0.126 C  
HETATM    7  S   UNL     1      -8.781   5.537  67.206  1.00  0.00    -0.106 SA 
HETATM    8  S   UNL     1     -10.499   7.973  66.961  1.00  0.00    -0.293 SA 
BRANCH   7   9
HETATM    9  C   UNL     1      -8.512   5.760  65.407  1.00  0.00    -0.151 C  
HETATM   10  O   UNL     1      -8.380   3.332  65.455  1.00  0.00    -0.096 OA 
HETATM   11  O   UNL     1      -8.155   4.373  63.471  1.00  0.00    -0.086 OA 
HETATM   12  C   UNL     1      -8.332   4.440  64.680  1.00  0.00    -0.110 C  
ENDBRANCH   7   9
BRANCH   8  13
HETATM   13  C   UNL     1     -10.479   9.686  67.613  1.00  0.00    -0.261 C  
HETATM   14  C   UNL     1     -10.296  10.716  66.512  1.00  0.00    -0.241 C  
HETATM   15  O   UNL     1     -10.249  10.225  65.254  1.00  0.00    -0.307 OA 
HETATM   16  O   UNL     1     -10.214  11.915  66.742  1.00  0.00    -0.203 OA 
ENDBRANCH   8  13
ENDBRANCH   3   5
TORSDOF 3
ENDMDL
MODEL      228
REMARK 921   NORMALIZED FREE ENERGY PREDICTED BY IDOCK:   -1.98 KCAL/MOL
REMARK 922        TOTAL FREE ENERGY PREDICTED BY IDOCK:   -2.59 KCAL/MOL
REMARK 923 INTER-LIGAND FREE ENERGY PREDICTED BY IDOCK:   -2.18 KCAL/MOL
REMARK 924 INTRA-LIGAND FREE ENERGY PREDICTED BY IDOCK:   -0.41 KCAL/MOL
REMARK 927      BINDING AFFINITY PREDICTED BY RF-SCORE:    0.00 PKD
ROOT
HETATM    1  O   UNL     1     -10.750   6.758  69.373  1.00  0.00    -0.224 OA 
HETATM    2  C   UNL     1     -11.173   7.713  70.232  1.00  0.00    -0.216 C  
HETATM    3  C   UNL     1     -10.390   9.013  70.212  1.00  0.00    -0.209 C  
HETATM    4  O   UNL     1     -12.139   7.535  70.966  1.00  0.00    -0.308 OA 
ENDROOT
BRANCH   3   5
HETATM    5  S   UNL     1      -8.967   8.916  69.065  1.00  0.00    -0.137 SA 
HETATM    6  C   UNL     1      -7.548   8.964  70.230  1.00  0.00    -0.077 C  
HETATM    7  S   UNL     1      -7.591   7.457  71.279  1.00  0.00    -0.083 SA 
HETATM    8  S   UNL     1      -6.002   8.948  69.231  1.00  0.00    -0.042 SA 
BRANCH   7   9
HETATM    9  C   UNL     1      -6.139   7.743  72.359  1.00  0.00    -0.041 C  
HETATM   10  O   UNL     1      -7.783   8.920  73.710  1.00  0.00    -0.393 OA 
HETATM   11  O   UNL     1      -5.661   8.825  74.457  1.00  0.00    -0.109 OA 
HETATM   12  C   UNL     1      -6.489   8.541  73.602  1.00  0.00    -0.090 C  
ENDBRANCH   7   9
BRANCH   8  13
HETATM   13  C   UNL     1      -6.167  10.523  68.307  1.00  0.00    -0.054 C  
HETATM   14  C   UNL     1      -6.279  10.300  66.810  1.00  0.00    -0.070 C  
HETATM   15  O   UNL     1      -6.311   9.008  66.412  1.00  0.00    -0.063 OA 
HETATM   16  O   UNL     1      -6.355  11.224  66.011  1.00  0.00    -0.064 OA 
ENDBRANCH   8  13
ENDBRANCH   3   5
TORSDOF 3
ENDMDL
MODEL      229
REMARK 921   NORMALIZED FREE ENERGY PREDICTED BY IDOCK:   -1.91 KCAL/MOL
REMARK 922        TOTAL FREE ENERGY PREDICTED BY IDOCK:   -2.50 KCAL/MOL
REMARK 923 INTER-LIGAND FREE ENERGY PREDICTED BY IDOCK:   -2.21 KCAL/MOL
REMARK 924 INTRA-LIGAND FREE ENERGY PREDICTED BY IDOCK:   -0.29 KCAL/MOL
REMARK 927      BINDING AFFINITY PREDICTED BY RF-SCORE:    0.00 PKD
ROOT
HETATM    1  O   UNL     1      -8.825  10.924  64.686  1.00  0.00    -0.171 OA 
HETATM    2  C   UNL     1      -8.261   9.697  64.762  1.00  0.00    -0.142 C  
HETATM    3  C   UNL     1      -6.993   9.604  65.590  1.00  0.00    -0.096 C  
HETATM    4  O   UNL     1      -8.760   8.725  64.206  1.00  0.00    -0.130 OA 
ENDROOT
BRANCH   3   5
HETATM    5  S   UNL     1      -6.479  11.247  66.211  1.00  0.00     0.039 SA 
HETATM    6  C   UNL     1      -7.063  11.185  67.951  1.00  0.00    -0.081 C  
HETATM    7  S   UNL     1      -6.132   9.876  68.842  1.00  0.00    -0.040 SA 
HETATM    8  S   UNL     1      -6.689  12.812  68.726  1.00  0.00    -0.097 SA 
BRANCH   7   9
HETATM    9  C   UNL     1      -6.898   9.975  70.504  1.00  0.00    -0.104 C  
HETATM   10  O   UNL     1      -8.649   8.684  69.417  1.00  0.00    -0.124 OA 
HETATM   11  O   UNL     1      -8.898   9.196  71.595  1.00  0.00    -0.339 OA 
HETATM   12  C   UNL     1      -8.234   9.257  70.570  1.00  0.00    -0.191 C  
ENDBRANCH   7   9
BRANCH   8  13
HETATM   13  C   UNL     1      -7.726  13.931  67.709  1.00  0.00    -0.172 C  
HETATM   14  C   UNL     1      -7.009  15.225  67.369  1.00  0.00    -0.179 C  
HETATM   15  O   UNL     1      -5.731  15.316  67.798  1.00  0.00    -0.154 OA 
HETATM   16  O   UNL     1      -7.542  16.123  66.732  1.00  0.00    -0.225 OA 
ENDBRANCH   8  13
ENDBRANCH   3   5
TORSDOF 3
ENDMDL
MODEL      230
REMARK 921   NORMALIZED FREE ENERGY PREDICTED BY IDOCK:   -1.89 KCAL/MOL
REMARK 922        TOTAL FREE ENERGY PREDICTED BY IDOCK:   -2.48 KCAL/MOL
REMARK 923 INTER-LIGAND FREE ENERGY PREDICTED BY IDOCK:   -2.33 KCAL/MOL
REMARK 924 INTRA-LIGAND FREE ENERGY PREDICTED BY IDOCK:   -0.16 KCAL/MOL
REMARK 927      BINDING AFFINITY PREDICTED BY RF-SCORE:    0.00 PKD
ROOT
HETATM    1  O   UNL     1     -10.694  14.898  69.459  1.00  0.00    -0.245 OA 
HETATM    2  C   UNL     1     -11.625  13.942  69.678  1.00  0.00    -0.286 C  
HETATM    3  C   UNL     1     -12.347  13.430  68.445  1.00  0.00     0.112 C  
HETATM    4  O   UNL     1     -11.852  13.512  70.803  1.00  0.00    -0.237 OA 
ENDROOT
BRANCH   3   5
HETATM    5  S   UNL     1     -11.828  14.337  66.942  1.00  0.00    -0.433 SA 
HETATM    6  C   UNL     1     -10.135  13.679  66.677  1.00  0.00    -0.277 C  
HETATM    7  S   UNL     1     -10.249  11.884  66.300  1.00  0.00    -0.223 SA 
HETATM    8  S   UNL     1      -9.417  14.548  65.222  1.00  0.00     0.612 SA 
BRANCH   7   9
HETATM    9  C   UNL     1      -8.477  11.454  66.118  1.00  0.00    -0.105 C  
HETATM   10  O   UNL     1      -8.675  11.007  68.500  1.00  0.00    -0.146 OA 
HETATM   11  O   UNL     1      -6.681  10.662  67.513  1.00  0.00    -0.068 OA 
HETATM   12  C   UNL     1      -7.852  11.006  67.426  1.00  0.00    -0.118 C  
ENDBRANCH   7   9
BRANCH   8  13
HETATM   13  C   UNL     1      -9.379  16.277  65.831  1.00  0.00    -0.264 C  
HETATM   14  C   UNL     1      -8.132  16.569  66.646  1.00  0.00    -0.278 C  
HETATM   15  O   UNL     1      -7.239  15.558  66.731  1.00  0.00    -0.165 OA 
HETATM   16  O   UNL     1      -7.934  17.652  67.178  1.00  0.00    -0.202 OA 
ENDBRANCH   8  13
ENDBRANCH   3   5
TORSDOF 3
ENDMDL
MODEL      231
REMARK 921   NORMALIZED FREE ENERGY PREDICTED BY IDOCK:   -1.85 KCAL/MOL
REMARK 922        TOTAL FREE ENERGY PREDICTED BY IDOCK:   -2.43 KCAL/MOL
REMARK 923 INTER-LIGAND FREE ENERGY PREDICTED BY IDOCK:   -2.08 KCAL/MOL
REMARK 924 INTRA-LIGAND FREE ENERGY PREDICTED BY IDOCK:   -0.35 KCAL/MOL
REMARK 927      BINDING AFFINITY PREDICTED BY RF-SCORE:    0.00 PKD
ROOT
HETATM    1  O   UNL     1     -10.887   7.868  69.763  1.00  0.00    -0.249 OA 
HETATM    2  C   UNL     1     -10.195   8.906  70.286  1.00  0.00    -0.201 C  
HETATM    3  C   UNL     1      -8.687   8.741  70.325  1.00  0.00    -0.161 C  
HETATM    4  O   UNL     1     -10.760   9.917  70.686  1.00  0.00    -0.296 OA 
ENDROOT
BRANCH   3   5
HETATM    5  S   UNL     1      -8.181   7.086  69.728  1.00  0.00    -0.132 SA 
HETATM    6  C   UNL     1      -7.686   7.451  67.997  1.00  0.00    -0.116 C  
HETATM    7  S   UNL     1      -6.226   8.566  68.021  1.00  0.00    -0.052 SA 
HETATM    8  S   UNL     1      -7.206   5.861  67.205  1.00  0.00    -0.076 SA 
BRANCH   7   9
HETATM    9  C   UNL     1      -5.949   8.814  66.227  1.00  0.00    -0.051 C  
HETATM   10  O   UNL     1      -6.656  11.078  66.760  1.00  0.00    -0.103 OA 
HETATM   11  O   UNL     1      -6.098  10.610  64.630  1.00  0.00    -0.088 OA 
HETATM   12  C   UNL     1      -6.236  10.238  65.787  1.00  0.00    -0.109 C  
ENDBRANCH   7   9
BRANCH   8  13
HETATM   13  C   UNL     1      -8.793   4.945  67.271  1.00  0.00    -0.103 C  
HETATM   14  C   UNL     1      -8.623   3.546  67.838  1.00  0.00    -0.099 C  
HETATM   15  O   UNL     1      -7.378   3.233  68.257  1.00  0.00    -0.050 OA 
HETATM   16  O   UNL     1      -9.554   2.757  67.928  1.00  0.00    -0.194 OA 
ENDBRANCH   8  13
ENDBRANCH   3   5
TORSDOF 3
ENDMDL
MODEL      232
REMARK 921   NORMALIZED FREE ENERGY PREDICTED BY IDOCK:   -1.85 KCAL/MOL
REMARK 922        TOTAL FREE ENERGY PREDICTED BY IDOCK:   -2.43 KCAL/MOL
REMARK 923 INTER-LIGAND FREE ENERGY PREDICTED BY IDOCK:   -2.07 KCAL/MOL
REMARK 924 INTRA-LIGAND FREE ENERGY PREDICTED BY IDOCK:   -0.36 KCAL/MOL
REMARK 927      BINDING AFFINITY PREDICTED BY RF-SCORE:    0.00 PKD
ROOT
HETATM    1  O   UNL     1      -7.647   9.657  69.555  1.00  0.00    -0.084 OA 
HETATM    2  C   UNL     1      -6.432   9.181  69.197  1.00  0.00    -0.042 C  
HETATM    3  C   UNL     1      -5.715   8.349  70.244  1.00  0.00    -0.025 C  
HETATM    4  O   UNL     1      -5.957   9.402  68.089  1.00  0.00    -0.041 OA 
ENDROOT
BRANCH   3   5
HETATM    5  S   UNL     1      -6.663   8.283  71.809  1.00  0.00    -0.076 SA 
HETATM    6  C   UNL     1      -7.697   6.787  71.554  1.00  0.00    -0.096 C  
HETATM    7  S   UNL     1      -6.598   5.319  71.441  1.00  0.00    -0.041 SA 
HETATM    8  S   UNL     1      -8.787   6.602  73.025  1.00  0.00    -0.127 SA 
BRANCH   7   9
HETATM    9  C   UNL     1      -7.824   3.988  71.155  1.00  0.00    -0.063 C  
HETATM   10  O   UNL     1      -7.314   4.465  68.826  1.00  0.00    -0.055 OA 
HETATM   11  O   UNL     1      -8.803   2.838  69.279  1.00  0.00    -0.075 OA 
HETATM   12  C   UNL     1      -8.035   3.702  69.679  1.00  0.00    -0.050 C  
ENDBRANCH   7   9
BRANCH   8  13
HETATM   13  C   UNL     1      -9.786   8.135  72.914  1.00  0.00    -0.268 C  
HETATM   14  C   UNL     1     -11.243   7.849  72.597  1.00  0.00    -0.398 C  
HETATM   15  O   UNL     1     -11.578   6.542  72.519  1.00  0.00    -0.265 OA 
HETATM   16  O   UNL     1     -12.068   8.738  72.440  1.00  0.00    -0.361 OA 
ENDBRANCH   8  13
ENDBRANCH   3   5
TORSDOF 3
ENDMDL
MODEL      233
REMARK 921   NORMALIZED FREE ENERGY PREDICTED BY IDOCK:   -1.67 KCAL/MOL
REMARK 922        TOTAL FREE ENERGY PREDICTED BY IDOCK:   -2.22 KCAL/MOL
REMARK 923 INTER-LIGAND FREE ENERGY PREDICTED BY IDOCK:   -1.86 KCAL/MOL
REMARK 924 INTRA-LIGAND FREE ENERGY PREDICTED BY IDOCK:   -0.36 KCAL/MOL
REMARK 927      BINDING AFFINITY PREDICTED BY RF-SCORE:    0.00 PKD
ROOT
HETATM    1  O   UNL     1      -7.700   4.501  70.154  1.00  0.00    -0.053 OA 
HETATM    2  C   UNL     1      -8.159   5.708  70.557  1.00  0.00    -0.105 C  
HETATM    3  C   UNL     1      -8.299   6.757  69.469  1.00  0.00    -0.132 C  
HETATM    4  O   UNL     1      -8.455   5.925  71.726  1.00  0.00    -0.128 OA 
ENDROOT
BRANCH   3   5
HETATM    5  S   UNL     1      -7.697   6.132  67.857  1.00  0.00    -0.103 SA 
HETATM    6  C   UNL     1      -8.336   7.408  66.702  1.00  0.00    -0.124 C  
HETATM    7  S   UNL     1      -7.522   9.012  67.080  1.00  0.00    -0.087 SA 
HETATM    8  S   UNL     1      -7.879   6.898  64.994  1.00  0.00    -0.125 SA 
BRANCH   7   9
HETATM    9  C   UNL     1      -8.331  10.109  65.855  1.00  0.00    -0.136 C  
HETATM   10  O   UNL     1      -9.744  10.652  67.757  1.00  0.00    -0.158 OA 
HETATM   11  O   UNL     1     -10.146  11.690  65.800  1.00  0.00    -0.223 OA 
HETATM   12  C   UNL     1      -9.486  10.891  66.451  1.00  0.00    -0.187 C  
ENDBRANCH   7   9
BRANCH   8  13
HETATM   13  C   UNL     1      -8.808   5.324  64.839  1.00  0.00    -0.088 C  
HETATM   14  C   UNL     1      -7.894   4.145  64.561  1.00  0.00    -0.085 C  
HETATM   15  O   UNL     1      -6.571   4.421  64.543  1.00  0.00    -0.041 OA 
HETATM   16  O   UNL     1      -8.319   3.012  64.383  1.00  0.00    -0.086 OA 
ENDBRANCH   8  13
ENDBRANCH   3   5
TORSDOF 3
ENDMDL
MODEL      234
REMARK 921   NORMALIZED FREE ENERGY PREDICTED BY IDOCK:   -1.37 KCAL/MOL
REMARK 922        TOTAL FREE ENERGY PREDICTED BY IDOCK:   -1.87 KCAL/MOL
REMARK 923 INTER-LIGAND FREE ENERGY PREDICTED BY IDOCK:   -1.77 KCAL/MOL
REMARK 924 INTRA-LIGAND FREE ENERGY PREDICTED BY IDOCK:   -0.10 KCAL/MOL
REMARK 927      BINDING AFFINITY PREDICTED BY RF-SCORE:    0.00 PKD
ROOT
HETATM    1  O   UNL     1      -6.754   5.940  69.200  1.00  0.00    -0.055 OA 
HETATM    2  C   UNL     1      -6.174   6.656  70.190  1.00  0.00    -0.031 C  
HETATM    3  C   UNL     1      -5.691   8.042  69.806  1.00  0.00    -0.023 C  
HETATM    4  O   UNL     1      -6.063   6.208  71.325  1.00  0.00    -0.030 OA 
ENDROOT
BRANCH   3   5
HETATM    5  S   UNL     1      -5.936   8.364  68.020  1.00  0.00    -0.043 SA 
HETATM    6  C   UNL     1      -6.539  10.099  68.035  1.00  0.00    -0.058 C  
HETATM    7  S   UNL     1      -5.203  11.185  68.675  1.00  0.00    -0.039 SA 
HETATM    8  S   UNL     1      -6.912  10.576  66.297  1.00  0.00    -0.134 SA 
BRANCH   7   9
HETATM    9  C   UNL     1      -6.033  12.818  68.634  1.00  0.00    -0.065 C  
HETATM   10  O   UNL     1      -5.667  12.702  71.035  1.00  0.00    -0.312 OA 
HETATM   11  O   UNL     1      -6.673  14.534  70.197  1.00  0.00    -0.167 OA 
HETATM   12  C   UNL     1      -6.160  13.439  70.013  1.00  0.00    -0.125 C  
ENDBRANCH   7   9
BRANCH   8  13
HETATM   13  C   UNL     1      -8.259   9.400  65.893  1.00  0.00    -0.115 C  
HETATM   14  C   UNL     1      -9.525   9.687  66.679  1.00  0.00    -0.170 C  
HETATM   15  O   UNL     1      -9.482  10.776  67.479  1.00  0.00    -0.153 OA 
HETATM   16  O   UNL     1     -10.527   8.992  66.587  1.00  0.00    -0.246 OA 
ENDBRANCH   8  13
ENDBRANCH   3   5
TORSDOF 3
ENDMDL
MODEL      235
REMARK 921   NORMALIZED FREE ENERGY PREDICTED BY IDOCK:    2.33 KCAL/MOL
REMARK 922        TOTAL FREE ENERGY PREDICTED BY IDOCK:    2.48 KCAL/MOL
REMARK 923 INTER-LIGAND FREE ENERGY PREDICTED BY IDOCK:   -0.17 KCAL/MOL
REMARK 924 INTRA-LIGAND FREE ENERGY PREDICTED BY IDOCK:    2.65 KCAL/MOL
REMARK 927      BINDING AFFINITY PREDICTED BY RF-SCORE:    0.00 PKD
ROOT
HETATM    1  O   UNL     1      -9.018  14.427  69.561  1.00  0.00     0.215 OA 
HETATM    2  C   UNL     1     -10.155  14.867  68.975  1.00  0.00    -0.237 C  
HETATM    3  C   UNL     1     -10.771  13.934  67.949  1.00  0.00    -0.240 C  
HETATM    4  O   UNL     1     -10.654  15.946  69.271  1.00  0.00    -0.216 OA 
ENDROOT
BRANCH   3   5
HETATM    5  S   UNL     1      -9.733  12.449  67.687  1.00  0.00    -0.200 SA 
HETATM    6  C   UNL     1      -8.244  13.173  66.891  1.00  0.00     0.034 C  
HETATM    7  S   UNL     1      -7.418  14.295  68.089  1.00  0.00    -0.149 SA 
HETATM    8  S   UNL     1      -7.099  11.791  66.483  1.00  0.00     0.224 SA 
BRANCH   7   9
HETATM    9  C   UNL     1      -6.019  14.911  67.080  1.00  0.00     1.016 C  
HETATM   10  O   UNL     1      -7.063  17.060  67.533  1.00  0.00    -0.142 OA 
HETATM   11  O   UNL     1      -5.178  17.029  66.302  1.00  0.00    -0.349 OA 
HETATM   12  C   UNL     1      -6.035  16.421  66.928  1.00  0.00     0.018 C  
ENDBRANCH   7   9
BRANCH   8  13
HETATM   13  C   UNL     1      -8.109  10.844  65.282  1.00  0.00     0.060 C  
HETATM   14  C   UNL     1      -7.293  10.375  64.091  1.00  0.00     0.013 C  
HETATM   15  O   UNL     1      -5.973  10.662  64.138  1.00  0.00    -0.090 OA 
HETATM   16  O   UNL     1      -7.788   9.762  63.156  1.00  0.00    -0.128 OA 
ENDBRANCH   8  13
ENDBRANCH   3   5
TORSDOF 3
ENDMDL
MODEL      236
REMARK 921   NORMALIZED FREE ENERGY PREDICTED BY IDOCK:   14.17 KCAL/MOL
REMARK 922        TOTAL FREE ENERGY PREDICTED BY IDOCK:   16.40 KCAL/MOL
REMARK 923 INTER-LIGAND FREE ENERGY PREDICTED BY IDOCK:    4.16 KCAL/MOL
REMARK 924 INTRA-LIGAND FREE ENERGY PREDICTED BY IDOCK:   12.24 KCAL/MOL
REMARK 927      BINDING AFFINITY PREDICTED BY RF-SCORE:    0.00 PKD
ROOT
HETATM    1  O   UNL     1     -10.206  14.494  69.639  1.00  0.00    -0.049 OA 
HETATM    2  C   UNL     1     -11.328  13.819  69.301  1.00  0.00    -0.273 C  
HETATM    3  C   UNL     1     -12.314  14.574  68.429  1.00  0.00     0.024 C  
HETATM    4  O   UNL     1     -11.519  12.665  69.669  1.00  0.00    -0.250 OA 
ENDROOT
BRANCH   3   5
HETATM    5  S   UNL     1     -11.762  16.294  68.131  1.00  0.00     0.256 SA 
HETATM    6  C   UNL     1      -9.936  16.102  68.130  1.00  0.00    -0.230 C  
HETATM    7  S   UNL     1      -9.452  15.048  66.705  1.00  0.00    -0.283 SA 
HETATM    8  S   UNL     1      -9.197  17.773  67.911  1.00  0.00    -0.271 SA 
BRANCH   7   9
HETATM    9  C   UNL     1      -7.635  14.970  66.932  1.00  0.00     0.111 C  
HETATM   10  O   UNL     1      -7.720  17.083  65.732  1.00  0.00    -0.357 OA 
HETATM   11  O   UNL     1      -5.711  16.315  66.396  1.00  0.00    -0.082 OA 
HETATM   12  C   UNL     1      -6.924  16.171  66.337  1.00  0.00     0.520 C  
ENDBRANCH   7   9
BRANCH   8  13
HETATM   13  C   UNL     1      -9.783  18.616  69.430  1.00  0.00     0.091 C  
HETATM   14  C   UNL     1     -10.959  17.897  70.066  1.00  0.00     1.720 C  
HETATM   15  O   UNL     1     -11.332  16.743  69.469  1.00  0.00    -0.072 OA 
HETATM   16  O   UNL     1     -11.525  18.320  71.065  1.00  0.00     3.305 OA 
ENDBRANCH   8  13
ENDBRANCH   3   5
TORSDOF 3
ENDMDL
