MODEL        1
REMARK 921   NORMALIZED FREE ENERGY PREDICTED BY IDOCK:   -6.78 KCAL/MOL
REMARK 922        TOTAL FREE ENERGY PREDICTED BY IDOCK:  -18.53 KCAL/MOL
REMARK 923 INTER-LIGAND FREE ENERGY PREDICTED BY IDOCK:  -13.91 KCAL/MOL
REMARK 924 INTRA-LIGAND FREE ENERGY PREDICTED BY IDOCK:   -4.61 KCAL/MOL
REMARK 927      BINDING AFFINITY PREDICTED BY RF-SCORE:    0.00 PKD
ROOT
HETATM    1  C   UNL     1     -10.230  11.260  63.272  1.00  0.00    -0.417 C  
HETATM    2  C   UNL     1     -11.346  11.859  64.118  1.00  0.00    -0.455 C  
HETATM    3  C   UNL     1     -10.923  12.284  65.546  1.00  0.00    -0.298 C  
HETATM    4  C   UNL     1     -12.031  12.983  63.331  1.00  0.00    -0.592 C  
ENDROOT
BRANCH   3   5
HETATM    5  N   UNL     1      -9.915  13.353  65.647  1.00  0.00    -0.417 N  
HETATM    6  H   UNL     1      -9.203  13.418  64.921  1.00  0.00     0.000 HD 
BRANCH   5   7
HETATM    7  C   UNL     1      -9.888  14.262  66.669  1.00  0.00    -0.281 C  
HETATM    8  O   UNL     1      -9.451  13.972  67.780  1.00  0.00    -0.198 OA 
BRANCH   7   9
HETATM    9  N   UNL     1     -10.448  15.497  66.415  1.00  0.00    -0.298 N  
HETATM   10  C   UNL     1     -10.866  16.029  65.126  1.00  0.00    -0.395 C  
BRANCH   9  11
HETATM   11  C   UNL     1     -10.703  16.371  67.568  1.00  0.00    -0.298 C  
BRANCH  11  12
HETATM   12  C   UNL     1     -10.095  17.735  67.375  1.00  0.00    -0.338 A  
HETATM   13  C   UNL     1     -10.771  18.941  67.430  1.00  0.00    -0.444 A  
HETATM   14  N   UNL     1      -8.715  17.865  67.190  1.00  0.00    -0.238 NA 
HETATM   15  S   UNL     1      -9.684  20.249  67.257  1.00  0.00    -0.464 SA 
HETATM   16  C   UNL     1      -6.348  19.249  65.666  1.00  0.00    -0.263 C  
HETATM   17  C   UNL     1      -8.374  19.137  67.136  1.00  0.00    -0.279 A  
HETATM   18  C   UNL     1      -6.958  19.651  67.007  1.00  0.00    -0.222 C  
HETATM   19  C   UNL     1      -6.092  19.146  68.163  1.00  0.00    -0.232 C  
ENDBRANCH  11  12
ENDBRANCH   9  11
ENDBRANCH   7   9
ENDBRANCH   5   7
ENDBRANCH   3   5
BRANCH   3  20
HETATM   20  C   UNL     1     -10.669  11.058  66.477  1.00  0.00    -0.241 C  
HETATM   21  O   UNL     1     -11.404  10.751  67.414  1.00  0.00    -0.416 OA 
HETATM   22  N   UNL     1      -9.508  10.362  66.201  1.00  0.00    -0.174 N  
HETATM   23  H   UNL     1      -8.867  10.732  65.500  1.00  0.00     0.000 HD 
BRANCH  22  24
HETATM   24  C   UNL     1      -9.168   9.113  66.879  1.00  0.00    -0.148 C  
BRANCH  24  25
HETATM   25  C   UNL     1      -8.005   9.247  67.884  1.00  0.00    -0.100 C  
BRANCH  25  26
HETATM   26  C   UNL     1      -8.242  10.001  69.201  1.00  0.00    -0.137 C  
HETATM   27  H   UNL     1      -7.153  10.480  70.745  1.00  0.00     0.000 HD 
HETATM   28  O   UNL     1      -7.006  10.014  69.931  1.00  0.00    -0.083 OA 
BRANCH  26  29
HETATM   29  C   UNL     1      -9.384   9.465  70.117  1.00  0.00    -0.241 C  
BRANCH  29  30
HETATM   30  N   UNL     1     -10.412  10.467  70.400  1.00  0.00    -0.418 N  
HETATM   31  C   UNL     1     -11.504  10.161  71.167  1.00  0.00    -0.307 C  
HETATM   32  H   UNL     1     -10.314  11.408  70.019  1.00  0.00     0.000 HD 
HETATM   33  O   UNL     1     -11.521   9.292  72.016  1.00  0.00    -0.355 OA 
BRANCH  31  34
HETATM   34  O   UNL     1     -12.557  10.925  70.806  1.00  0.00    -0.340 OA 
BRANCH  34  35
HETATM   35  C   UNL     1     -13.238  11.609  71.878  1.00  0.00    -0.369 C  
BRANCH  35  36
HETATM   36  C   UNL     1     -13.317  13.079  71.626  1.00  0.00    -0.292 A  
HETATM   37  N   UNL     1     -13.959  15.321  71.858  1.00  0.00    -0.496 NA 
HETATM   38  C   UNL     1     -14.105  14.013  72.274  1.00  0.00    -0.535 A  
HETATM   39  C   UNL     1     -13.068  15.368  70.893  1.00  0.00    -0.468 A  
HETATM   40  S   UNL     1     -12.324  13.878  70.479  1.00  0.00    -0.368 SA 
ENDBRANCH  35  36
ENDBRANCH  34  35
ENDBRANCH  31  34
ENDBRANCH  29  30
BRANCH  29  41
HETATM   41  C   UNL     1     -10.015   8.138  69.579  1.00  0.00    -0.187 C  
BRANCH  41  42
HETATM   42  C   UNL     1      -9.538   6.842  70.200  1.00  0.00    -0.165 A  
HETATM   43  C   UNL     1     -10.012   4.661  71.182  1.00  0.00    -0.265 A  
HETATM   44  C   UNL     1     -10.432   5.915  70.750  1.00  0.00    -0.311 A  
HETATM   45  C   UNL     1      -8.178   6.518  70.205  1.00  0.00    -0.129 A  
HETATM   46  C   UNL     1      -7.746   5.266  70.662  1.00  0.00    -0.084 A  
HETATM   47  C   UNL     1      -8.667   4.331  71.133  1.00  0.00    -0.134 A  
ENDBRANCH  41  42
ENDBRANCH  29  41
ENDBRANCH  26  29
ENDBRANCH  25  26
ENDBRANCH  24  25
BRANCH  24  48
HETATM   48  C   UNL     1      -8.966   8.000  65.830  1.00  0.00    -0.181 C  
BRANCH  48  49
HETATM   49  C   UNL     1      -9.168   6.588  66.328  1.00  0.00    -0.160 A  
HETATM   50  C   UNL     1     -10.655   4.815  67.069  1.00  0.00     0.018 A  
HETATM   51  C   UNL     1     -10.459   6.108  66.583  1.00  0.00    -0.267 A  
HETATM   52  C   UNL     1      -9.562   3.989  67.312  1.00  0.00    -0.229 A  
HETATM   53  C   UNL     1      -8.271   4.455  67.069  1.00  0.00    -0.101 A  
HETATM   54  C   UNL     1      -8.072   5.750  66.587  1.00  0.00    -0.102 A  
ENDBRANCH  48  49
ENDBRANCH  24  48
ENDBRANCH  22  24
ENDBRANCH   3  20
TORSDOF 18
ENDMDL
MODEL        2
REMARK 921   NORMALIZED FREE ENERGY PREDICTED BY IDOCK:   -6.41 KCAL/MOL
REMARK 922        TOTAL FREE ENERGY PREDICTED BY IDOCK:  -17.77 KCAL/MOL
REMARK 923 INTER-LIGAND FREE ENERGY PREDICTED BY IDOCK:  -13.77 KCAL/MOL
REMARK 924 INTRA-LIGAND FREE ENERGY PREDICTED BY IDOCK:   -4.00 KCAL/MOL
REMARK 927      BINDING AFFINITY PREDICTED BY RF-SCORE:    0.00 PKD
ROOT
HETATM    1  C   UNL     1      -6.330  12.448  69.750  1.00  0.00    -0.081 C  
HETATM    2  C   UNL     1      -6.677  12.791  68.306  1.00  0.00    -0.087 C  
HETATM    3  C   UNL     1      -8.188  12.976  68.026  1.00  0.00    -0.161 C  
HETATM    4  C   UNL     1      -5.827  13.984  67.851  1.00  0.00    -0.129 C  
ENDROOT
BRANCH   3   5
HETATM    5  N   UNL     1      -8.861  14.083  68.727  1.00  0.00    -0.356 N  
HETATM    6  H   UNL     1      -9.070  13.973  69.719  1.00  0.00     0.000 HD 
BRANCH   5   7
HETATM    7  C   UNL     1      -9.217  15.252  68.112  1.00  0.00    -0.183 C  
HETATM    8  O   UNL     1      -8.623  16.304  68.331  1.00  0.00    -0.185 OA 
BRANCH   7   9
HETATM    9  N   UNL     1     -10.326  15.207  67.291  1.00  0.00    -0.257 N  
HETATM   10  C   UNL     1     -11.717  15.068  67.694  1.00  0.00    -0.262 C  
BRANCH   9  11
HETATM   11  C   UNL     1     -10.102  15.364  65.848  1.00  0.00    -0.345 C  
BRANCH  11  12
HETATM   12  C   UNL     1     -10.695  14.222  65.067  1.00  0.00    -0.420 A  
HETATM   13  C   UNL     1     -11.971  14.178  64.532  1.00  0.00    -0.458 A  
HETATM   14  N   UNL     1      -9.912  13.104  64.761  1.00  0.00    -0.190 NA 
HETATM   15  S   UNL     1     -12.199  12.741  63.636  1.00  0.00    -0.502 SA 
HETATM   16  C   UNL     1      -9.698   9.983  64.529  1.00  0.00    -0.310 C  
HETATM   17  C   UNL     1     -10.583  12.265  63.996  1.00  0.00    -0.400 A  
HETATM   18  C   UNL     1     -10.029  10.981  63.422  1.00  0.00    -0.428 C  
HETATM   19  C   UNL     1      -8.792  11.263  62.565  1.00  0.00    -0.273 C  
ENDBRANCH  11  12
ENDBRANCH   9  11
ENDBRANCH   7   9
ENDBRANCH   5   7
ENDBRANCH   3   5
BRANCH   3  20
HETATM   20  C   UNL     1      -8.964  11.622  68.051  1.00  0.00    -0.176 C  
HETATM   21  O   UNL     1     -10.094  11.477  67.586  1.00  0.00    -0.181 OA 
HETATM   22  N   UNL     1      -8.301  10.595  68.692  1.00  0.00    -0.129 N  
HETATM   23  H   UNL     1      -7.426  10.799  69.174  1.00  0.00     0.000 HD 
BRANCH  22  24
HETATM   24  C   UNL     1      -8.809   9.226  68.704  1.00  0.00    -0.132 C  
BRANCH  24  25
HETATM   25  C   UNL     1      -8.659   8.517  70.066  1.00  0.00    -0.134 C  
BRANCH  25  26
HETATM   26  C   UNL     1      -9.380   9.095  71.291  1.00  0.00    -0.215 C  
HETATM   27  H   UNL     1      -8.931   9.373  73.168  1.00  0.00     0.000 HD 
HETATM   28  O   UNL     1      -8.485   9.015  72.410  1.00  0.00    -0.344 OA 
BRANCH  26  29
HETATM   29  C   UNL     1     -10.746   8.447  71.668  1.00  0.00    -0.265 C  
BRANCH  29  30
HETATM   30  N   UNL     1     -11.835   9.419  71.774  1.00  0.00    -0.384 N  
HETATM   31  C   UNL     1     -12.092  10.304  70.762  1.00  0.00    -0.353 C  
HETATM   32  H   UNL     1     -12.412   9.437  72.615  1.00  0.00     0.000 HD 
HETATM   33  O   UNL     1     -11.819  10.106  69.594  1.00  0.00    -0.164 OA 
BRANCH  31  34
HETATM   34  O   UNL     1     -12.638  11.435  71.258  1.00  0.00    -0.394 OA 
BRANCH  34  35
HETATM   35  C   UNL     1     -12.271  12.660  70.592  1.00  0.00    -0.285 C  
BRANCH  35  36
HETATM   36  C   UNL     1     -12.580  13.854  71.433  1.00  0.00    -0.361 A  
HETATM   37  N   UNL     1     -13.654  15.223  73.003  1.00  0.00    -0.467 NA 
HETATM   38  C   UNL     1     -13.619  14.018  72.331  1.00  0.00    -0.557 A  
HETATM   39  C   UNL     1     -12.647  15.967  72.604  1.00  0.00    -0.470 A  
HETATM   40  S   UNL     1     -11.585  15.250  71.463  1.00  0.00    -0.411 SA 
ENDBRANCH  35  36
ENDBRANCH  34  35
ENDBRANCH  31  34
ENDBRANCH  29  30
BRANCH  29  41
HETATM   41  C   UNL     1     -11.132   7.262  70.722  1.00  0.00    -0.290 C  
BRANCH  41  42
HETATM   42  C   UNL     1     -10.589   5.891  71.070  1.00  0.00    -0.312 A  
HETATM   43  C   UNL     1     -10.370   4.033  72.633  1.00  0.00    -0.229 A  
HETATM   44  C   UNL     1     -10.731   5.346  72.352  1.00  0.00    -0.286 A  
HETATM   45  C   UNL     1      -9.958   5.112  70.097  1.00  0.00    -0.324 A  
HETATM   46  C   UNL     1      -9.568   3.796  70.380  1.00  0.00    -0.262 A  
HETATM   47  C   UNL     1      -9.792   3.252  71.644  1.00  0.00    -0.220 A  
ENDBRANCH  41  42
ENDBRANCH  29  41
ENDBRANCH  26  29
ENDBRANCH  25  26
ENDBRANCH  24  25
BRANCH  24  48
HETATM   48  C   UNL     1      -8.204   8.444  67.519  1.00  0.00    -0.125 C  
BRANCH  48  49
HETATM   49  C   UNL     1      -8.941   7.189  67.119  1.00  0.00    -0.129 A  
HETATM   50  C   UNL     1     -11.032   6.024  66.699  1.00  0.00    -0.229 A  
HETATM   51  C   UNL     1     -10.340   7.185  67.042  1.00  0.00    -0.368 A  
HETATM   52  C   UNL     1     -10.334   4.849  66.436  1.00  0.00    -0.328 A  
HETATM   53  C   UNL     1      -8.942   4.835  66.514  1.00  0.00    -0.112 A  
HETATM   54  C   UNL     1      -8.248   5.996  66.861  1.00  0.00    -0.105 A  
ENDBRANCH  48  49
ENDBRANCH  24  48
ENDBRANCH  22  24
ENDBRANCH   3  20
TORSDOF 18
ENDMDL
MODEL        3
REMARK 921   NORMALIZED FREE ENERGY PREDICTED BY IDOCK:   -6.36 KCAL/MOL
REMARK 922        TOTAL FREE ENERGY PREDICTED BY IDOCK:  -17.67 KCAL/MOL
REMARK 923 INTER-LIGAND FREE ENERGY PREDICTED BY IDOCK:  -14.42 KCAL/MOL
REMARK 924 INTRA-LIGAND FREE ENERGY PREDICTED BY IDOCK:   -3.25 KCAL/MOL
REMARK 927      BINDING AFFINITY PREDICTED BY RF-SCORE:    0.00 PKD
ROOT
HETATM    1  C   UNL     1     -10.776   7.312  67.121  1.00  0.00    -0.413 C  
HETATM    2  C   UNL     1      -9.950   7.477  68.391  1.00  0.00    -0.185 C  
HETATM    3  C   UNL     1     -10.274   8.746  69.217  1.00  0.00    -0.210 C  
HETATM    4  C   UNL     1     -10.023   6.186  69.214  1.00  0.00    -0.196 C  
ENDROOT
BRANCH   3   5
HETATM    5  N   UNL     1     -11.633   8.846  69.773  1.00  0.00    -0.401 N  
HETATM    6  H   UNL     1     -12.425   8.734  69.141  1.00  0.00     0.000 HD 
BRANCH   5   7
HETATM    7  C   UNL     1     -11.885   9.080  71.097  1.00  0.00    -0.301 C  
HETATM    8  O   UNL     1     -11.811  10.208  71.579  1.00  0.00    -0.362 OA 
BRANCH   7   9
HETATM    9  N   UNL     1     -12.150   7.977  71.883  1.00  0.00    -0.301 N  
HETATM   10  C   UNL     1     -13.142   6.941  71.644  1.00  0.00    -0.279 C  
BRANCH   9  11
HETATM   11  C   UNL     1     -11.314   7.784  73.076  1.00  0.00    -0.273 C  
BRANCH  11  12
HETATM   12  C   UNL     1     -10.014   7.104  72.738  1.00  0.00    -0.185 A  
HETATM   13  C   UNL     1      -8.802   7.732  72.512  1.00  0.00    -0.150 A  
HETATM   14  N   UNL     1      -9.945   5.707  72.704  1.00  0.00    -0.172 NA 
HETATM   15  S   UNL     1      -7.564   6.581  72.262  1.00  0.00    -0.096 SA 
HETATM   16  C   UNL     1      -8.884   3.125  71.273  1.00  0.00    -0.137 C  
HETATM   17  C   UNL     1      -8.707   5.311  72.485  1.00  0.00    -0.120 A  
HETATM   18  C   UNL     1      -8.250   3.870  72.447  1.00  0.00    -0.093 C  
HETATM   19  C   UNL     1      -8.573   3.166  73.766  1.00  0.00    -0.074 C  
ENDBRANCH  11  12
ENDBRANCH   9  11
ENDBRANCH   7   9
ENDBRANCH   5   7
ENDBRANCH   3   5
BRANCH   3  20
HETATM   20  C   UNL     1      -9.755  10.048  68.528  1.00  0.00    -0.155 C  
HETATM   21  O   UNL     1      -8.680  10.122  67.936  1.00  0.00    -0.121 OA 
HETATM   22  N   UNL     1     -10.581  11.144  68.683  1.00  0.00    -0.183 N  
HETATM   23  H   UNL     1     -11.395  11.065  69.292  1.00  0.00     0.000 HD 
BRANCH  22  24
HETATM   24  C   UNL     1     -10.329  12.412  68.003  1.00  0.00    -0.216 C  
BRANCH  24  25
HETATM   25  C   UNL     1      -9.838  13.535  68.941  1.00  0.00     0.048 C  
BRANCH  25  26
HETATM   26  C   UNL     1      -9.611  14.940  68.366  1.00  0.00    -0.209 C  
HETATM   27  H   UNL     1      -8.100  16.166  68.244  1.00  0.00     0.000 HD 
HETATM   28  O   UNL     1      -8.240  15.297  68.599  1.00  0.00    -0.141 OA 
BRANCH  26  29
HETATM   29  C   UNL     1     -10.543  16.071  68.897  1.00  0.00    -0.257 C  
BRANCH  29  30
HETATM   30  N   UNL     1     -10.581  17.243  68.022  1.00  0.00    -0.384 N  
HETATM   31  C   UNL     1     -10.533  17.110  66.661  1.00  0.00    -0.259 C  
HETATM   32  H   UNL     1     -10.644  18.175  68.434  1.00  0.00     0.000 HD 
HETATM   33  O   UNL     1     -10.907  16.124  66.057  1.00  0.00    -0.264 OA 
BRANCH  31  34
HETATM   34  O   UNL     1      -9.968  18.203  66.104  1.00  0.00    -0.440 OA 
BRANCH  34  35
HETATM   35  C   UNL     1      -9.505  19.214  67.023  1.00  0.00    -0.316 C  
BRANCH  35  36
HETATM   36  C   UNL     1      -8.070  19.551  66.789  1.00  0.00    -0.292 A  
HETATM   37  N   UNL     1      -6.058  20.753  66.813  1.00  0.00    -0.208 NA 
HETATM   38  C   UNL     1      -7.403  20.716  67.121  1.00  0.00    -0.337 A  
HETATM   39  C   UNL     1      -5.717  19.619  66.241  1.00  0.00    -0.169 A  
HETATM   40  S   UNL     1      -6.958  18.443  66.099  1.00  0.00    -0.282 SA 
ENDBRANCH  35  36
ENDBRANCH  34  35
ENDBRANCH  31  34
ENDBRANCH  29  30
BRANCH  29  41
HETATM   41  C   UNL     1     -11.985  15.559  69.225  1.00  0.00    -0.338 C  
BRANCH  41  42
HETATM   42  C   UNL     1     -12.359  15.432  70.687  1.00  0.00    -0.451 A  
HETATM   43  C   UNL     1     -13.616  14.336  72.465  1.00  0.00    -0.620 A  
HETATM   44  C   UNL     1     -13.374  14.567  71.115  1.00  0.00    -0.415 A  
HETATM   45  C   UNL     1     -11.665  16.156  71.661  1.00  0.00    -0.558 A  
HETATM   46  C   UNL     1     -11.921  15.946  73.022  1.00  0.00    -0.596 A  
HETATM   47  C   UNL     1     -12.884  15.021  73.423  1.00  0.00    -0.652 A  
ENDBRANCH  41  42
ENDBRANCH  29  41
ENDBRANCH  26  29
ENDBRANCH  25  26
ENDBRANCH  24  25
BRANCH  24  48
HETATM   48  C   UNL     1     -11.562  12.795  67.158  1.00  0.00    -0.426 C  
BRANCH  48  49
HETATM   49  C   UNL     1     -11.475  12.464  65.687  1.00  0.00    -0.412 A  
HETATM   50  C   UNL     1     -12.315  12.726  63.422  1.00  0.00    -0.531 A  
HETATM   51  C   UNL     1     -12.369  13.045  64.779  1.00  0.00    -0.490 A  
HETATM   52  C   UNL     1     -11.370  11.815  62.958  1.00  0.00    -0.008 A  
HETATM   53  C   UNL     1     -10.478  11.224  63.851  1.00  0.00    -0.452 A  
HETATM   54  C   UNL     1     -10.534  11.539  65.210  1.00  0.00    -0.336 A  
ENDBRANCH  48  49
ENDBRANCH  24  48
ENDBRANCH  22  24
ENDBRANCH   3  20
TORSDOF 18
ENDMDL
MODEL        4
REMARK 921   NORMALIZED FREE ENERGY PREDICTED BY IDOCK:   -6.33 KCAL/MOL
REMARK 922        TOTAL FREE ENERGY PREDICTED BY IDOCK:  -17.60 KCAL/MOL
REMARK 923 INTER-LIGAND FREE ENERGY PREDICTED BY IDOCK:  -13.80 KCAL/MOL
REMARK 924 INTRA-LIGAND FREE ENERGY PREDICTED BY IDOCK:   -3.80 KCAL/MOL
REMARK 927      BINDING AFFINITY PREDICTED BY RF-SCORE:    0.00 PKD
ROOT
HETATM    1  C   UNL     1     -10.497  11.952  63.890  1.00  0.00    -0.441 C  
HETATM    2  C   UNL     1     -11.478  12.554  64.888  1.00  0.00    -0.367 C  
HETATM    3  C   UNL     1     -10.958  12.635  66.344  1.00  0.00    -0.272 C  
HETATM    4  C   UNL     1     -11.984  13.899  64.351  1.00  0.00    -0.480 C  
ENDROOT
BRANCH   3   5
HETATM    5  N   UNL     1      -9.784  13.491  66.582  1.00  0.00    -0.272 N  
HETATM    6  H   UNL     1      -8.921  13.280  66.083  1.00  0.00     0.000 HD 
BRANCH   5   7
HETATM    7  C   UNL     1      -9.797  14.557  67.439  1.00  0.00    -0.227 C  
HETATM    8  O   UNL     1     -10.847  15.083  67.800  1.00  0.00    -0.268 OA 
BRANCH   7   9
HETATM    9  N   UNL     1      -8.570  15.062  67.819  1.00  0.00    -0.156 N  
HETATM   10  C   UNL     1      -8.035  15.162  69.168  1.00  0.00    -0.205 C  
BRANCH   9  11
HETATM   11  C   UNL     1      -7.667  15.511  66.750  1.00  0.00    -0.076 C  
BRANCH  11  12
HETATM   12  C   UNL     1      -7.624  17.013  66.655  1.00  0.00    -0.263 A  
HETATM   13  C   UNL     1      -6.503  17.779  66.388  1.00  0.00    -0.230 A  
HETATM   14  N   UNL     1      -8.804  17.754  66.767  1.00  0.00    -0.252 NA 
HETATM   15  S   UNL     1      -6.917  19.432  66.269  1.00  0.00    -0.242 SA 
HETATM   16  C   UNL     1     -10.267  20.279  67.919  1.00  0.00    -0.444 C  
HETATM   17  C   UNL     1      -8.567  19.035  66.562  1.00  0.00    -0.311 A  
HETATM   18  C   UNL     1      -9.620  20.120  66.545  1.00  0.00    -0.529 C  
HETATM   19  C   UNL     1     -10.681  19.827  65.482  1.00  0.00    -0.329 C  
ENDBRANCH  11  12
ENDBRANCH   9  11
ENDBRANCH   7   9
ENDBRANCH   5   7
ENDBRANCH   3   5
BRANCH   3  20
HETATM   20  C   UNL     1     -10.891  11.233  67.026  1.00  0.00    -0.280 C  
HETATM   21  O   UNL     1     -11.846  10.705  67.593  1.00  0.00    -0.411 OA 
HETATM   22  N   UNL     1      -9.643  10.640  66.993  1.00  0.00    -0.167 N  
HETATM   23  H   UNL     1      -8.855  11.174  66.627  1.00  0.00     0.000 HD 
BRANCH  22  24
HETATM   24  C   UNL     1      -9.415   9.277  67.463  1.00  0.00    -0.132 C  
BRANCH  24  25
HETATM   25  C   UNL     1      -8.373   9.175  68.597  1.00  0.00    -0.126 C  
BRANCH  25  26
HETATM   26  C   UNL     1      -8.663   9.861  69.939  1.00  0.00    -0.201 C  
HETATM   27  H   UNL     1      -7.734  10.031  71.645  1.00  0.00     0.000 HD 
HETATM   28  O   UNL     1      -7.554   9.607  70.814  1.00  0.00    -0.271 OA 
BRANCH  26  29
HETATM   29  C   UNL     1      -9.992   9.467  70.652  1.00  0.00    -0.284 C  
BRANCH  29  30
HETATM   30  N   UNL     1     -10.921  10.588  70.798  1.00  0.00    -0.338 N  
HETATM   31  C   UNL     1     -12.131  10.426  71.417  1.00  0.00    -0.327 C  
HETATM   32  H   UNL     1     -10.662  11.505  70.433  1.00  0.00     0.000 HD 
HETATM   33  O   UNL     1     -12.362   9.579  72.257  1.00  0.00    -0.299 OA 
BRANCH  31  34
HETATM   34  O   UNL     1     -13.030  11.304  70.923  1.00  0.00    -0.273 OA 
BRANCH  34  35
HETATM   35  C   UNL     1     -12.485  12.501  70.329  1.00  0.00    -0.084 C  
BRANCH  35  36
HETATM   36  C   UNL     1     -12.682  13.688  71.213  1.00  0.00    -0.361 A  
HETATM   37  N   UNL     1     -12.302  15.770  72.220  1.00  0.00    -0.409 NA 
HETATM   38  C   UNL     1     -11.864  14.796  71.346  1.00  0.00    -0.335 A  
HETATM   39  C   UNL     1     -13.443  15.390  72.750  1.00  0.00    -0.538 A  
HETATM   40  S   UNL     1     -14.074  13.895  72.192  1.00  0.00    -0.481 SA 
ENDBRANCH  35  36
ENDBRANCH  34  35
ENDBRANCH  31  34
ENDBRANCH  29  30
BRANCH  29  41
HETATM   41  C   UNL     1     -10.690   8.233  69.987  1.00  0.00    -0.239 C  
BRANCH  41  42
HETATM   42  C   UNL     1     -10.610   6.912  70.724  1.00  0.00    -0.245 A  
HETATM   43  C   UNL     1      -9.465   4.811  71.190  1.00  0.00    -0.218 A  
HETATM   44  C   UNL     1      -9.636   5.955  70.417  1.00  0.00    -0.204 A  
HETATM   45  C   UNL     1     -11.496   6.630  71.767  1.00  0.00    -0.334 A  
HETATM   46  C   UNL     1     -11.346   5.467  72.535  1.00  0.00    -0.286 A  
HETATM   47  C   UNL     1     -10.318   4.567  72.256  1.00  0.00    -0.243 A  
ENDBRANCH  41  42
ENDBRANCH  29  41
ENDBRANCH  26  29
ENDBRANCH  25  26
ENDBRANCH  24  25
BRANCH  24  48
HETATM   48  C   UNL     1      -9.121   8.361  66.257  1.00  0.00    -0.241 C  
BRANCH  48  49
HETATM   49  C   UNL     1      -9.195   6.878  66.529  1.00  0.00    -0.195 A  
HETATM   50  C   UNL     1      -8.108   4.708  66.650  1.00  0.00    -0.103 A  
HETATM   51  C   UNL     1      -8.045   6.083  66.427  1.00  0.00    -0.110 A  
HETATM   52  C   UNL     1      -9.323   4.108  66.970  1.00  0.00    -0.195 A  
HETATM   53  C   UNL     1     -10.476   4.884  67.069  1.00  0.00    -0.164 A  
HETATM   54  C   UNL     1     -10.416   6.261  66.842  1.00  0.00    -0.337 A  
ENDBRANCH  48  49
ENDBRANCH  24  48
ENDBRANCH  22  24
ENDBRANCH   3  20
TORSDOF 18
ENDMDL
MODEL        5
REMARK 921   NORMALIZED FREE ENERGY PREDICTED BY IDOCK:   -6.26 KCAL/MOL
REMARK 922        TOTAL FREE ENERGY PREDICTED BY IDOCK:  -17.46 KCAL/MOL
REMARK 923 INTER-LIGAND FREE ENERGY PREDICTED BY IDOCK:  -14.02 KCAL/MOL
REMARK 924 INTRA-LIGAND FREE ENERGY PREDICTED BY IDOCK:   -3.44 KCAL/MOL
REMARK 927      BINDING AFFINITY PREDICTED BY RF-SCORE:    0.00 PKD
ROOT
HETATM    1  C   UNL     1      -7.774  10.497  66.651  1.00  0.00    -0.123 C  
HETATM    2  C   UNL     1      -9.184   9.927  66.544  1.00  0.00    -0.190 C  
HETATM    3  C   UNL     1     -10.320  10.969  66.694  1.00  0.00    -0.240 C  
HETATM    4  C   UNL     1      -9.295   9.092  65.262  1.00  0.00    -0.224 C  
ENDROOT
BRANCH   3   5
HETATM    5  N   UNL     1     -10.386  12.028  65.674  1.00  0.00    -0.244 N  
HETATM    6  H   UNL     1      -9.549  12.230  65.129  1.00  0.00     0.000 HD 
BRANCH   5   7
HETATM    7  C   UNL     1     -11.518  12.755  65.423  1.00  0.00    -0.327 C  
HETATM    8  O   UNL     1     -12.639  12.267  65.544  1.00  0.00    -0.548 OA 
BRANCH   7   9
HETATM    9  N   UNL     1     -11.338  14.039  64.951  1.00  0.00    -0.339 N  
HETATM   10  C   UNL     1     -12.296  14.853  64.219  1.00  0.00    -0.277 C  
BRANCH   9  11
HETATM   11  C   UNL     1     -10.058  14.694  65.254  1.00  0.00    -0.360 C  
BRANCH  11  12
HETATM   12  C   UNL     1     -10.242  15.875  66.169  1.00  0.00    -0.324 A  
HETATM   13  C   UNL     1     -10.614  15.822  67.501  1.00  0.00    -0.309 A  
HETATM   14  N   UNL     1      -9.959  17.166  65.710  1.00  0.00    -0.567 NA 
HETATM   15  S   UNL     1     -10.605  17.385  68.192  1.00  0.00    -0.348 SA 
HETATM   16  C   UNL     1     -10.773  20.193  65.594  1.00  0.00    -0.242 C  
HETATM   17  C   UNL     1     -10.091  18.043  66.685  1.00  0.00    -0.372 A  
HETATM   18  C   UNL     1      -9.805  19.522  66.566  1.00  0.00    -0.498 C  
HETATM   19  C   UNL     1      -8.357  19.759  66.130  1.00  0.00    -0.368 C  
ENDBRANCH  11  12
ENDBRANCH   9  11
ENDBRANCH   7   9
ENDBRANCH   5   7
ENDBRANCH   3   5
BRANCH   3  20
HETATM   20  C   UNL     1     -10.471  11.470  68.165  1.00  0.00    -0.193 C  
HETATM   21  O   UNL     1      -9.856  12.432  68.622  1.00  0.00    -0.178 OA 
HETATM   22  N   UNL     1     -11.320  10.708  68.944  1.00  0.00    -0.272 N  
HETATM   23  H   UNL     1     -11.704   9.846  68.556  1.00  0.00     0.000 HD 
BRANCH  22  24
HETATM   24  C   UNL     1     -11.688  11.094  70.303  1.00  0.00    -0.341 C  
BRANCH  24  25
HETATM   25  C   UNL     1     -11.948   9.897  71.242  1.00  0.00    -0.489 C  
BRANCH  25  26
HETATM   26  C   UNL     1     -10.755   9.075  71.749  1.00  0.00    -0.367 C  
HETATM   27  H   UNL     1      -8.879   8.892  71.253  1.00  0.00     0.000 HD 
HETATM   28  O   UNL     1      -9.617   9.401  70.940  1.00  0.00    -0.267 OA 
BRANCH  26  29
HETATM   29  C   UNL     1     -10.942   7.527  71.791  1.00  0.00    -0.234 C  
BRANCH  29  30
HETATM   30  N   UNL     1     -10.113   6.822  70.812  1.00  0.00    -0.191 N  
HETATM   31  C   UNL     1     -10.678   6.162  69.754  1.00  0.00    -0.310 C  
HETATM   32  H   UNL     1      -9.099   6.823  70.920  1.00  0.00     0.000 HD 
HETATM   33  O   UNL     1     -11.753   6.448  69.265  1.00  0.00    -0.277 OA 
BRANCH  31  34
HETATM   34  O   UNL     1      -9.895   5.129  69.377  1.00  0.00    -0.163 OA 
BRANCH  34  35
HETATM   35  C   UNL     1      -9.901   4.812  67.970  1.00  0.00    -0.126 C  
BRANCH  35  36
HETATM   36  C   UNL     1      -8.737   5.429  67.265  1.00  0.00    -0.107 A  
HETATM   37  N   UNL     1      -7.319   6.093  65.522  1.00  0.00    -0.077 NA 
HETATM   38  C   UNL     1      -8.455   5.415  65.912  1.00  0.00    -0.127 A  
HETATM   39  C   UNL     1      -6.742   6.609  66.585  1.00  0.00    -0.056 A  
HETATM   40  S   UNL     1      -7.552   6.364  68.077  1.00  0.00    -0.104 SA 
ENDBRANCH  35  36
ENDBRANCH  34  35
ENDBRANCH  31  34
ENDBRANCH  29  30
BRANCH  29  41
HETATM   41  C   UNL     1     -10.752   6.936  73.227  1.00  0.00    -0.349 C  
BRANCH  41  42
HETATM   42  C   UNL     1     -10.238   5.515  73.329  1.00  0.00    -0.216 A  
HETATM   43  C   UNL     1     -10.611   3.110  73.183  1.00  0.00    -0.261 A  
HETATM   44  C   UNL     1     -11.096   4.412  73.243  1.00  0.00    -0.368 A  
HETATM   45  C   UNL     1      -8.870   5.267  73.474  1.00  0.00    -0.116 A  
HETATM   46  C   UNL     1      -8.376   3.956  73.440  1.00  0.00    -0.088 A  
HETATM   47  C   UNL     1      -9.247   2.879  73.276  1.00  0.00    -0.103 A  
ENDBRANCH  41  42
ENDBRANCH  29  41
ENDBRANCH  26  29
ENDBRANCH  25  26
ENDBRANCH  24  25
BRANCH  24  48
HETATM   48  C   UNL     1     -12.844  12.114  70.251  1.00  0.00     0.257 C  
BRANCH  48  49
HETATM   49  C   UNL     1     -12.653  13.361  71.082  1.00  0.00    -0.430 A  
HETATM   50  C   UNL     1     -11.531  15.484  71.456  1.00  0.00    -0.489 A  
HETATM   51  C   UNL     1     -11.734  14.341  70.683  1.00  0.00    -0.287 A  
HETATM   52  C   UNL     1     -12.239  15.658  72.643  1.00  0.00    -0.541 A  
HETATM   53  C   UNL     1     -13.152  14.689  73.055  1.00  0.00    -0.616 A  
HETATM   54  C   UNL     1     -13.353  13.542  72.285  1.00  0.00    -0.628 A  
ENDBRANCH  48  49
ENDBRANCH  24  48
ENDBRANCH  22  24
ENDBRANCH   3  20
TORSDOF 18
ENDMDL
MODEL        6
REMARK 921   NORMALIZED FREE ENERGY PREDICTED BY IDOCK:   -6.24 KCAL/MOL
REMARK 922        TOTAL FREE ENERGY PREDICTED BY IDOCK:  -17.43 KCAL/MOL
REMARK 923 INTER-LIGAND FREE ENERGY PREDICTED BY IDOCK:  -14.10 KCAL/MOL
REMARK 924 INTRA-LIGAND FREE ENERGY PREDICTED BY IDOCK:   -3.32 KCAL/MOL
REMARK 927      BINDING AFFINITY PREDICTED BY RF-SCORE:    0.00 PKD
ROOT
HETATM    1  C   UNL     1      -7.858  10.250  66.880  1.00  0.00    -0.112 C  
HETATM    2  C   UNL     1      -9.247   9.631  66.777  1.00  0.00    -0.181 C  
HETATM    3  C   UNL     1     -10.415  10.605  67.065  1.00  0.00    -0.243 C  
HETATM    4  C   UNL     1      -9.380   8.908  65.432  1.00  0.00    -0.158 C  
ENDROOT
BRANCH   3   5
HETATM    5  N   UNL     1     -10.569  11.747  66.147  1.00  0.00    -0.251 N  
HETATM    6  H   UNL     1      -9.931  11.820  65.355  1.00  0.00     0.000 HD 
BRANCH   5   7
HETATM    7  C   UNL     1     -11.524  12.712  66.306  1.00  0.00    -0.364 C  
HETATM    8  O   UNL     1     -12.474  12.561  67.071  1.00  0.00    -0.252 OA 
BRANCH   7   9
HETATM    9  N   UNL     1     -11.412  13.833  65.509  1.00  0.00    -0.307 N  
HETATM   10  C   UNL     1     -12.428  14.399  64.634  1.00  0.00    -0.345 C  
BRANCH   9  11
HETATM   11  C   UNL     1     -10.149  14.580  65.572  1.00  0.00    -0.366 C  
BRANCH  11  12
HETATM   12  C   UNL     1     -10.264  15.790  66.461  1.00  0.00    -0.286 A  
HETATM   13  C   UNL     1     -10.824  15.821  67.726  1.00  0.00    -0.316 A  
HETATM   14  N   UNL     1      -9.711  17.009  66.056  1.00  0.00    -0.483 NA 
HETATM   15  S   UNL     1     -10.657  17.372  68.422  1.00  0.00    -0.318 SA 
HETATM   16  C   UNL     1      -9.993  20.126  65.846  1.00  0.00    -0.415 C  
HETATM   17  C   UNL     1      -9.834  17.912  67.008  1.00  0.00    -0.314 A  
HETATM   18  C   UNL     1      -9.295  19.323  66.942  1.00  0.00    -0.371 C  
HETATM   19  C   UNL     1      -7.782  19.312  66.718  1.00  0.00    -0.267 C  
ENDBRANCH  11  12
ENDBRANCH   9  11
ENDBRANCH   7   9
ENDBRANCH   5   7
ENDBRANCH   3   5
BRANCH   3  20
HETATM   20  C   UNL     1     -10.523  10.969  68.580  1.00  0.00    -0.189 C  
HETATM   21  O   UNL     1      -9.714  11.686  69.166  1.00  0.00     0.006 OA 
HETATM   22  N   UNL     1     -11.581  10.372  69.237  1.00  0.00    -0.423 N  
HETATM   23  H   UNL     1     -12.145   9.684  68.738  1.00  0.00     0.000 HD 
BRANCH  22  24
HETATM   24  C   UNL     1     -11.920  10.692  70.621  1.00  0.00    -0.367 C  
BRANCH  24  25
HETATM   25  C   UNL     1     -12.077   9.452  71.526  1.00  0.00    -0.456 C  
BRANCH  25  26
HETATM   26  C   UNL     1     -10.823   8.682  71.960  1.00  0.00    -0.360 C  
HETATM   27  H   UNL     1      -8.903   8.874  71.676  1.00  0.00     0.000 HD 
HETATM   28  O   UNL     1      -9.680   9.351  71.408  1.00  0.00    -0.236 OA 
BRANCH  26  29
HETATM   29  C   UNL     1     -10.770   7.168  71.592  1.00  0.00    -0.212 C  
BRANCH  29  30
HETATM   30  N   UNL     1     -11.137   6.292  72.706  1.00  0.00    -0.269 N  
HETATM   31  C   UNL     1     -10.363   6.220  73.832  1.00  0.00    -0.306 C  
HETATM   32  H   UNL     1     -11.984   5.727  72.641  1.00  0.00     0.000 HD 
HETATM   33  O   UNL     1      -9.640   7.115  74.223  1.00  0.00    -0.257 OA 
BRANCH  31  34
HETATM   34  O   UNL     1     -10.483   5.003  74.404  1.00  0.00    -0.268 OA 
BRANCH  34  35
HETATM   35  C   UNL     1      -9.273   4.221  74.488  1.00  0.00    -0.102 C  
BRANCH  35  36
HETATM   36  C   UNL     1      -9.079   3.379  73.271  1.00  0.00    -0.097 A  
HETATM   37  N   UNL     1      -9.563   1.914  71.507  1.00  0.00    -0.127 NA 
HETATM   38  C   UNL     1     -10.003   2.564  72.642  1.00  0.00    -0.147 A  
HETATM   39  C   UNL     1      -8.307   2.234  71.288  1.00  0.00    -0.057 A  
HETATM   40  S   UNL     1      -7.614   3.362  72.380  1.00  0.00    -0.059 SA 
ENDBRANCH  35  36
ENDBRANCH  34  35
ENDBRANCH  31  34
ENDBRANCH  29  30
BRANCH  29  41
HETATM   41  C   UNL     1     -11.598   6.831  70.307  1.00  0.00    -0.417 C  
BRANCH  41  42
HETATM   42  C   UNL     1     -10.885   6.082  69.201  1.00  0.00    -0.422 A  
HETATM   43  C   UNL     1      -9.566   4.178  68.439  1.00  0.00    -0.190 A  
HETATM   44  C   UNL     1     -10.096   4.955  69.464  1.00  0.00    -0.286 A  
HETATM   45  C   UNL     1     -11.032   6.479  67.869  1.00  0.00    -0.382 A  
HETATM   46  C   UNL     1     -10.480   5.714  66.832  1.00  0.00    -0.349 A  
HETATM   47  C   UNL     1      -9.762   4.553  67.119  1.00  0.00    -0.227 A  
ENDBRANCH  41  42
ENDBRANCH  29  41
ENDBRANCH  26  29
ENDBRANCH  25  26
ENDBRANCH  24  25
BRANCH  24  48
HETATM   48  C   UNL     1     -13.133  11.645  70.644  1.00  0.00     0.186 C  
BRANCH  48  49
HETATM   49  C   UNL     1     -12.876  13.016  71.221  1.00  0.00    -0.370 A  
HETATM   50  C   UNL     1     -13.477  14.790  72.770  1.00  0.00    -0.572 A  
HETATM   51  C   UNL     1     -13.689  13.514  72.249  1.00  0.00    -0.700 A  
HETATM   52  C   UNL     1     -12.454  15.588  72.266  1.00  0.00    -0.477 A  
HETATM   53  C   UNL     1     -11.641  15.109  71.240  1.00  0.00    -0.406 A  
HETATM   54  C   UNL     1     -11.854  13.834  70.713  1.00  0.00    -0.215 A  
ENDBRANCH  48  49
ENDBRANCH  24  48
ENDBRANCH  22  24
ENDBRANCH   3  20
TORSDOF 18
ENDMDL
MODEL        7
REMARK 921   NORMALIZED FREE ENERGY PREDICTED BY IDOCK:   -6.21 KCAL/MOL
REMARK 922        TOTAL FREE ENERGY PREDICTED BY IDOCK:  -17.36 KCAL/MOL
REMARK 923 INTER-LIGAND FREE ENERGY PREDICTED BY IDOCK:  -14.16 KCAL/MOL
REMARK 924 INTRA-LIGAND FREE ENERGY PREDICTED BY IDOCK:   -3.20 KCAL/MOL
REMARK 927      BINDING AFFINITY PREDICTED BY RF-SCORE:    0.00 PKD
ROOT
HETATM    1  C   UNL     1     -12.523  11.897  63.307  1.00  0.00    -0.506 C  
HETATM    2  C   UNL     1     -11.175  12.261  63.917  1.00  0.00    -0.488 C  
HETATM    3  C   UNL     1     -11.059  12.003  65.440  1.00  0.00    -0.320 C  
HETATM    4  C   UNL     1     -10.056  11.596  63.105  1.00  0.00    -0.409 C  
ENDROOT
BRANCH   3   5
HETATM    5  N   UNL     1     -11.180  10.605  65.886  1.00  0.00     0.287 N  
HETATM    6  H   UNL     1     -11.633   9.935  65.265  1.00  0.00     0.000 HD 
BRANCH   5   7
HETATM    7  C   UNL     1     -10.715  10.162  67.094  1.00  0.00    -0.221 C  
HETATM    8  O   UNL     1     -11.218  10.527  68.153  1.00  0.00    -0.282 OA 
BRANCH   7   9
HETATM    9  N   UNL     1      -9.602   9.345  67.068  1.00  0.00    -0.151 N  
HETATM   10  C   UNL     1      -8.944   8.787  65.897  1.00  0.00    -0.195 C  
BRANCH   9  11
HETATM   11  C   UNL     1      -8.968   9.031  68.355  1.00  0.00    -0.133 C  
BRANCH  11  12
HETATM   12  C   UNL     1      -9.602   7.831  69.007  1.00  0.00    -0.155 A  
HETATM   13  C   UNL     1      -9.350   6.507  68.694  1.00  0.00    -0.125 A  
HETATM   14  N   UNL     1     -10.481   8.002  70.081  1.00  0.00    -0.220 NA 
HETATM   15  S   UNL     1     -10.204   5.466  69.745  1.00  0.00    -0.298 SA 
HETATM   16  C   UNL     1     -13.152   7.167  71.500  1.00  0.00    -0.427 C  
HETATM   17  C   UNL     1     -10.850   6.834  70.568  1.00  0.00    -0.258 A  
HETATM   18  C   UNL     1     -11.745   6.638  71.771  1.00  0.00    -0.363 C  
HETATM   19  C   UNL     1     -11.146   7.315  73.005  1.00  0.00    -0.361 C  
ENDBRANCH  11  12
ENDBRANCH   9  11
ENDBRANCH   7   9
ENDBRANCH   5   7
ENDBRANCH   3   5
BRANCH   3  20
HETATM   20  C   UNL     1     -11.886  13.028  66.277  1.00  0.00    -0.408 C  
HETATM   21  O   UNL     1     -12.977  13.472  65.925  1.00  0.00    -0.302 OA 
HETATM   22  N   UNL     1     -11.266  13.450  67.438  1.00  0.00    -0.278 N  
HETATM   23  H   UNL     1     -10.308  13.153  67.620  1.00  0.00     0.000 HD 
BRANCH  22  24
HETATM   24  C   UNL     1     -11.937  14.305  68.413  1.00  0.00    -0.309 C  
BRANCH  24  25
HETATM   25  C   UNL     1     -11.564  15.797  68.294  1.00  0.00    -0.302 C  
BRANCH  25  26
HETATM   26  C   UNL     1     -10.244  16.183  67.611  1.00  0.00    -0.265 C  
HETATM   27  H   UNL     1      -9.482  15.963  65.830  1.00  0.00     0.000 HD 
HETATM   28  O   UNL     1     -10.299  15.724  66.252  1.00  0.00    -0.285 OA 
BRANCH  26  29
HETATM   29  C   UNL     1      -8.934  15.672  68.283  1.00  0.00    -0.181 C  
BRANCH  29  30
HETATM   30  N   UNL     1      -8.184  14.737  67.444  1.00  0.00    -0.182 N  
HETATM   31  C   UNL     1      -8.039  13.425  67.805  1.00  0.00    -0.173 C  
HETATM   32  H   UNL     1      -7.762  15.069  66.577  1.00  0.00     0.000 HD 
HETATM   33  O   UNL     1      -8.822  12.820  68.511  1.00  0.00    -0.145 OA 
BRANCH  31  34
HETATM   34  O   UNL     1      -6.887  12.928  67.308  1.00  0.00    -0.150 OA 
BRANCH  34  35
HETATM   35  C   UNL     1      -5.672  13.511  67.822  1.00  0.00    -0.099 C  
BRANCH  35  36
HETATM   36  C   UNL     1      -5.581  13.369  69.306  1.00  0.00    -0.079 A  
HETATM   37  N   UNL     1      -5.432  12.361  71.416  1.00  0.00    -0.385 NA 
HETATM   38  C   UNL     1      -5.549  12.204  70.050  1.00  0.00    -0.124 A  
HETATM   39  C   UNL     1      -5.385  13.644  71.698  1.00  0.00    -0.205 A  
HETATM   40  S   UNL     1      -5.417  14.713  70.357  1.00  0.00    -0.136 SA 
ENDBRANCH  35  36
ENDBRANCH  34  35
ENDBRANCH  31  34
ENDBRANCH  29  30
BRANCH  29  41
HETATM   41  C   UNL     1      -8.022  16.839  68.790  1.00  0.00    -0.250 C  
BRANCH  41  42
HETATM   42  C   UNL     1      -7.813  18.012  67.854  1.00  0.00    -0.235 A  
HETATM   43  C   UNL     1      -7.944  20.401  67.390  1.00  0.00    -0.361 A  
HETATM   44  C   UNL     1      -8.267  19.298  68.173  1.00  0.00    -0.354 A  
HETATM   45  C   UNL     1      -7.120  17.843  66.653  1.00  0.00    -0.254 A  
HETATM   46  C   UNL     1      -6.813  18.948  65.846  1.00  0.00    -0.304 A  
HETATM   47  C   UNL     1      -7.211  20.229  66.226  1.00  0.00    -0.302 A  
ENDBRANCH  41  42
ENDBRANCH  29  41
ENDBRANCH  26  29
ENDBRANCH  25  26
ENDBRANCH  24  25
BRANCH  24  48
HETATM   48  C   UNL     1     -11.741  13.720  69.827  1.00  0.00    -0.367 C  
BRANCH  48  49
HETATM   49  C   UNL     1     -12.352  14.518  70.955  1.00  0.00    -0.417 A  
HETATM   50  C   UNL     1     -12.084  15.936  72.910  1.00  0.00    -0.612 A  
HETATM   51  C   UNL     1     -11.532  15.218  71.850  1.00  0.00    -0.504 A  
HETATM   52  C   UNL     1     -13.464  15.956  73.095  1.00  0.00    -0.650 A  
HETATM   53  C   UNL     1     -14.293  15.259  72.216  1.00  0.00    -0.586 A  
HETATM   54  C   UNL     1     -13.741  14.536  71.157  1.00  0.00    -0.333 A  
ENDBRANCH  48  49
ENDBRANCH  24  48
ENDBRANCH  22  24
ENDBRANCH   3  20
TORSDOF 18
ENDMDL
MODEL        8
REMARK 921   NORMALIZED FREE ENERGY PREDICTED BY IDOCK:   -6.04 KCAL/MOL
REMARK 922        TOTAL FREE ENERGY PREDICTED BY IDOCK:  -17.01 KCAL/MOL
REMARK 923 INTER-LIGAND FREE ENERGY PREDICTED BY IDOCK:  -13.04 KCAL/MOL
REMARK 924 INTRA-LIGAND FREE ENERGY PREDICTED BY IDOCK:   -3.96 KCAL/MOL
REMARK 927      BINDING AFFINITY PREDICTED BY RF-SCORE:    0.00 PKD
ROOT
HETATM    1  C   UNL     1     -13.053  10.781  71.702  1.00  0.00    -0.551 C  
HETATM    2  C   UNL     1     -12.979   9.373  71.123  1.00  0.00    -0.307 C  
HETATM    3  C   UNL     1     -11.586   8.703  71.216  1.00  0.00    -0.284 C  
HETATM    4  C   UNL     1     -14.102   8.519  71.725  1.00  0.00    -0.515 C  
ENDROOT
BRANCH   3   5
HETATM    5  N   UNL     1     -11.057   8.459  72.569  1.00  0.00    -0.361 N  
HETATM    6  H   UNL     1     -11.441   8.998  73.344  1.00  0.00     0.000 HD 
BRANCH   5   7
HETATM    7  C   UNL     1     -10.077   7.543  72.835  1.00  0.00    -0.261 C  
HETATM    8  O   UNL     1      -8.961   7.885  73.220  1.00  0.00    -0.207 OA 
BRANCH   7   9
HETATM    9  N   UNL     1     -10.377   6.221  72.576  1.00  0.00    -0.188 N  
HETATM   10  C   UNL     1     -11.585   5.500  72.947  1.00  0.00    -0.218 C  
BRANCH   9  11
HETATM   11  C   UNL     1      -9.399   5.449  71.798  1.00  0.00    -0.146 C  
BRANCH  11  12
HETATM   12  C   UNL     1      -9.528   5.717  70.322  1.00  0.00    -0.161 A  
HETATM   13  C   UNL     1     -10.691   5.624  69.577  1.00  0.00    -0.310 A  
HETATM   14  N   UNL     1      -8.423   6.172  69.595  1.00  0.00    -0.126 NA 
HETATM   15  S   UNL     1     -10.413   6.112  67.963  1.00  0.00    -0.257 SA 
HETATM   16  C   UNL     1      -6.717   6.025  66.966  1.00  0.00    -0.058 C  
HETATM   17  C   UNL     1      -8.766   6.435  68.349  1.00  0.00    -0.113 A  
HETATM   18  C   UNL     1      -7.842   7.004  67.297  1.00  0.00    -0.110 C  
HETATM   19  C   UNL     1      -7.267   8.347  67.752  1.00  0.00    -0.088 C  
ENDBRANCH  11  12
ENDBRANCH   9  11
ENDBRANCH   7   9
ENDBRANCH   5   7
ENDBRANCH   3   5
BRANCH   3  20
HETATM   20  C   UNL     1     -10.561   9.331  70.220  1.00  0.00    -0.235 C  
HETATM   21  O   UNL     1      -9.384   9.549  70.503  1.00  0.00    -0.252 OA 
HETATM   22  N   UNL     1     -11.094   9.678  68.994  1.00  0.00    -0.422 N  
HETATM   23  H   UNL     1     -12.101   9.597  68.855  1.00  0.00     0.000 HD 
BRANCH  22  24
HETATM   24  C   UNL     1     -10.266  10.156  67.890  1.00  0.00    -0.180 C  
BRANCH  24  25
HETATM   25  C   UNL     1     -10.188  11.694  67.792  1.00  0.00    -0.202 C  
BRANCH  25  26
HETATM   26  C   UNL     1      -8.813  12.362  67.650  1.00  0.00    -0.177 C  
HETATM   27  H   UNL     1      -7.143  12.340  68.657  1.00  0.00     0.000 HD 
HETATM   28  O   UNL     1      -7.994  11.926  68.744  1.00  0.00    -0.123 OA 
BRANCH  26  29
HETATM   29  C   UNL     1      -8.798  13.919  67.574  1.00  0.00    -0.196 C  
BRANCH  29  30
HETATM   30  N   UNL     1      -9.871  14.543  68.350  1.00  0.00    -0.221 N  
HETATM   31  C   UNL     1     -10.962  15.091  67.732  1.00  0.00    -0.298 C  
HETATM   32  H   UNL     1      -9.804  14.569  69.368  1.00  0.00     0.000 HD 
HETATM   33  O   UNL     1     -11.379  14.742  66.645  1.00  0.00    -0.345 OA 
BRANCH  31  34
HETATM   34  O   UNL     1     -11.466  16.096  68.479  1.00  0.00    -0.376 OA 
BRANCH  34  35
HETATM   35  C   UNL     1     -10.504  17.024  69.022  1.00  0.00    -0.337 C  
BRANCH  35  36
HETATM   36  C   UNL     1     -10.296  18.191  68.115  1.00  0.00    -0.379 A  
HETATM   37  N   UNL     1     -10.230  19.469  66.151  1.00  0.00    -0.465 NA 
HETATM   38  C   UNL     1     -10.466  18.245  66.743  1.00  0.00    -0.365 A  
HETATM   39  C   UNL     1      -9.874  20.332  67.077  1.00  0.00    -0.467 A  
HETATM   40  S   UNL     1      -9.862  19.747  68.690  1.00  0.00    -0.357 SA 
ENDBRANCH  35  36
ENDBRANCH  34  35
ENDBRANCH  31  34
ENDBRANCH  29  30
BRANCH  29  41
HETATM   41  C   UNL     1      -7.404  14.527  67.941  1.00  0.00    -0.166 C  
BRANCH  41  42
HETATM   42  C   UNL     1      -7.197  16.002  67.667  1.00  0.00    -0.175 A  
HETATM   43  C   UNL     1      -6.497  18.218  68.405  1.00  0.00    -0.208 A  
HETATM   44  C   UNL     1      -6.834  16.897  68.681  1.00  0.00    -0.183 A  
HETATM   45  C   UNL     1      -7.328  16.506  66.369  1.00  0.00    -0.144 A  
HETATM   46  C   UNL     1      -7.013  17.842  66.088  1.00  0.00    -0.338 A  
HETATM   47  C   UNL     1      -6.580  18.692  67.105  1.00  0.00    -0.204 A  
ENDBRANCH  41  42
ENDBRANCH  29  41
ENDBRANCH  26  29
ENDBRANCH  25  26
ENDBRANCH  24  25
BRANCH  24  48
HETATM   48  C   UNL     1     -10.705   9.465  66.583  1.00  0.00    -0.076 C  
BRANCH  48  49
HETATM   49  C   UNL     1     -10.160  10.066  65.310  1.00  0.00    -0.299 A  
HETATM   50  C   UNL     1     -10.352  11.668  63.493  1.00  0.00    -0.488 A  
HETATM   51  C   UNL     1     -10.833  11.124  64.683  1.00  0.00    -0.295 A  
HETATM   52  C   UNL     1      -9.196  11.158  62.910  1.00  0.00    -0.359 A  
HETATM   53  C   UNL     1      -8.519  10.102  63.518  1.00  0.00    -0.186 A  
HETATM   54  C   UNL     1      -9.001   9.552  64.707  1.00  0.00    -0.263 A  
ENDBRANCH  48  49
ENDBRANCH  24  48
ENDBRANCH  22  24
ENDBRANCH   3  20
TORSDOF 18
ENDMDL
MODEL        9
REMARK 921   NORMALIZED FREE ENERGY PREDICTED BY IDOCK:   -6.03 KCAL/MOL
REMARK 922        TOTAL FREE ENERGY PREDICTED BY IDOCK:  -16.99 KCAL/MOL
REMARK 923 INTER-LIGAND FREE ENERGY PREDICTED BY IDOCK:  -12.96 KCAL/MOL
REMARK 924 INTRA-LIGAND FREE ENERGY PREDICTED BY IDOCK:   -4.03 KCAL/MOL
REMARK 927      BINDING AFFINITY PREDICTED BY RF-SCORE:    0.00 PKD
ROOT
HETATM    1  C   UNL     1     -12.643  11.709  71.291  1.00  0.00    -0.425 C  
HETATM    2  C   UNL     1     -12.736  10.326  70.658  1.00  0.00    -0.382 C  
HETATM    3  C   UNL     1     -11.417   9.515  70.671  1.00  0.00    -0.297 C  
HETATM    4  C   UNL     1     -13.918   9.566  71.273  1.00  0.00    -0.075 C  
ENDROOT
BRANCH   3   5
HETATM    5  N   UNL     1     -10.868   9.162  71.991  1.00  0.00    -0.297 N  
HETATM    6  H   UNL     1     -11.019   9.807  72.767  1.00  0.00     0.000 HD 
BRANCH   5   7
HETATM    7  C   UNL     1     -10.167   8.012  72.228  1.00  0.00    -0.260 C  
HETATM    8  O   UNL     1      -9.019   8.035  72.665  1.00  0.00    -0.173 OA 
BRANCH   7   9
HETATM    9  N   UNL     1     -10.783   6.827  71.879  1.00  0.00    -0.221 N  
HETATM   10  C   UNL     1     -12.156   6.433  72.149  1.00  0.00    -0.268 C  
BRANCH   9  11
HETATM   11  C   UNL     1      -9.992   5.861  71.105  1.00  0.00    -0.189 C  
BRANCH  11  12
HETATM   12  C   UNL     1      -9.923   6.240  69.649  1.00  0.00    -0.165 A  
HETATM   13  C   UNL     1     -11.002   6.416  68.802  1.00  0.00    -0.334 A  
HETATM   14  N   UNL     1      -8.686   6.521  69.059  1.00  0.00    -0.128 NA 
HETATM   15  S   UNL     1     -10.481   6.941  67.262  1.00  0.00    -0.327 SA 
HETATM   16  C   UNL     1      -6.783   6.215  66.583  1.00  0.00    -0.060 C  
HETATM   17  C   UNL     1      -8.849   6.921  67.813  1.00  0.00    -0.119 A  
HETATM   18  C   UNL     1      -7.736   7.368  66.893  1.00  0.00    -0.110 C  
HETATM   19  C   UNL     1      -6.973   8.546  67.501  1.00  0.00    -0.079 C  
ENDBRANCH  11  12
ENDBRANCH   9  11
ENDBRANCH   7   9
ENDBRANCH   5   7
ENDBRANCH   3   5
BRANCH   3  20
HETATM   20  C   UNL     1     -10.369  10.074  69.658  1.00  0.00    -0.247 C  
HETATM   21  O   UNL     1      -9.160   9.869  69.748  1.00  0.00    -0.212 OA 
HETATM   22  N   UNL     1     -10.903  10.875  68.667  1.00  0.00    -0.200 N  
HETATM   23  H   UNL     1     -11.891  11.120  68.712  1.00  0.00     0.000 HD 
BRANCH  22  24
HETATM   24  C   UNL     1     -10.100  11.382  67.558  1.00  0.00    -0.183 C  
BRANCH  24  25
HETATM   25  C   UNL     1      -9.423  12.737  67.847  1.00  0.00    -0.208 C  
BRANCH  25  26
HETATM   26  C   UNL     1     -10.203  13.811  68.617  1.00  0.00    -0.208 C  
HETATM   27  H   UNL     1     -12.073  14.350  68.746  1.00  0.00     0.000 HD 
HETATM   28  O   UNL     1     -11.590  13.685  68.270  1.00  0.00    -0.295 OA 
BRANCH  26  29
HETATM   29  C   UNL     1      -9.746  15.288  68.413  1.00  0.00    -0.213 C  
BRANCH  29  30
HETATM   30  N   UNL     1      -8.375  15.402  67.914  1.00  0.00    -0.141 N  
HETATM   31  C   UNL     1      -7.332  15.646  68.766  1.00  0.00    -0.144 C  
HETATM   32  H   UNL     1      -8.194  15.297  66.916  1.00  0.00     0.000 HD 
HETATM   33  O   UNL     1      -7.326  15.346  69.943  1.00  0.00    -0.160 OA 
BRANCH  31  34
HETATM   34  O   UNL     1      -6.348  16.308  68.121  1.00  0.00    -0.114 OA 
BRANCH  34  35
HETATM   35  C   UNL     1      -6.772  17.338  67.205  1.00  0.00    -0.175 C  
BRANCH  35  36
HETATM   36  C   UNL     1      -6.500  18.701  67.749  1.00  0.00    -0.210 A  
HETATM   37  N   UNL     1      -6.170  20.427  69.300  1.00  0.00    -0.323 NA 
HETATM   38  C   UNL     1      -6.482  19.102  69.073  1.00  0.00    -0.283 A  
HETATM   39  C   UNL     1      -5.962  21.023  68.147  1.00  0.00    -0.346 A  
HETATM   40  S   UNL     1      -6.068  20.028  66.753  1.00  0.00    -0.175 SA 
ENDBRANCH  35  36
ENDBRANCH  34  35
ENDBRANCH  31  34
ENDBRANCH  29  30
BRANCH  29  41
HETATM   41  C   UNL     1     -10.743  16.111  67.531  1.00  0.00    -0.304 C  
BRANCH  41  42
HETATM   42  C   UNL     1     -10.532  17.610  67.463  1.00  0.00    -0.365 A  
HETATM   43  C   UNL     1      -9.982  19.723  68.545  1.00  0.00    -0.538 A  
HETATM   44  C   UNL     1     -10.325  18.378  68.615  1.00  0.00    -0.286 A  
HETATM   45  C   UNL     1     -10.500  18.264  66.228  1.00  0.00    -0.397 A  
HETATM   46  C   UNL     1     -10.179  19.626  66.152  1.00  0.00    -0.604 A  
HETATM   47  C   UNL     1      -9.902  20.350  67.310  1.00  0.00    -0.597 A  
ENDBRANCH  41  42
ENDBRANCH  29  41
ENDBRANCH  26  29
ENDBRANCH  25  26
ENDBRANCH  24  25
BRANCH  24  48
HETATM   48  C   UNL     1     -10.943  11.364  66.266  1.00  0.00    -0.303 C  
BRANCH  48  49
HETATM   49  C   UNL     1     -10.215  10.931  65.016  1.00  0.00    -0.367 A  
HETATM   50  C   UNL     1      -9.737  11.233  62.652  1.00  0.00    -0.187 A  
HETATM   51  C   UNL     1     -10.383  11.640  63.819  1.00  0.00    -0.445 A  
HETATM   52  C   UNL     1      -8.919  10.106  62.666  1.00  0.00    -0.275 A  
HETATM   53  C   UNL     1      -8.746   9.387  63.847  1.00  0.00    -0.225 A  
HETATM   54  C   UNL     1      -9.397   9.791  65.015  1.00  0.00    -0.325 A  
ENDBRANCH  48  49
ENDBRANCH  24  48
ENDBRANCH  22  24
ENDBRANCH   3  20
TORSDOF 18
ENDMDL
MODEL       10
REMARK 921   NORMALIZED FREE ENERGY PREDICTED BY IDOCK:   -6.00 KCAL/MOL
REMARK 922        TOTAL FREE ENERGY PREDICTED BY IDOCK:  -16.93 KCAL/MOL
REMARK 923 INTER-LIGAND FREE ENERGY PREDICTED BY IDOCK:  -13.60 KCAL/MOL
REMARK 924 INTRA-LIGAND FREE ENERGY PREDICTED BY IDOCK:   -3.33 KCAL/MOL
REMARK 927      BINDING AFFINITY PREDICTED BY RF-SCORE:    0.00 PKD
ROOT
HETATM    1  C   UNL     1     -10.635   6.920  66.996  1.00  0.00    -0.403 C  
HETATM    2  C   UNL     1     -10.012   6.875  68.386  1.00  0.00    -0.150 C  
HETATM    3  C   UNL     1      -9.969   8.236  69.124  1.00  0.00    -0.196 C  
HETATM    4  C   UNL     1     -10.682   5.765  69.206  1.00  0.00    -0.386 C  
ENDROOT
BRANCH   3   5
HETATM    5  N   UNL     1     -11.265   8.862  69.437  1.00  0.00    -0.432 N  
HETATM    6  H   UNL     1     -11.919   9.030  68.673  1.00  0.00     0.000 HD 
BRANCH   5   7
HETATM    7  C   UNL     1     -11.633   9.228  70.702  1.00  0.00    -0.252 C  
HETATM    8  O   UNL     1     -11.670  10.406  71.049  1.00  0.00    -0.348 OA 
BRANCH   7   9
HETATM    9  N   UNL     1     -11.886   8.206  71.594  1.00  0.00    -0.278 N  
HETATM   10  C   UNL     1     -12.885   7.155  71.473  1.00  0.00    -0.391 C  
BRANCH   9  11
HETATM   11  C   UNL     1     -11.030   8.125  72.785  1.00  0.00    -0.330 C  
BRANCH  11  12
HETATM   12  C   UNL     1      -9.971   7.065  72.636  1.00  0.00    -0.173 A  
HETATM   13  C   UNL     1      -8.628   7.286  72.390  1.00  0.00    -0.115 A  
HETATM   14  N   UNL     1     -10.300   5.718  72.822  1.00  0.00    -0.185 NA 
HETATM   15  S   UNL     1      -7.763   5.812  72.396  1.00  0.00    -0.103 SA 
HETATM   16  C   UNL     1      -9.993   2.744  71.873  1.00  0.00    -0.210 C  
HETATM   17  C   UNL     1      -9.222   4.963  72.742  1.00  0.00    -0.132 A  
HETATM   18  C   UNL     1      -9.192   3.467  72.954  1.00  0.00    -0.122 C  
HETATM   19  C   UNL     1      -9.721   3.108  74.344  1.00  0.00    -0.141 C  
ENDBRANCH  11  12
ENDBRANCH   9  11
ENDBRANCH   7   9
ENDBRANCH   5   7
ENDBRANCH   3   5
BRANCH   3  20
HETATM   20  C   UNL     1      -8.908   9.206  68.514  1.00  0.00    -0.129 C  
HETATM   21  O   UNL     1      -7.694   9.036  68.615  1.00  0.00    -0.094 OA 
HETATM   22  N   UNL     1      -9.441  10.316  67.888  1.00  0.00    -0.141 N  
HETATM   23  H   UNL     1     -10.446  10.477  67.944  1.00  0.00     0.000 HD 
BRANCH  22  24
HETATM   24  C   UNL     1      -8.614  11.265  67.148  1.00  0.00    -0.147 C  
BRANCH  24  25
HETATM   25  C   UNL     1      -8.220  12.515  67.963  1.00  0.00    -0.166 C  
BRANCH  25  26
HETATM   26  C   UNL     1      -8.061  13.858  67.237  1.00  0.00    -0.145 C  
HETATM   27  H   UNL     1      -6.651  15.195  67.076  1.00  0.00     0.000 HD 
HETATM   28  O   UNL     1      -6.750  14.364  67.524  1.00  0.00    -0.185 OA 
BRANCH  26  29
HETATM   29  C   UNL     1      -9.125  14.953  67.554  1.00  0.00    -0.183 C  
BRANCH  29  30
HETATM   30  N   UNL     1     -10.210  14.471  68.409  1.00  0.00    -0.233 N  
HETATM   31  C   UNL     1     -11.461  14.246  67.902  1.00  0.00    -0.315 C  
HETATM   32  H   UNL     1     -10.031  14.299  69.398  1.00  0.00     0.000 HD 
HETATM   33  O   UNL     1     -11.689  13.972  66.740  1.00  0.00    -0.364 OA 
BRANCH  31  34
HETATM   34  O   UNL     1     -12.393  14.424  68.862  1.00  0.00    -0.229 OA 
BRANCH  34  35
HETATM   35  C   UNL     1     -12.200  13.673  70.078  1.00  0.00    -0.329 C  
BRANCH  35  36
HETATM   36  C   UNL     1     -12.422  14.522  71.287  1.00  0.00    -0.346 A  
HETATM   37  N   UNL     1     -12.265  16.335  72.763  1.00  0.00    -0.514 NA 
HETATM   38  C   UNL     1     -11.860  15.751  71.581  1.00  0.00    -0.464 A  
HETATM   39  C   UNL     1     -13.125  15.541  73.362  1.00  0.00    -0.530 A  
HETATM   40  S   UNL     1     -13.533  14.101  72.523  1.00  0.00    -0.548 SA 
ENDBRANCH  35  36
ENDBRANCH  34  35
ENDBRANCH  31  34
ENDBRANCH  29  30
BRANCH  29  41
HETATM   41  C   UNL     1      -8.489  16.263  68.128  1.00  0.00    -0.174 C  
BRANCH  41  42
HETATM   42  C   UNL     1      -9.016  17.580  67.597  1.00  0.00    -0.231 A  
HETATM   43  C   UNL     1     -10.770  19.269  67.485  1.00  0.00    -0.571 A  
HETATM   44  C   UNL     1     -10.330  17.999  67.839  1.00  0.00    -0.402 A  
HETATM   45  C   UNL     1      -8.181  18.437  66.875  1.00  0.00    -0.258 A  
HETATM   46  C   UNL     1      -8.626  19.710  66.493  1.00  0.00    -0.387 A  
HETATM   47  C   UNL     1      -9.915  20.132  66.815  1.00  0.00    -0.604 A  
ENDBRANCH  41  42
ENDBRANCH  29  41
ENDBRANCH  26  29
ENDBRANCH  25  26
ENDBRANCH  24  25
BRANCH  24  48
HETATM   48  C   UNL     1      -9.285  11.583  65.796  1.00  0.00    -0.210 C  
BRANCH  48  49
HETATM   49  C   UNL     1      -8.967  10.631  64.668  1.00  0.00    -0.216 A  
HETATM   50  C   UNL     1      -9.242   9.953  62.351  1.00  0.00    -0.308 A  
HETATM   51  C   UNL     1      -9.508  10.841  63.392  1.00  0.00    -0.345 A  
HETATM   52  C   UNL     1      -8.439   8.838  62.573  1.00  0.00    -0.195 A  
HETATM   53  C   UNL     1      -7.899   8.612  63.838  1.00  0.00    -0.147 A  
HETATM   54  C   UNL     1      -8.167   9.498  64.883  1.00  0.00    -0.140 A  
ENDBRANCH  48  49
ENDBRANCH  24  48
ENDBRANCH  22  24
ENDBRANCH   3  20
TORSDOF 18
ENDMDL
MODEL       11
REMARK 921   NORMALIZED FREE ENERGY PREDICTED BY IDOCK:   -5.82 KCAL/MOL
REMARK 922        TOTAL FREE ENERGY PREDICTED BY IDOCK:  -16.57 KCAL/MOL
REMARK 923 INTER-LIGAND FREE ENERGY PREDICTED BY IDOCK:  -13.93 KCAL/MOL
REMARK 924 INTRA-LIGAND FREE ENERGY PREDICTED BY IDOCK:   -2.64 KCAL/MOL
REMARK 927      BINDING AFFINITY PREDICTED BY RF-SCORE:    0.00 PKD
ROOT
HETATM    1  C   UNL     1     -13.512  15.503  71.265  1.00  0.00    -0.560 C  
HETATM    2  C   UNL     1     -12.213  14.807  71.652  1.00  0.00    -0.413 C  
HETATM    3  C   UNL     1     -11.142  14.761  70.536  1.00  0.00    -0.092 C  
HETATM    4  C   UNL     1     -11.692  15.403  72.966  1.00  0.00    -0.477 C  
ENDROOT
BRANCH   3   5
HETATM    5  N   UNL     1     -10.616  16.054  70.067  1.00  0.00    -0.308 N  
HETATM    6  H   UNL     1     -11.075  16.908  70.385  1.00  0.00     0.000 HD 
BRANCH   5   7
HETATM    7  C   UNL     1      -9.543  16.166  69.227  1.00  0.00    -0.235 C  
HETATM    8  O   UNL     1      -8.512  15.522  69.407  1.00  0.00    -0.247 OA 
BRANCH   7   9
HETATM    9  N   UNL     1      -9.645  17.095  68.211  1.00  0.00    -0.270 N  
HETATM   10  C   UNL     1     -10.386  18.346  68.230  1.00  0.00    -0.355 C  
BRANCH   9  11
HETATM   11  C   UNL     1      -8.888  16.830  66.980  1.00  0.00    -0.207 C  
BRANCH  11  12
HETATM   12  C   UNL     1      -7.686  17.730  66.864  1.00  0.00    -0.215 A  
HETATM   13  C   UNL     1      -6.756  17.977  67.858  1.00  0.00    -0.191 A  
HETATM   14  N   UNL     1      -7.389  18.345  65.644  1.00  0.00    -0.536 NA 
HETATM   15  S   UNL     1      -5.499  18.976  67.273  1.00  0.00    -0.156 SA 
HETATM   16  C   UNL     1      -6.452  20.919  64.114  1.00  0.00    -0.267 C  
HETATM   17  C   UNL     1      -6.254  19.010  65.725  1.00  0.00    -0.224 A  
HETATM   18  C   UNL     1      -5.594  19.744  64.580  1.00  0.00    -0.253 C  
HETATM   19  C   UNL     1      -5.314  18.790  63.417  1.00  0.00    -0.094 C  
ENDBRANCH  11  12
ENDBRANCH   9  11
ENDBRANCH   7   9
ENDBRANCH   5   7
ENDBRANCH   3   5
BRANCH   3  20
HETATM   20  C   UNL     1     -11.516  13.759  69.398  1.00  0.00    -0.286 C  
HETATM   21  O   UNL     1     -12.301  14.025  68.489  1.00  0.00    -0.265 OA 
HETATM   22  N   UNL     1     -10.934  12.513  69.519  1.00  0.00    -0.459 N  
HETATM   23  H   UNL     1     -10.396  12.300  70.359  1.00  0.00     0.000 HD 
BRANCH  22  24
HETATM   24  C   UNL     1     -11.062  11.489  68.486  1.00  0.00    -0.236 C  
BRANCH  24  25
HETATM   25  C   UNL     1     -10.975  10.046  69.025  1.00  0.00    -0.249 C  
BRANCH  25  26
HETATM   26  C   UNL     1     -10.056   9.750  70.218  1.00  0.00    -0.266 C  
HETATM   27  H   UNL     1      -8.172  10.038  70.630  1.00  0.00     0.000 HD 
HETATM   28  O   UNL     1      -8.741  10.222  69.892  1.00  0.00    -0.131 OA 
BRANCH  26  29
HETATM   29  C   UNL     1      -9.977   8.265  70.687  1.00  0.00    -0.183 C  
BRANCH  29  30
HETATM   30  N   UNL     1     -10.153   8.108  72.131  1.00  0.00    -0.228 N  
HETATM   31  C   UNL     1      -9.076   8.091  72.976  1.00  0.00    -0.265 C  
HETATM   32  H   UNL     1     -11.093   8.009  72.514  1.00  0.00     0.000 HD 
HETATM   33  O   UNL     1      -8.013   8.631  72.739  1.00  0.00    -0.370 OA 
BRANCH  31  34
HETATM   34  O   UNL     1      -9.352   7.351  74.071  1.00  0.00    -0.250 OA 
BRANCH  34  35
HETATM   35  C   UNL     1     -10.520   6.509  73.987  1.00  0.00    -0.285 C  
BRANCH  35  36
HETATM   36  C   UNL     1     -10.153   5.095  73.676  1.00  0.00    -0.188 A  
HETATM   37  N   UNL     1     -10.388   2.833  73.108  1.00  0.00    -0.138 NA 
HETATM   38  C   UNL     1     -10.999   4.039  73.390  1.00  0.00    -0.249 A  
HETATM   39  C   UNL     1      -9.085   2.982  73.191  1.00  0.00    -0.089 A  
HETATM   40  S   UNL     1      -8.528   4.566  73.547  1.00  0.00    -0.101 SA 
ENDBRANCH  35  36
ENDBRANCH  34  35
ENDBRANCH  31  34
ENDBRANCH  29  30
BRANCH  29  41
HETATM   41  C   UNL     1     -10.946   7.329  69.891  1.00  0.00    -0.262 C  
BRANCH  41  42
HETATM   42  C   UNL     1     -10.362   6.055  69.315  1.00  0.00    -0.294 A  
HETATM   43  C   UNL     1      -9.378   3.847  69.624  1.00  0.00    -0.246 A  
HETATM   44  C   UNL     1      -9.776   5.079  70.131  1.00  0.00    -0.280 A  
HETATM   45  C   UNL     1     -10.429   5.804  67.942  1.00  0.00    -0.290 A  
HETATM   46  C   UNL     1     -10.006   4.573  67.422  1.00  0.00    -0.171 A  
HETATM   47  C   UNL     1      -9.498   3.588  68.267  1.00  0.00    -0.210 A  
ENDBRANCH  41  42
ENDBRANCH  29  41
ENDBRANCH  26  29
ENDBRANCH  25  26
ENDBRANCH  24  25
BRANCH  24  48
HETATM   48  C   UNL     1     -10.074  11.791  67.340  1.00  0.00    -0.212 C  
BRANCH  48  49
HETATM   49  C   UNL     1     -10.666  11.796  65.951  1.00  0.00    -0.328 A  
HETATM   50  C   UNL     1     -10.520  11.188  63.603  1.00  0.00    -0.438 A  
HETATM   51  C   UNL     1      -9.995  11.166  64.894  1.00  0.00    -0.331 A  
HETATM   52  C   UNL     1     -11.719  11.847  63.349  1.00  0.00    -0.500 A  
HETATM   53  C   UNL     1     -12.396  12.484  64.388  1.00  0.00    -0.537 A  
HETATM   54  C   UNL     1     -11.870  12.467  65.681  1.00  0.00    -0.493 A  
ENDBRANCH  48  49
ENDBRANCH  24  48
ENDBRANCH  22  24
ENDBRANCH   3  20
TORSDOF 18
ENDMDL
MODEL       12
REMARK 921   NORMALIZED FREE ENERGY PREDICTED BY IDOCK:   -5.82 KCAL/MOL
REMARK 922        TOTAL FREE ENERGY PREDICTED BY IDOCK:  -16.55 KCAL/MOL
REMARK 923 INTER-LIGAND FREE ENERGY PREDICTED BY IDOCK:  -12.62 KCAL/MOL
REMARK 924 INTRA-LIGAND FREE ENERGY PREDICTED BY IDOCK:   -3.93 KCAL/MOL
REMARK 927      BINDING AFFINITY PREDICTED BY RF-SCORE:    0.00 PKD
ROOT
HETATM    1  C   UNL     1     -10.069  11.093  63.174  1.00  0.00    -0.373 C  
HETATM    2  C   UNL     1     -11.142  11.605  64.128  1.00  0.00    -0.435 C  
HETATM    3  C   UNL     1     -10.604  12.395  65.346  1.00  0.00    -0.284 C  
HETATM    4  C   UNL     1     -12.204  12.372  63.331  1.00  0.00    -0.623 C  
ENDROOT
BRANCH   3   5
HETATM    5  N   UNL     1      -9.888  13.649  65.060  1.00  0.00    -0.600 N  
HETATM    6  H   UNL     1      -9.072  13.613  64.450  1.00  0.00     0.000 HD 
BRANCH   5   7
HETATM    7  C   UNL     1     -10.265  14.861  65.571  1.00  0.00    -0.374 C  
HETATM    8  O   UNL     1     -10.457  15.836  64.848  1.00  0.00    -0.499 OA 
BRANCH   7   9
HETATM    9  N   UNL     1     -10.345  14.955  66.946  1.00  0.00    -0.261 N  
HETATM   10  C   UNL     1     -11.551  14.984  67.760  1.00  0.00    -0.319 C  
BRANCH   9  11
HETATM   11  C   UNL     1      -9.081  14.984  67.693  1.00  0.00    -0.182 C  
BRANCH  11  12
HETATM   12  C   UNL     1      -8.564  16.389  67.855  1.00  0.00    -0.175 A  
HETATM   13  C   UNL     1      -7.255  16.748  68.123  1.00  0.00    -0.164 A  
HETATM   14  N   UNL     1      -9.422  17.476  67.659  1.00  0.00    -0.253 NA 
HETATM   15  S   UNL     1      -7.085  18.448  68.125  1.00  0.00    -0.255 SA 
HETATM   16  C   UNL     1     -10.401  20.303  68.601  1.00  0.00    -0.219 C  
HETATM   17  C   UNL     1      -8.759  18.611  67.753  1.00  0.00    -0.279 A  
HETATM   18  C   UNL     1      -9.354  19.984  67.536  1.00  0.00    -0.485 C  
HETATM   19  C   UNL     1      -9.961  20.095  66.136  1.00  0.00    -0.532 C  
ENDBRANCH  11  12
ENDBRANCH   9  11
ENDBRANCH   7   9
ENDBRANCH   5   7
ENDBRANCH   3   5
BRANCH   3  20
HETATM   20  C   UNL     1      -9.903  11.469  66.390  1.00  0.00    -0.205 C  
HETATM   21  O   UNL     1      -8.694  11.246  66.397  1.00  0.00    -0.172 OA 
HETATM   22  N   UNL     1     -10.763  10.865  67.286  1.00  0.00    -0.251 N  
HETATM   23  H   UNL     1     -11.768  10.978  67.157  1.00  0.00     0.000 HD 
BRANCH  22  24
HETATM   24  C   UNL     1     -10.282  10.069  68.412  1.00  0.00    -0.172 C  
BRANCH  24  25
HETATM   25  C   UNL     1     -10.381   8.546  68.186  1.00  0.00    -0.258 C  
BRANCH  25  26
HETATM   26  C   UNL     1      -9.127   7.774  67.754  1.00  0.00    -0.134 C  
HETATM   27  H   UNL     1      -8.446   7.050  66.076  1.00  0.00     0.000 HD 
HETATM   28  O   UNL     1      -9.222   7.528  66.343  1.00  0.00    -0.166 OA 
BRANCH  26  29
HETATM   29  C   UNL     1      -8.840   6.435  68.499  1.00  0.00    -0.119 C  
BRANCH  29  30
HETATM   30  N   UNL     1      -7.586   6.453  69.253  1.00  0.00    -0.097 N  
HETATM   31  C   UNL     1      -6.511   5.705  68.855  1.00  0.00    -0.042 C  
HETATM   32  H   UNL     1      -7.511   7.034  70.089  1.00  0.00     0.000 HD 
HETATM   33  O   UNL     1      -6.306   5.361  67.707  1.00  0.00    -0.036 OA 
BRANCH  31  34
HETATM   34  O   UNL     1      -5.755   5.369  69.921  1.00  0.00    -0.014 OA 
BRANCH  34  35
HETATM   35  C   UNL     1      -6.046   6.067  71.149  1.00  0.00    -0.034 C  
BRANCH  35  36
HETATM   36  C   UNL     1      -6.300   5.117  72.272  1.00  0.00    -0.032 A  
HETATM   37  N   UNL     1      -6.408   3.109  73.476  1.00  0.00    -0.022 NA 
HETATM   38  C   UNL     1      -6.121   3.746  72.285  1.00  0.00    -0.009 A  
HETATM   39  C   UNL     1      -6.810   4.001  74.354  1.00  0.00    -0.059 A  
HETATM   40  S   UNL     1      -6.808   5.633  73.826  1.00  0.00    -0.082 SA 
ENDBRANCH  35  36
ENDBRANCH  34  35
ENDBRANCH  31  34
ENDBRANCH  29  30
BRANCH  29  41
HETATM   41  C   UNL     1     -10.036   5.976  69.397  1.00  0.00    -0.243 C  
BRANCH  41  42
HETATM   42  C   UNL     1      -9.811   4.775  70.292  1.00  0.00    -0.313 A  
HETATM   43  C   UNL     1      -9.939   3.710  72.481  1.00  0.00    -0.227 A  
HETATM   44  C   UNL     1      -9.997   4.844  71.679  1.00  0.00    -0.255 A  
HETATM   45  C   UNL     1      -9.443   3.543  69.744  1.00  0.00    -0.241 A  
HETATM   46  C   UNL     1      -9.358   2.401  70.551  1.00  0.00    -0.201 A  
HETATM   47  C   UNL     1      -9.625   2.483  71.917  1.00  0.00    -0.208 A  
ENDBRANCH  41  42
ENDBRANCH  29  41
ENDBRANCH  26  29
ENDBRANCH  25  26
ENDBRANCH  24  25
BRANCH  24  48
HETATM   48  C   UNL     1     -10.960  10.556  69.710  1.00  0.00    -0.350 C  
BRANCH  48  49
HETATM   49  C   UNL     1     -10.941   9.581  70.863  1.00  0.00    -0.407 A  
HETATM   50  C   UNL     1     -12.136   8.259  72.515  1.00  0.00    -0.400 A  
HETATM   51  C   UNL     1     -12.142   9.139  71.433  1.00  0.00    -0.409 A  
HETATM   52  C   UNL     1     -10.928   7.817  73.047  1.00  0.00    -0.442 A  
HETATM   53  C   UNL     1      -9.725   8.252  72.494  1.00  0.00    -0.368 A  
HETATM   54  C   UNL     1      -9.729   9.136  71.414  1.00  0.00    -0.338 A  
ENDBRANCH  48  49
ENDBRANCH  24  48
ENDBRANCH  22  24
ENDBRANCH   3  20
TORSDOF 18
ENDMDL
MODEL       13
REMARK 921   NORMALIZED FREE ENERGY PREDICTED BY IDOCK:   -5.79 KCAL/MOL
REMARK 922        TOTAL FREE ENERGY PREDICTED BY IDOCK:  -16.50 KCAL/MOL
REMARK 923 INTER-LIGAND FREE ENERGY PREDICTED BY IDOCK:  -11.52 KCAL/MOL
REMARK 924 INTRA-LIGAND FREE ENERGY PREDICTED BY IDOCK:   -4.98 KCAL/MOL
REMARK 927      BINDING AFFINITY PREDICTED BY RF-SCORE:    0.00 PKD
ROOT
HETATM    1  C   UNL     1      -9.990   9.717  70.595  1.00  0.00    -0.215 C  
HETATM    2  C   UNL     1      -9.880   9.963  69.095  1.00  0.00    -0.204 C  
HETATM    3  C   UNL     1      -8.432  10.085  68.560  1.00  0.00    -0.115 C  
HETATM    4  C   UNL     1     -10.713   8.913  68.348  1.00  0.00    -0.126 C  
ENDROOT
BRANCH   3   5
HETATM    5  N   UNL     1      -7.573   8.896  68.695  1.00  0.00    -0.094 N  
HETATM    6  H   UNL     1      -7.137   8.713  69.599  1.00  0.00     0.000 HD 
BRANCH   5   7
HETATM    7  C   UNL     1      -7.332   8.027  67.668  1.00  0.00    -0.093 C  
HETATM    8  O   UNL     1      -7.353   8.391  66.494  1.00  0.00    -0.079 OA 
BRANCH   7   9
HETATM    9  N   UNL     1      -7.139   6.703  68.008  1.00  0.00    -0.086 N  
HETATM   10  C   UNL     1      -7.122   5.555  67.114  1.00  0.00    -0.074 C  
BRANCH   9  11
HETATM   11  C   UNL     1      -6.872   6.403  69.421  1.00  0.00    -0.065 C  
BRANCH  11  12
HETATM   12  C   UNL     1      -8.039   5.707  70.070  1.00  0.00    -0.106 A  
HETATM   13  C   UNL     1      -8.164   4.344  70.271  1.00  0.00    -0.066 A  
HETATM   14  N   UNL     1      -9.093   6.458  70.602  1.00  0.00    -0.147 NA 
HETATM   15  S   UNL     1      -9.596   3.991  71.133  1.00  0.00    -0.179 SA 
HETATM   16  C   UNL     1     -12.186   6.808  70.992  1.00  0.00    -0.405 C  
HETATM   17  C   UNL     1      -9.962   5.672  71.205  1.00  0.00    -0.190 A  
HETATM   18  C   UNL     1     -11.193   6.146  71.945  1.00  0.00    -0.336 C  
HETATM   19  C   UNL     1     -10.808   7.106  73.072  1.00  0.00    -0.367 C  
ENDBRANCH  11  12
ENDBRANCH   9  11
ENDBRANCH   7   9
ENDBRANCH   5   7
ENDBRANCH   3   5
BRANCH   3  20
HETATM   20  C   UNL     1      -7.757  11.428  68.983  1.00  0.00    -0.064 C  
HETATM   21  O   UNL     1      -6.731  11.490  69.658  1.00  0.00    -0.125 OA 
HETATM   22  N   UNL     1      -8.438  12.560  68.582  1.00  0.00    -0.357 N  
HETATM   23  H   UNL     1      -9.350  12.455  68.138  1.00  0.00     0.000 HD 
BRANCH  22  24
HETATM   24  C   UNL     1      -7.897  13.903  68.771  1.00  0.00    -0.079 C  
BRANCH  24  25
HETATM   25  C   UNL     1      -8.828  14.845  69.562  1.00  0.00     0.021 C  
BRANCH  25  26
HETATM   26  C   UNL     1     -10.309  14.932  69.168  1.00  0.00    -0.245 C  
HETATM   27  H   UNL     1     -11.794  13.674  69.045  1.00  0.00     0.000 HD 
HETATM   28  O   UNL     1     -10.877  13.620  69.289  1.00  0.00    -0.193 OA 
BRANCH  26  29
HETATM   29  C   UNL     1     -10.623  15.508  67.753  1.00  0.00    -0.281 C  
BRANCH  29  30
HETATM   30  N   UNL     1     -11.247  14.531  66.860  1.00  0.00    -0.326 N  
HETATM   31  C   UNL     1     -11.311  14.748  65.510  1.00  0.00    -0.343 C  
HETATM   32  H   UNL     1     -11.640  13.674  67.250  1.00  0.00     0.000 HD 
HETATM   33  O   UNL     1     -10.528  15.441  64.891  1.00  0.00    -0.396 OA 
BRANCH  31  34
HETATM   34  O   UNL     1     -12.390  14.127  64.988  1.00  0.00    -0.417 OA 
BRANCH  34  35
HETATM   35  C   UNL     1     -12.449  12.698  65.173  1.00  0.00    -0.463 C  
BRANCH  35  36
HETATM   36  C   UNL     1     -11.291  12.013  64.525  1.00  0.00    -0.330 A  
HETATM   37  N   UNL     1      -9.755  11.370  62.877  1.00  0.00    -0.355 NA 
HETATM   38  C   UNL     1     -10.887  12.088  63.205  1.00  0.00    -0.334 A  
HETATM   39  C   UNL     1      -9.314  10.749  63.949  1.00  0.00    -0.253 A  
HETATM   40  S   UNL     1     -10.184  11.038  65.399  1.00  0.00    -0.276 SA 
ENDBRANCH  35  36
ENDBRANCH  34  35
ENDBRANCH  31  34
ENDBRANCH  29  30
BRANCH  29  41
HETATM   41  C   UNL     1     -11.451  16.834  67.812  1.00  0.00     0.266 C  
BRANCH  41  42
HETATM   42  C   UNL     1     -10.693  18.133  67.623  1.00  0.00    -0.364 A  
HETATM   43  C   UNL     1     -10.082  20.048  66.245  1.00  0.00    -0.603 A  
HETATM   44  C   UNL     1     -10.646  18.785  66.385  1.00  0.00    -0.429 A  
HETATM   45  C   UNL     1     -10.048  18.739  68.705  1.00  0.00    -0.432 A  
HETATM   46  C   UNL     1      -9.456  20.001  68.565  1.00  0.00    -0.253 A  
HETATM   47  C   UNL     1      -9.490  20.663  67.338  1.00  0.00    -0.516 A  
ENDBRANCH  41  42
ENDBRANCH  29  41
ENDBRANCH  26  29
ENDBRANCH  25  26
ENDBRANCH  24  25
BRANCH  24  48
HETATM   48  C   UNL     1      -7.442  14.469  67.409  1.00  0.00    -0.194 C  
BRANCH  48  49
HETATM   49  C   UNL     1      -7.055  15.928  67.403  1.00  0.00    -0.230 A  
HETATM   50  C   UNL     1      -6.140  17.863  68.554  1.00  0.00    -0.186 A  
HETATM   51  C   UNL     1      -6.476  16.510  68.539  1.00  0.00    -0.137 A  
HETATM   52  C   UNL     1      -6.385  18.654  67.435  1.00  0.00    -0.192 A  
HETATM   53  C   UNL     1      -6.966  18.092  66.299  1.00  0.00    -0.299 A  
HETATM   54  C   UNL     1      -7.307  16.738  66.285  1.00  0.00    -0.186 A  
ENDBRANCH  48  49
ENDBRANCH  24  48
ENDBRANCH  22  24
ENDBRANCH   3  20
TORSDOF 18
ENDMDL
MODEL       14
REMARK 921   NORMALIZED FREE ENERGY PREDICTED BY IDOCK:   -5.79 KCAL/MOL
REMARK 922        TOTAL FREE ENERGY PREDICTED BY IDOCK:  -16.49 KCAL/MOL
REMARK 923 INTER-LIGAND FREE ENERGY PREDICTED BY IDOCK:  -12.50 KCAL/MOL
REMARK 924 INTRA-LIGAND FREE ENERGY PREDICTED BY IDOCK:   -3.99 KCAL/MOL
REMARK 927      BINDING AFFINITY PREDICTED BY RF-SCORE:    0.00 PKD
ROOT
HETATM    1  C   UNL     1     -10.485   8.692  72.162  1.00  0.00    -0.411 C  
HETATM    2  C   UNL     1     -11.121   9.629  71.142  1.00  0.00    -0.444 C  
HETATM    3  C   UNL     1     -10.630   9.435  69.687  1.00  0.00    -0.225 C  
HETATM    4  C   UNL     1     -12.647   9.564  71.279  1.00  0.00    -0.425 C  
ENDROOT
BRANCH   3   5
HETATM    5  N   UNL     1     -10.913   8.133  69.060  1.00  0.00    -0.428 N  
HETATM    6  H   UNL     1     -11.399   7.425  69.610  1.00  0.00     0.000 HD 
BRANCH   5   7
HETATM    7  C   UNL     1     -10.556   7.827  67.775  1.00  0.00    -0.185 C  
HETATM    8  O   UNL     1     -10.773   8.599  66.844  1.00  0.00    -0.252 OA 
BRANCH   7   9
HETATM    9  N   UNL     1     -10.010   6.578  67.564  1.00  0.00    -0.128 N  
HETATM   10  C   UNL     1     -10.426   5.586  66.584  1.00  0.00    -0.294 C  
BRANCH   9  11
HETATM   11  C   UNL     1      -8.845   6.206  68.378  1.00  0.00    -0.113 C  
BRANCH  11  12
HETATM   12  C   UNL     1      -9.206   5.191  69.431  1.00  0.00    -0.112 A  
HETATM   13  C   UNL     1      -9.053   3.820  69.325  1.00  0.00    -0.136 A  
HETATM   14  N   UNL     1      -9.678   5.615  70.677  1.00  0.00    -0.174 NA 
HETATM   15  S   UNL     1      -9.491   3.051  70.787  1.00  0.00    -0.140 SA 
HETATM   16  C   UNL     1     -11.707   5.216  73.036  1.00  0.00    -0.231 C  
HETATM   17  C   UNL     1      -9.844   4.586  71.484  1.00  0.00    -0.190 A  
HETATM   18  C   UNL     1     -10.283   4.676  72.928  1.00  0.00    -0.229 C  
HETATM   19  C   UNL     1      -9.316   5.547  73.732  1.00  0.00    -0.137 C  
ENDBRANCH  11  12
ENDBRANCH   9  11
ENDBRANCH   7   9
ENDBRANCH   5   7
ENDBRANCH   3   5
BRANCH   3  20
HETATM   20  C   UNL     1      -9.172   9.954  69.480  1.00  0.00    -0.223 C  
HETATM   21  O   UNL     1      -8.269   9.786  70.298  1.00  0.00    -0.184 OA 
HETATM   22  N   UNL     1      -8.982  10.674  68.317  1.00  0.00    -0.137 N  
HETATM   23  H   UNL     1      -9.790  10.897  67.738  1.00  0.00     0.000 HD 
BRANCH  22  24
HETATM   24  C   UNL     1      -7.661  11.128  67.889  1.00  0.00    -0.105 C  
BRANCH  24  25
HETATM   25  C   UNL     1      -7.319  12.563  68.342  1.00  0.00    -0.114 C  
BRANCH  25  26
HETATM   26  C   UNL     1      -7.758  13.746  67.468  1.00  0.00    -0.176 C  
HETATM   27  H   UNL     1      -7.456  15.672  67.478  1.00  0.00     0.000 HD 
HETATM   28  O   UNL     1      -7.183  14.940  68.018  1.00  0.00    -0.110 OA 
BRANCH  26  29
HETATM   29  C   UNL     1      -9.294  13.943  67.282  1.00  0.00    -0.231 C  
BRANCH  29  30
HETATM   30  N   UNL     1      -9.887  14.821  68.291  1.00  0.00    -0.216 N  
HETATM   31  C   UNL     1     -11.245  14.934  68.418  1.00  0.00    -0.292 C  
HETATM   32  H   UNL     1      -9.279  15.358  68.909  1.00  0.00     0.000 HD 
HETATM   33  O   UNL     1     -12.036  14.068  68.098  1.00  0.00    -0.357 OA 
BRANCH  31  34
HETATM   34  O   UNL     1     -11.570  16.154  68.895  1.00  0.00    -0.357 OA 
BRANCH  34  35
HETATM   35  C   UNL     1     -10.479  17.084  69.050  1.00  0.00    -0.337 C  
BRANCH  35  36
HETATM   36  C   UNL     1     -10.445  18.078  67.936  1.00  0.00    -0.396 A  
HETATM   37  N   UNL     1     -10.554  18.958  65.767  1.00  0.00    -0.560 NA 
HETATM   38  C   UNL     1     -10.603  17.845  66.582  1.00  0.00    -0.238 A  
HETATM   39  C   UNL     1     -10.350  20.024  66.507  1.00  0.00    -0.450 A  
HETATM   40  S   UNL     1     -10.268  19.762  68.201  1.00  0.00    -0.432 SA 
ENDBRANCH  35  36
ENDBRANCH  34  35
ENDBRANCH  31  34
ENDBRANCH  29  30
BRANCH  29  41
HETATM   41  C   UNL     1      -9.671  14.403  65.834  1.00  0.00    -0.305 C  
BRANCH  41  42
HETATM   42  C   UNL     1     -10.593  13.502  65.039  1.00  0.00    -0.382 A  
HETATM   43  C   UNL     1     -12.486  13.207  63.532  1.00  0.00    -0.361 A  
HETATM   44  C   UNL     1     -11.726  14.001  64.385  1.00  0.00    -0.415 A  
HETATM   45  C   UNL     1     -10.309  12.140  64.906  1.00  0.00    -0.321 A  
HETATM   46  C   UNL     1     -11.087  11.329  64.068  1.00  0.00    -0.316 A  
HETATM   47  C   UNL     1     -12.164  11.869  63.367  1.00  0.00    -0.561 A  
ENDBRANCH  41  42
ENDBRANCH  29  41
ENDBRANCH  26  29
ENDBRANCH  25  26
ENDBRANCH  24  25
BRANCH  24  48
HETATM   48  C   UNL     1      -7.506  10.895  66.372  1.00  0.00    -0.145 C  
BRANCH  48  49
HETATM   49  C   UNL     1      -7.410   9.452  65.939  1.00  0.00    -0.095 A  
HETATM   50  C   UNL     1      -6.335   7.279  66.097  1.00  0.00    -0.041 A  
HETATM   51  C   UNL     1      -6.450   8.606  66.509  1.00  0.00    -0.059 A  
HETATM   52  C   UNL     1      -7.174   6.782  65.103  1.00  0.00    -0.074 A  
HETATM   53  C   UNL     1      -8.131   7.613  64.522  1.00  0.00    -0.098 A  
HETATM   54  C   UNL     1      -8.244   8.944  64.930  1.00  0.00    -0.161 A  
ENDBRANCH  48  49
ENDBRANCH  24  48
ENDBRANCH  22  24
ENDBRANCH   3  20
TORSDOF 18
ENDMDL
MODEL       15
REMARK 921   NORMALIZED FREE ENERGY PREDICTED BY IDOCK:   -5.76 KCAL/MOL
REMARK 922        TOTAL FREE ENERGY PREDICTED BY IDOCK:  -16.43 KCAL/MOL
REMARK 923 INTER-LIGAND FREE ENERGY PREDICTED BY IDOCK:  -12.48 KCAL/MOL
REMARK 924 INTRA-LIGAND FREE ENERGY PREDICTED BY IDOCK:   -3.96 KCAL/MOL
REMARK 927      BINDING AFFINITY PREDICTED BY RF-SCORE:    0.00 PKD
ROOT
HETATM    1  C   UNL     1     -10.279   8.658  72.165  1.00  0.00    -0.394 C  
HETATM    2  C   UNL     1     -11.039   9.594  71.232  1.00  0.00    -0.426 C  
HETATM    3  C   UNL     1     -10.651   9.480  69.738  1.00  0.00    -0.236 C  
HETATM    4  C   UNL     1     -12.545   9.441  71.479  1.00  0.00    -0.447 C  
ENDROOT
BRANCH   3   5
HETATM    5  N   UNL     1     -10.912   8.188  69.082  1.00  0.00    -0.426 N  
HETATM    6  H   UNL     1     -11.325   7.438  69.636  1.00  0.00     0.000 HD 
BRANCH   5   7
HETATM    7  C   UNL     1     -10.628   7.945  67.766  1.00  0.00    -0.175 C  
HETATM    8  O   UNL     1     -10.861   8.776  66.892  1.00  0.00    -0.171 OA 
BRANCH   7   9
HETATM    9  N   UNL     1     -10.138   6.692  67.458  1.00  0.00    -0.146 N  
HETATM   10  C   UNL     1     -10.676   5.748  66.491  1.00  0.00    -0.204 C  
BRANCH   9  11
HETATM   11  C   UNL     1      -8.909   6.265  68.138  1.00  0.00    -0.113 C  
BRANCH  11  12
HETATM   12  C   UNL     1      -9.188   5.215  69.182  1.00  0.00    -0.110 A  
HETATM   13  C   UNL     1      -9.016   3.851  69.030  1.00  0.00    -0.119 A  
HETATM   14  N   UNL     1      -9.594   5.597  70.465  1.00  0.00    -0.169 NA 
HETATM   15  S   UNL     1      -9.354   3.035  70.492  1.00  0.00    -0.148 SA 
HETATM   16  C   UNL     1     -11.474   5.096  72.925  1.00  0.00    -0.329 C  
HETATM   17  C   UNL     1      -9.694   4.543  71.251  1.00  0.00    -0.182 A  
HETATM   18  C   UNL     1     -10.049   4.587  72.720  1.00  0.00    -0.217 C  
HETATM   19  C   UNL     1      -9.052   5.456  73.490  1.00  0.00    -0.128 C  
ENDBRANCH  11  12
ENDBRANCH   9  11
ENDBRANCH   7   9
ENDBRANCH   5   7
ENDBRANCH   3   5
BRANCH   3  20
HETATM   20  C   UNL     1      -9.242  10.086  69.445  1.00  0.00    -0.216 C  
HETATM   21  O   UNL     1      -8.207   9.692  69.981  1.00  0.00    -0.150 OA 
HETATM   22  N   UNL     1      -9.250  11.152  68.567  1.00  0.00    -0.178 N  
HETATM   23  H   UNL     1     -10.145  11.524  68.252  1.00  0.00     0.000 HD 
BRANCH  22  24
HETATM   24  C   UNL     1      -8.019  11.764  68.073  1.00  0.00    -0.141 C  
BRANCH  24  25
HETATM   25  C   UNL     1      -7.681  13.112  68.744  1.00  0.00    -0.006 C  
BRANCH  25  26
HETATM   26  C   UNL     1      -7.808  14.405  67.926  1.00  0.00    -0.150 C  
HETATM   27  H   UNL     1      -6.909  16.134  67.907  1.00  0.00     0.000 HD 
HETATM   28  O   UNL     1      -6.830  15.334  68.413  1.00  0.00    -0.104 OA 
BRANCH  26  29
HETATM   29  C   UNL     1      -9.211  15.084  67.908  1.00  0.00    -0.182 C  
BRANCH  29  30
HETATM   30  N   UNL     1     -10.295  14.175  68.281  1.00  0.00    -0.238 N  
HETATM   31  C   UNL     1     -11.526  14.263  67.689  1.00  0.00    -0.346 C  
HETATM   32  H   UNL     1     -10.131  13.464  68.994  1.00  0.00     0.000 HD 
HETATM   33  O   UNL     1     -11.719  14.710  66.576  1.00  0.00    -0.369 OA 
BRANCH  31  34
HETATM   34  O   UNL     1     -12.484  13.834  68.538  1.00  0.00    -0.114 OA 
BRANCH  34  35
HETATM   35  C   UNL     1     -12.022  13.288  69.790  1.00  0.00    -0.324 C  
BRANCH  35  36
HETATM   36  C   UNL     1     -12.499  14.098  70.950  1.00  0.00    -0.365 A  
HETATM   37  N   UNL     1     -12.922  15.960  72.310  1.00  0.00    -0.442 NA 
HETATM   38  C   UNL     1     -12.355  15.458  71.155  1.00  0.00    -0.385 A  
HETATM   39  C   UNL     1     -13.484  14.975  72.975  1.00  0.00    -0.418 A  
HETATM   40  S   UNL     1     -13.416  13.429  72.234  1.00  0.00    -0.582 SA 
ENDBRANCH  35  36
ENDBRANCH  34  35
ENDBRANCH  31  34
ENDBRANCH  29  30
BRANCH  29  41
HETATM   41  C   UNL     1      -9.255  16.400  68.754  1.00  0.00    -0.239 C  
BRANCH  41  42
HETATM   42  C   UNL     1      -9.589  17.683  68.023  1.00  0.00    -0.289 A  
HETATM   43  C   UNL     1      -9.642  20.119  67.933  1.00  0.00    -0.468 A  
HETATM   44  C   UNL     1      -9.484  18.934  68.644  1.00  0.00    -0.427 A  
HETATM   45  C   UNL     1      -9.979  17.652  66.681  1.00  0.00    -0.328 A  
HETATM   46  C   UNL     1     -10.165  18.842  65.965  1.00  0.00    -0.437 A  
HETATM   47  C   UNL     1      -9.978  20.076  66.588  1.00  0.00    -0.598 A  
ENDBRANCH  41  42
ENDBRANCH  29  41
ENDBRANCH  26  29
ENDBRANCH  25  26
ENDBRANCH  24  25
BRANCH  24  48
HETATM   48  C   UNL     1      -8.059  11.823  66.532  1.00  0.00    -0.035 C  
BRANCH  48  49
HETATM   49  C   UNL     1      -7.978  10.491  65.825  1.00  0.00    -0.158 A  
HETATM   50  C   UNL     1      -7.022   8.265  65.642  1.00  0.00    -0.067 A  
HETATM   51  C   UNL     1      -7.124   9.488  66.303  1.00  0.00    -0.092 A  
HETATM   52  C   UNL     1      -7.767   8.031  64.489  1.00  0.00    -0.125 A  
HETATM   53  C   UNL     1      -8.617   9.021  63.998  1.00  0.00    -0.161 A  
HETATM   54  C   UNL     1      -8.717  10.248  64.656  1.00  0.00    -0.203 A  
ENDBRANCH  48  49
ENDBRANCH  24  48
ENDBRANCH  22  24
ENDBRANCH   3  20
TORSDOF 18
ENDMDL
MODEL       16
REMARK 921   NORMALIZED FREE ENERGY PREDICTED BY IDOCK:   -5.74 KCAL/MOL
REMARK 922        TOTAL FREE ENERGY PREDICTED BY IDOCK:  -16.39 KCAL/MOL
REMARK 923 INTER-LIGAND FREE ENERGY PREDICTED BY IDOCK:  -14.83 KCAL/MOL
REMARK 924 INTRA-LIGAND FREE ENERGY PREDICTED BY IDOCK:   -1.57 KCAL/MOL
REMARK 927      BINDING AFFINITY PREDICTED BY RF-SCORE:    0.00 PKD
ROOT
HETATM    1  C   UNL     1     -10.155  12.538  64.448  1.00  0.00    -0.284 C  
HETATM    2  C   UNL     1     -11.529  12.070  64.912  1.00  0.00    -0.352 C  
HETATM    3  C   UNL     1     -12.036  12.735  66.215  1.00  0.00    -0.395 C  
HETATM    4  C   UNL     1     -12.522  12.186  63.749  1.00  0.00    -0.620 C  
ENDROOT
BRANCH   3   5
HETATM    5  N   UNL     1     -12.253  14.191  66.175  1.00  0.00    -0.442 N  
HETATM    6  H   UNL     1     -13.131  14.561  66.540  1.00  0.00     0.000 HD 
BRANCH   5   7
HETATM    7  C   UNL     1     -11.335  15.072  65.673  1.00  0.00    -0.297 C  
HETATM    8  O   UNL     1     -11.381  15.458  64.507  1.00  0.00    -0.385 OA 
BRANCH   7   9
HETATM    9  N   UNL     1     -10.308  15.446  66.516  1.00  0.00    -0.280 N  
HETATM   10  C   UNL     1      -8.894  15.132  66.379  1.00  0.00    -0.242 C  
BRANCH   9  11
HETATM   11  C   UNL     1     -10.656  16.296  67.663  1.00  0.00    -0.311 C  
BRANCH  11  12
HETATM   12  C   UNL     1     -10.122  17.694  67.498  1.00  0.00    -0.337 A  
HETATM   13  C   UNL     1     -10.861  18.811  67.148  1.00  0.00    -0.306 A  
HETATM   14  N   UNL     1      -8.779  17.967  67.778  1.00  0.00    -0.248 NA 
HETATM   15  S   UNL     1      -9.884  20.212  67.174  1.00  0.00    -0.467 SA 
HETATM   16  C   UNL     1      -6.136  19.452  66.972  1.00  0.00    -0.183 C  
HETATM   17  C   UNL     1      -8.536  19.258  67.664  1.00  0.00    -0.296 A  
HETATM   18  C   UNL     1      -7.208  19.920  67.954  1.00  0.00    -0.317 C  
HETATM   19  C   UNL     1      -6.772  19.647  69.395  1.00  0.00    -0.389 C  
ENDBRANCH  11  12
ENDBRANCH   9  11
ENDBRANCH   7   9
ENDBRANCH   5   7
ENDBRANCH   3   5
BRANCH   3  20
HETATM   20  C   UNL     1     -11.269  12.226  67.476  1.00  0.00    -0.297 C  
HETATM   21  O   UNL     1     -10.047  12.293  67.602  1.00  0.00    -0.196 OA 
HETATM   22  N   UNL     1     -12.071  11.635  68.433  1.00  0.00    -0.176 N  
HETATM   23  H   UNL     1     -13.058  11.486  68.224  1.00  0.00     0.000 HD 
BRANCH  22  24
HETATM   24  C   UNL     1     -11.554  11.216  69.733  1.00  0.00    -0.334 C  
BRANCH  24  25
HETATM   25  C   UNL     1     -11.026   9.766  69.755  1.00  0.00    -0.287 C  
BRANCH  25  26
HETATM   26  C   UNL     1      -9.712   9.463  70.489  1.00  0.00    -0.271 C  
HETATM   27  H   UNL     1      -7.827   9.866  70.193  1.00  0.00     0.000 HD 
HETATM   28  O   UNL     1      -8.640  10.053  69.739  1.00  0.00    -0.186 OA 
BRANCH  26  29
HETATM   29  C   UNL     1      -9.394   7.962  70.761  1.00  0.00    -0.157 C  
BRANCH  29  30
HETATM   30  N   UNL     1     -10.591   7.157  71.012  1.00  0.00    -0.220 N  
HETATM   31  C   UNL     1     -11.031   6.926  72.287  1.00  0.00    -0.242 C  
HETATM   32  H   UNL     1     -11.104   6.762  70.224  1.00  0.00     0.000 HD 
HETATM   33  O   UNL     1     -10.817   7.664  73.229  1.00  0.00    -0.394 OA 
BRANCH  31  34
HETATM   34  O   UNL     1     -11.685   5.746  72.349  1.00  0.00    -0.301 OA 
BRANCH  34  35
HETATM   35  C   UNL     1     -11.225   4.820  73.354  1.00  0.00    -0.343 C  
BRANCH  35  36
HETATM   36  C   UNL     1     -10.122   3.956  72.840  1.00  0.00    -0.156 A  
HETATM   37  N   UNL     1      -8.740   2.816  71.328  1.00  0.00    -0.064 NA 
HETATM   38  C   UNL     1      -9.849   3.612  71.528  1.00  0.00    -0.157 A  
HETATM   39  C   UNL     1      -8.184   2.556  72.490  1.00  0.00    -0.055 A  
HETATM   40  S   UNL     1      -8.915   3.289  73.859  1.00  0.00    -0.082 SA 
ENDBRANCH  35  36
ENDBRANCH  34  35
ENDBRANCH  31  34
ENDBRANCH  29  30
BRANCH  29  41
HETATM   41  C   UNL     1      -8.503   7.322  69.645  1.00  0.00    -0.133 C  
BRANCH  41  42
HETATM   42  C   UNL     1      -9.200   6.464  68.609  1.00  0.00    -0.125 A  
HETATM   43  C   UNL     1     -10.592   6.255  66.619  1.00  0.00    -0.268 A  
HETATM   44  C   UNL     1     -10.072   7.014  67.662  1.00  0.00    -0.218 A  
HETATM   45  C   UNL     1      -8.954   5.089  68.549  1.00  0.00    -0.125 A  
HETATM   46  C   UNL     1      -9.495   4.313  67.514  1.00  0.00    -0.216 A  
HETATM   47  C   UNL     1     -10.300   4.902  66.540  1.00  0.00    -0.311 A  
ENDBRANCH  41  42
ENDBRANCH  29  41
ENDBRANCH  26  29
ENDBRANCH  25  26
ENDBRANCH  24  25
BRANCH  24  48
HETATM   48  C   UNL     1     -12.603  11.519  70.823  1.00  0.00    -0.390 C  
BRANCH  48  49
HETATM   49  C   UNL     1     -12.729  12.969  71.224  1.00  0.00    -0.385 A  
HETATM   50  C   UNL     1     -13.737  14.681  72.623  1.00  0.00    -0.545 A  
HETATM   51  C   UNL     1     -13.593  13.342  72.262  1.00  0.00    -0.703 A  
HETATM   52  C   UNL     1     -13.023  15.666  71.945  1.00  0.00    -0.541 A  
HETATM   53  C   UNL     1     -12.164  15.311  70.907  1.00  0.00    -0.409 A  
HETATM   54  C   UNL     1     -12.023  13.971  70.541  1.00  0.00    -0.390 A  
ENDBRANCH  48  49
ENDBRANCH  24  48
ENDBRANCH  22  24
ENDBRANCH   3  20
TORSDOF 18
ENDMDL
MODEL       17
REMARK 921   NORMALIZED FREE ENERGY PREDICTED BY IDOCK:   -5.72 KCAL/MOL
REMARK 922        TOTAL FREE ENERGY PREDICTED BY IDOCK:  -16.35 KCAL/MOL
REMARK 923 INTER-LIGAND FREE ENERGY PREDICTED BY IDOCK:  -13.03 KCAL/MOL
REMARK 924 INTRA-LIGAND FREE ENERGY PREDICTED BY IDOCK:   -3.32 KCAL/MOL
REMARK 927      BINDING AFFINITY PREDICTED BY RF-SCORE:    0.00 PKD
ROOT
HETATM    1  C   UNL     1      -7.504  11.844  67.183  1.00  0.00    -0.146 C  
HETATM    2  C   UNL     1      -7.866  10.835  68.265  1.00  0.00    -0.115 C  
HETATM    3  C   UNL     1      -9.072   9.924  67.928  1.00  0.00    -0.131 C  
HETATM    4  C   UNL     1      -6.611  10.050  68.667  1.00  0.00    -0.049 C  
ENDROOT
BRANCH   3   5
HETATM    5  N   UNL     1      -8.921   9.025  66.771  1.00  0.00    -0.132 N  
HETATM    6  H   UNL     1      -8.773   9.440  65.852  1.00  0.00     0.000 HD 
BRANCH   5   7
HETATM    7  C   UNL     1      -8.970   7.662  66.872  1.00  0.00    -0.138 C  
HETATM    8  O   UNL     1      -8.633   6.934  65.941  1.00  0.00    -0.143 OA 
BRANCH   7   9
HETATM    9  N   UNL     1      -9.487   7.144  68.041  1.00  0.00    -0.131 N  
HETATM   10  C   UNL     1     -10.889   6.945  68.374  1.00  0.00    -0.180 C  
BRANCH   9  11
HETATM   11  C   UNL     1      -8.529   6.693  69.059  1.00  0.00    -0.130 C  
BRANCH  11  12
HETATM   12  C   UNL     1      -9.017   5.461  69.774  1.00  0.00    -0.124 A  
HETATM   13  C   UNL     1      -9.100   4.189  69.238  1.00  0.00    -0.127 A  
HETATM   14  N   UNL     1      -9.367   5.531  71.127  1.00  0.00    -0.148 NA 
HETATM   15  S   UNL     1      -9.610   3.068  70.422  1.00  0.00    -0.022 SA 
HETATM   16  C   UNL     1     -11.351   4.707  73.413  1.00  0.00    -0.394 C  
HETATM   17  C   UNL     1      -9.676   4.335  71.587  1.00  0.00    -0.173 A  
HETATM   18  C   UNL     1     -10.042   4.025  73.020  1.00  0.00    -0.212 C  
HETATM   19  C   UNL     1      -8.915   4.441  73.967  1.00  0.00    -0.101 C  
ENDBRANCH  11  12
ENDBRANCH   9  11
ENDBRANCH   7   9
ENDBRANCH   5   7
ENDBRANCH   3   5
BRANCH   3  20
HETATM   20  C   UNL     1     -10.429  10.696  67.981  1.00  0.00    -0.196 C  
HETATM   21  O   UNL     1     -11.256  10.678  67.071  1.00  0.00    -0.266 OA 
HETATM   22  N   UNL     1     -10.610  11.456  69.119  1.00  0.00    -0.341 N  
HETATM   23  H   UNL     1      -9.840  11.541  69.782  1.00  0.00     0.000 HD 
BRANCH  22  24
HETATM   24  C   UNL     1     -11.866  12.143  69.407  1.00  0.00    -0.309 C  
BRANCH  24  25
HETATM   25  C   UNL     1     -11.862  13.637  69.023  1.00  0.00    -0.393 C  
BRANCH  25  26
HETATM   26  C   UNL     1     -10.756  14.165  68.098  1.00  0.00    -0.245 C  
HETATM   27  H   UNL     1      -8.916  14.767  68.329  1.00  0.00     0.000 HD 
HETATM   28  O   UNL     1      -9.600  14.440  68.902  1.00  0.00    -0.198 OA 
BRANCH  26  29
HETATM   29  C   UNL     1     -11.105  15.419  67.239  1.00  0.00    -0.302 C  
BRANCH  29  30
HETATM   30  N   UNL     1      -9.926  16.184  66.833  1.00  0.00    -0.247 N  
HETATM   31  C   UNL     1      -9.972  17.547  66.720  1.00  0.00    -0.313 C  
HETATM   32  H   UNL     1      -9.055  15.692  66.630  1.00  0.00     0.000 HD 
HETATM   33  O   UNL     1     -10.740  18.258  67.338  1.00  0.00    -0.412 OA 
BRANCH  31  34
HETATM   34  O   UNL     1      -9.085  17.970  65.795  1.00  0.00    -0.482 OA 
BRANCH  34  35
HETATM   35  C   UNL     1      -7.692  17.805  66.132  1.00  0.00    -0.245 C  
BRANCH  35  36
HETATM   36  C   UNL     1      -7.159  18.997  66.857  1.00  0.00    -0.205 A  
HETATM   37  N   UNL     1      -6.744  21.238  67.404  1.00  0.00    -0.548 NA 
HETATM   38  C   UNL     1      -7.324  20.332  66.539  1.00  0.00    -0.261 A  
HETATM   39  C   UNL     1      -6.137  20.582  68.368  1.00  0.00    -0.319 A  
HETATM   40  S   UNL     1      -6.277  18.872  68.322  1.00  0.00    -0.218 SA 
ENDBRANCH  35  36
ENDBRANCH  34  35
ENDBRANCH  31  34
ENDBRANCH  29  30
BRANCH  29  41
HETATM   41  C   UNL     1     -12.011  15.075  66.011  1.00  0.00     0.060 C  
BRANCH  41  42
HETATM   42  C   UNL     1     -11.634  13.860  65.190  1.00  0.00    -0.340 A  
HETATM   43  C   UNL     1     -12.273  11.919  63.861  1.00  0.00    -0.497 A  
HETATM   44  C   UNL     1     -12.596  12.947  64.739  1.00  0.00    -0.493 A  
HETATM   45  C   UNL     1     -10.303  13.638  64.825  1.00  0.00    -0.414 A  
HETATM   46  C   UNL     1      -9.967  12.588  63.960  1.00  0.00    -0.225 A  
HETATM   47  C   UNL     1     -10.956  11.740  63.464  1.00  0.00    -0.499 A  
ENDBRANCH  41  42
ENDBRANCH  29  41
ENDBRANCH  26  29
ENDBRANCH  25  26
ENDBRANCH  24  25
BRANCH  24  48
HETATM   48  C   UNL     1     -12.275  11.871  70.869  1.00  0.00    -0.351 C  
BRANCH  48  49
HETATM   49  C   UNL     1     -12.514  10.423  71.224  1.00  0.00    -0.521 A  
HETATM   50  C   UNL     1     -14.050   8.575  71.587  1.00  0.00    -0.482 A  
HETATM   51  C   UNL     1     -13.816   9.904  71.235  1.00  0.00    -0.050 A  
HETATM   52  C   UNL     1     -12.986   7.749  71.939  1.00  0.00    -0.309 A  
HETATM   53  C   UNL     1     -11.686   8.253  71.939  1.00  0.00    -0.381 A  
HETATM   54  C   UNL     1     -11.450   9.584  71.591  1.00  0.00    -0.433 A  
ENDBRANCH  48  49
ENDBRANCH  24  48
ENDBRANCH  22  24
ENDBRANCH   3  20
TORSDOF 18
ENDMDL
MODEL       18
REMARK 921   NORMALIZED FREE ENERGY PREDICTED BY IDOCK:   -5.66 KCAL/MOL
REMARK 922        TOTAL FREE ENERGY PREDICTED BY IDOCK:  -16.22 KCAL/MOL
REMARK 923 INTER-LIGAND FREE ENERGY PREDICTED BY IDOCK:  -12.13 KCAL/MOL
REMARK 924 INTRA-LIGAND FREE ENERGY PREDICTED BY IDOCK:   -4.08 KCAL/MOL
REMARK 927      BINDING AFFINITY PREDICTED BY RF-SCORE:    0.00 PKD
ROOT
HETATM    1  C   UNL     1     -12.170  14.216  63.716  1.00  0.00    -0.183 C  
HETATM    2  C   UNL     1     -11.321  13.041  64.185  1.00  0.00    -0.442 C  
HETATM    3  C   UNL     1     -11.000  13.034  65.699  1.00  0.00    -0.273 C  
HETATM    4  C   UNL     1     -11.954  11.733  63.695  1.00  0.00    -0.490 C  
ENDROOT
BRANCH   3   5
HETATM    5  N   UNL     1     -12.144  12.914  66.619  1.00  0.00    -0.358 N  
HETATM    6  H   UNL     1     -13.084  12.897  66.224  1.00  0.00     0.000 HD 
BRANCH   5   7
HETATM    7  C   UNL     1     -12.007  12.826  67.977  1.00  0.00    -0.264 C  
HETATM    8  O   UNL     1     -12.244  13.780  68.714  1.00  0.00    -0.350 OA 
BRANCH   7   9
HETATM    9  N   UNL     1     -11.514  11.636  68.474  1.00  0.00    -0.270 N  
HETATM   10  C   UNL     1     -11.362  10.377  67.761  1.00  0.00    -0.128 C  
BRANCH   9  11
HETATM   11  C   UNL     1     -11.042  11.632  69.865  1.00  0.00     0.048 C  
BRANCH  11  12
HETATM   12  C   UNL     1     -11.776  10.614  70.697  1.00  0.00    -0.356 A  
HETATM   13  C   UNL     1     -13.106  10.676  71.072  1.00  0.00    -0.286 A  
HETATM   14  N   UNL     1     -11.127   9.442  71.099  1.00  0.00    -0.331 NA 
HETATM   15  S   UNL     1     -13.558   9.267  71.925  1.00  0.00    -0.423 SA 
HETATM   16  C   UNL     1     -10.577   7.342  73.364  1.00  0.00    -0.427 C  
HETATM   17  C   UNL     1     -11.963   8.645  71.733  1.00  0.00    -0.336 A  
HETATM   18  C   UNL     1     -11.623   7.267  72.254  1.00  0.00    -0.315 C  
HETATM   19  C   UNL     1     -11.135   6.366  71.117  1.00  0.00    -0.344 C  
ENDBRANCH  11  12
ENDBRANCH   9  11
ENDBRANCH   7   9
ENDBRANCH   5   7
ENDBRANCH   3   5
BRANCH   3  20
HETATM   20  C   UNL     1      -9.963  14.134  66.089  1.00  0.00    -0.314 C  
HETATM   21  O   UNL     1      -9.862  15.211  65.503  1.00  0.00    -0.338 OA 
HETATM   22  N   UNL     1      -9.117  13.782  67.122  1.00  0.00    -0.230 N  
HETATM   23  H   UNL     1      -9.155  12.830  67.487  1.00  0.00     0.000 HD 
BRANCH  22  24
HETATM   24  C   UNL     1      -8.171  14.725  67.711  1.00  0.00    -0.159 C  
BRANCH  24  25
HETATM   25  C   UNL     1      -6.863  14.071  68.203  1.00  0.00    -0.122 C  
BRANCH  25  26
HETATM   26  C   UNL     1      -6.943  12.872  69.159  1.00  0.00    -0.015 C  
HETATM   27  H   UNL     1      -6.046  12.344  70.807  1.00  0.00     0.000 HD 
HETATM   28  O   UNL     1      -5.997  13.085  70.216  1.00  0.00    -0.156 OA 
BRANCH  26  29
HETATM   29  C   UNL     1      -6.717  11.463  68.532  1.00  0.00    -0.069 C  
BRANCH  29  30
HETATM   30  N   UNL     1      -7.829  10.542  68.770  1.00  0.00    -0.108 N  
HETATM   31  C   UNL     1      -7.810   9.670  69.825  1.00  0.00    -0.142 C  
HETATM   32  H   UNL     1      -8.632  10.550  68.140  1.00  0.00     0.000 HD 
HETATM   33  O   UNL     1      -7.191   9.855  70.854  1.00  0.00    -0.330 OA 
BRANCH  31  34
HETATM   34  O   UNL     1      -8.529   8.566  69.531  1.00  0.00    -0.123 OA 
BRANCH  34  35
HETATM   35  C   UNL     1      -7.942   7.665  68.569  1.00  0.00    -0.123 C  
BRANCH  35  36
HETATM   36  C   UNL     1      -8.973   6.780  67.949  1.00  0.00    -0.113 A  
HETATM   37  N   UNL     1     -10.978   6.107  66.940  1.00  0.00    -0.345 NA 
HETATM   38  C   UNL     1     -10.236   7.125  67.504  1.00  0.00    -0.212 A  
HETATM   39  C   UNL     1     -10.275   4.996  66.969  1.00  0.00    -0.208 A  
HETATM   40  S   UNL     1      -8.688   5.124  67.609  1.00  0.00    -0.102 SA 
ENDBRANCH  35  36
ENDBRANCH  34  35
ENDBRANCH  31  34
ENDBRANCH  29  30
BRANCH  29  41
HETATM   41  C   UNL     1      -6.351  11.531  67.012  1.00  0.00    -0.133 C  
BRANCH  41  42
HETATM   42  C   UNL     1      -6.969  10.488  66.103  1.00  0.00    -0.131 A  
HETATM   43  C   UNL     1      -6.915   8.284  65.064  1.00  0.00    -0.074 A  
HETATM   44  C   UNL     1      -6.294   9.307  65.771  1.00  0.00    -0.067 A  
HETATM   45  C   UNL     1      -8.261  10.664  65.600  1.00  0.00    -0.154 A  
HETATM   46  C   UNL     1      -8.884   9.647  64.865  1.00  0.00    -0.234 A  
HETATM   47  C   UNL     1      -8.216   8.449  64.614  1.00  0.00    -0.157 A  
ENDBRANCH  41  42
ENDBRANCH  29  41
ENDBRANCH  26  29
ENDBRANCH  25  26
ENDBRANCH  24  25
BRANCH  24  48
HETATM   48  C   UNL     1      -8.890  15.572  68.781  1.00  0.00    -0.203 C  
BRANCH  48  49
HETATM   49  C   UNL     1      -9.133  17.018  68.417  1.00  0.00    -0.256 A  
HETATM   50  C   UNL     1      -8.321  19.300  68.226  1.00  0.00    -0.373 A  
HETATM   51  C   UNL     1      -8.101  17.958  68.534  1.00  0.00    -0.305 A  
HETATM   52  C   UNL     1      -9.580  19.721  67.804  1.00  0.00    -0.469 A  
HETATM   53  C   UNL     1     -10.618  18.798  67.688  1.00  0.00    -0.481 A  
HETATM   54  C   UNL     1     -10.400  17.454  68.000  1.00  0.00    -0.362 A  
ENDBRANCH  48  49
ENDBRANCH  24  48
ENDBRANCH  22  24
ENDBRANCH   3  20
TORSDOF 18
ENDMDL
MODEL       19
REMARK 921   NORMALIZED FREE ENERGY PREDICTED BY IDOCK:   -5.57 KCAL/MOL
REMARK 922        TOTAL FREE ENERGY PREDICTED BY IDOCK:  -16.04 KCAL/MOL
REMARK 923 INTER-LIGAND FREE ENERGY PREDICTED BY IDOCK:  -13.75 KCAL/MOL
REMARK 924 INTRA-LIGAND FREE ENERGY PREDICTED BY IDOCK:   -2.29 KCAL/MOL
REMARK 927      BINDING AFFINITY PREDICTED BY RF-SCORE:    0.00 PKD
ROOT
HETATM    1  C   UNL     1     -10.234  12.517  64.688  1.00  0.00    -0.315 C  
HETATM    2  C   UNL     1     -11.628  12.159  65.187  1.00  0.00    -0.372 C  
HETATM    3  C   UNL     1     -12.084  12.928  66.451  1.00  0.00    -0.329 C  
HETATM    4  C   UNL     1     -12.624  12.262  64.025  1.00  0.00    -0.521 C  
ENDROOT
BRANCH   3   5
HETATM    5  N   UNL     1     -12.218  14.389  66.326  1.00  0.00    -0.389 N  
HETATM    6  H   UNL     1     -13.066  14.830  66.679  1.00  0.00     0.000 HD 
BRANCH   5   7
HETATM    7  C   UNL     1     -11.259  15.182  65.758  1.00  0.00    -0.287 C  
HETATM    8  O   UNL     1     -11.283  15.471  64.564  1.00  0.00    -0.393 OA 
BRANCH   7   9
HETATM    9  N   UNL     1     -10.219  15.580  66.575  1.00  0.00    -0.273 N  
HETATM   10  C   UNL     1      -8.798  15.345  66.372  1.00  0.00    -0.305 C  
BRANCH   9  11
HETATM   11  C   UNL     1     -10.563  16.371  67.763  1.00  0.00    -0.321 C  
BRANCH  11  12
HETATM   12  C   UNL     1     -10.048  17.782  67.658  1.00  0.00    -0.342 A  
HETATM   13  C   UNL     1     -10.780  18.888  67.265  1.00  0.00    -0.449 A  
HETATM   14  N   UNL     1      -8.737  18.078  68.046  1.00  0.00    -0.255 NA 
HETATM   15  S   UNL     1      -9.838  20.309  67.384  1.00  0.00    -0.440 SA 
HETATM   16  C   UNL     1      -6.071  19.627  67.467  1.00  0.00    -0.210 C  
HETATM   17  C   UNL     1      -8.513  19.375  67.968  1.00  0.00    -0.320 A  
HETATM   18  C   UNL     1      -7.226  20.059  68.368  1.00  0.00    -0.297 C  
HETATM   19  C   UNL     1      -6.898  19.775  69.835  1.00  0.00    -0.203 C  
ENDBRANCH  11  12
ENDBRANCH   9  11
ENDBRANCH   7   9
ENDBRANCH   5   7
ENDBRANCH   3   5
BRANCH   3  20
HETATM   20  C   UNL     1     -11.336  12.450  67.736  1.00  0.00    -0.299 C  
HETATM   21  O   UNL     1     -10.169  12.743  67.992  1.00  0.00    -0.215 OA 
HETATM   22  N   UNL     1     -12.076  11.616  68.551  1.00  0.00    -0.209 N  
HETATM   23  H   UNL     1     -12.990  11.298  68.230  1.00  0.00     0.000 HD 
BRANCH  22  24
HETATM   24  C   UNL     1     -11.594  11.173  69.856  1.00  0.00    -0.337 C  
BRANCH  24  25
HETATM   25  C   UNL     1     -11.159   9.693  69.890  1.00  0.00    -0.268 C  
BRANCH  25  26
HETATM   26  C   UNL     1      -9.731   9.327  69.463  1.00  0.00    -0.173 C  
HETATM   27  H   UNL     1      -8.098  10.316  69.068  1.00  0.00     0.000 HD 
HETATM   28  O   UNL     1      -8.981  10.543  69.333  1.00  0.00    -0.170 OA 
BRANCH  26  29
HETATM   29  C   UNL     1      -9.587   8.483  68.159  1.00  0.00    -0.143 C  
BRANCH  29  30
HETATM   30  N   UNL     1     -10.305   7.209  68.217  1.00  0.00    -0.188 N  
HETATM   31  C   UNL     1      -9.653   6.044  68.515  1.00  0.00    -0.121 C  
HETATM   32  H   UNL     1     -11.308   7.190  68.031  1.00  0.00     0.000 HD 
HETATM   33  O   UNL     1      -8.633   5.981  69.174  1.00  0.00    -0.116 OA 
BRANCH  31  34
HETATM   34  O   UNL     1     -10.275   4.997  67.932  1.00  0.00    -0.148 OA 
BRANCH  34  35
HETATM   35  C   UNL     1     -10.483   5.098  66.508  1.00  0.00    -0.294 C  
BRANCH  35  36
HETATM   36  C   UNL     1      -9.254   4.725  65.747  1.00  0.00    -0.149 A  
HETATM   37  N   UNL     1      -7.318   4.947  64.445  1.00  0.00    -0.058 NA 
HETATM   38  C   UNL     1      -8.408   5.555  65.035  1.00  0.00    -0.146 A  
HETATM   39  C   UNL     1      -7.351   3.659  64.707  1.00  0.00    -0.068 A  
HETATM   40  S   UNL     1      -8.637   3.126  65.710  1.00  0.00    -0.123 SA 
ENDBRANCH  35  36
ENDBRANCH  34  35
ENDBRANCH  31  34
ENDBRANCH  29  30
BRANCH  29  41
HETATM   41  C   UNL     1      -9.965   9.291  66.874  1.00  0.00    -0.298 C  
BRANCH  41  42
HETATM   42  C   UNL     1      -8.865   9.539  65.862  1.00  0.00    -0.193 A  
HETATM   43  C   UNL     1      -6.585  10.221  65.336  1.00  0.00    -0.122 A  
HETATM   44  C   UNL     1      -7.650  10.132  66.226  1.00  0.00    -0.111 A  
HETATM   45  C   UNL     1      -9.024   9.139  64.532  1.00  0.00    -0.129 A  
HETATM   46  C   UNL     1      -7.962   9.249  63.624  1.00  0.00    -0.141 A  
HETATM   47  C   UNL     1      -6.737   9.774  64.033  1.00  0.00    -0.120 A  
ENDBRANCH  41  42
ENDBRANCH  29  41
ENDBRANCH  26  29
ENDBRANCH  25  26
ENDBRANCH  24  25
BRANCH  24  48
HETATM   48  C   UNL     1     -12.628  11.549  70.938  1.00  0.00    -0.438 C  
BRANCH  48  49
HETATM   49  C   UNL     1     -12.733  13.021  71.259  1.00  0.00    -0.385 A  
HETATM   50  C   UNL     1     -13.721  14.822  72.557  1.00  0.00    -0.572 A  
HETATM   51  C   UNL     1     -13.596  13.463  72.271  1.00  0.00    -0.703 A  
HETATM   52  C   UNL     1     -12.990  15.757  71.830  1.00  0.00    -0.505 A  
HETATM   53  C   UNL     1     -12.132  15.333  70.816  1.00  0.00    -0.399 A  
HETATM   54  C   UNL     1     -12.009  13.973  70.525  1.00  0.00    -0.390 A  
ENDBRANCH  48  49
ENDBRANCH  24  48
ENDBRANCH  22  24
ENDBRANCH   3  20
TORSDOF 18
ENDMDL
MODEL       20
REMARK 921   NORMALIZED FREE ENERGY PREDICTED BY IDOCK:   -5.55 KCAL/MOL
REMARK 922        TOTAL FREE ENERGY PREDICTED BY IDOCK:  -16.00 KCAL/MOL
REMARK 923 INTER-LIGAND FREE ENERGY PREDICTED BY IDOCK:  -13.47 KCAL/MOL
REMARK 924 INTRA-LIGAND FREE ENERGY PREDICTED BY IDOCK:   -2.53 KCAL/MOL
REMARK 927      BINDING AFFINITY PREDICTED BY RF-SCORE:    0.00 PKD
ROOT
HETATM    1  C   UNL     1     -10.218  12.222  63.464  1.00  0.00    -0.410 C  
HETATM    2  C   UNL     1     -11.431  11.804  64.286  1.00  0.00    -0.386 C  
HETATM    3  C   UNL     1     -11.509  12.435  65.698  1.00  0.00    -0.367 C  
HETATM    4  C   UNL     1     -12.703  12.020  63.457  1.00  0.00    -0.567 C  
ENDROOT
BRANCH   3   5
HETATM    5  N   UNL     1     -11.640  13.900  65.763  1.00  0.00    -0.328 N  
HETATM    6  H   UNL     1     -11.911  14.401  64.917  1.00  0.00     0.000 HD 
BRANCH   5   7
HETATM    7  C   UNL     1     -11.418  14.622  66.903  1.00  0.00    -0.363 C  
HETATM    8  O   UNL     1     -12.213  14.611  67.840  1.00  0.00    -0.241 OA 
BRANCH   7   9
HETATM    9  N   UNL     1     -10.295  15.424  66.920  1.00  0.00    -0.272 N  
HETATM   10  C   UNL     1      -9.440  15.770  65.795  1.00  0.00    -0.299 C  
BRANCH   9  11
HETATM   11  C   UNL     1      -9.932  16.046  68.200  1.00  0.00    -0.228 C  
BRANCH  11  12
HETATM   12  C   UNL     1      -9.557  17.494  68.027  1.00  0.00    -0.282 A  
HETATM   13  C   UNL     1     -10.395  18.506  67.592  1.00  0.00    -0.410 A  
HETATM   14  N   UNL     1      -8.278  17.932  68.387  1.00  0.00    -0.293 NA 
HETATM   15  S   UNL     1      -9.593  20.014  67.638  1.00  0.00    -0.403 SA 
HETATM   16  C   UNL     1      -5.777  19.701  67.712  1.00  0.00    -0.209 C  
HETATM   17  C   UNL     1      -8.181  19.239  68.249  1.00  0.00    -0.337 A  
HETATM   18  C   UNL     1      -6.963  20.061  68.605  1.00  0.00    -0.319 C  
HETATM   19  C   UNL     1      -6.600  19.877  70.080  1.00  0.00    -0.302 C  
ENDBRANCH  11  12
ENDBRANCH   9  11
ENDBRANCH   7   9
ENDBRANCH   5   7
ENDBRANCH   3   5
BRANCH   3  20
HETATM   20  C   UNL     1     -10.450  11.832  66.674  1.00  0.00    -0.224 C  
HETATM   21  O   UNL     1      -9.243  12.048  66.586  1.00  0.00    -0.201 OA 
HETATM   22  N   UNL     1     -10.972  10.979  67.627  1.00  0.00    -0.255 N  
HETATM   23  H   UNL     1     -11.960  10.730  67.577  1.00  0.00     0.000 HD 
BRANCH  22  24
HETATM   24  C   UNL     1     -10.158  10.422  68.704  1.00  0.00    -0.176 C  
BRANCH  24  25
HETATM   25  C   UNL     1      -9.050   9.467  68.217  1.00  0.00    -0.128 C  
BRANCH  25  26
HETATM   26  C   UNL     1      -9.441   8.219  67.413  1.00  0.00    -0.151 C  
HETATM   27  H   UNL     1     -11.092   7.517  66.649  1.00  0.00     0.000 HD 
HETATM   28  O   UNL     1     -10.850   8.289  67.147  1.00  0.00    -0.244 OA 
BRANCH  26  29
HETATM   29  C   UNL     1      -9.098   6.839  68.052  1.00  0.00    -0.119 C  
BRANCH  29  30
HETATM   30  N   UNL     1      -8.249   6.951  69.239  1.00  0.00    -0.123 N  
HETATM   31  C   UNL     1      -6.917   6.640  69.186  1.00  0.00    -0.078 C  
HETATM   32  H   UNL     1      -8.657   7.266  70.120  1.00  0.00     0.000 HD 
HETATM   33  O   UNL     1      -6.240   6.703  68.179  1.00  0.00    -0.030 OA 
BRANCH  31  34
HETATM   34  O   UNL     1      -6.489   6.210  70.392  1.00  0.00    -0.037 OA 
BRANCH  34  35
HETATM   35  C   UNL     1      -6.162   7.237  71.350  1.00  0.00    -0.036 C  
BRANCH  35  36
HETATM   36  C   UNL     1      -7.051   7.171  72.548  1.00  0.00    -0.068 A  
HETATM   37  N   UNL     1      -8.638   7.809  74.150  1.00  0.00    -0.254 NA 
HETATM   38  C   UNL     1      -7.904   8.146  73.031  1.00  0.00    -0.154 A  
HETATM   39  C   UNL     1      -8.330   6.584  74.513  1.00  0.00    -0.140 A  
HETATM   40  S   UNL     1      -7.205   5.761  73.512  1.00  0.00    -0.087 SA 
ENDBRANCH  35  36
ENDBRANCH  34  35
ENDBRANCH  31  34
ENDBRANCH  29  30
BRANCH  29  41
HETATM   41  C   UNL     1     -10.370   5.976  68.343  1.00  0.00    -0.252 C  
BRANCH  41  42
HETATM   42  C   UNL     1     -10.778   5.809  69.792  1.00  0.00    -0.418 A  
HETATM   43  C   UNL     1     -10.464   4.773  71.976  1.00  0.00    -0.225 A  
HETATM   44  C   UNL     1     -10.204   4.830  70.611  1.00  0.00    -0.250 A  
HETATM   45  C   UNL     1     -11.723   6.666  70.364  1.00  0.00    -0.446 A  
HETATM   46  C   UNL     1     -12.009   6.598  71.734  1.00  0.00    -0.391 A  
HETATM   47  C   UNL     1     -11.364   5.662  72.543  1.00  0.00    -0.349 A  
ENDBRANCH  41  42
ENDBRANCH  29  41
ENDBRANCH  26  29
ENDBRANCH  25  26
ENDBRANCH  24  25
BRANCH  24  48
HETATM   48  C   UNL     1     -11.081   9.817  69.783  1.00  0.00    -0.272 C  
BRANCH  48  49
HETATM   49  C   UNL     1     -11.912  10.806  70.564  1.00  0.00    -0.456 A  
HETATM   50  C   UNL     1     -12.535  13.104  71.049  1.00  0.00    -0.406 A  
HETATM   51  C   UNL     1     -11.793  12.180  70.315  1.00  0.00    -0.339 A  
HETATM   52  C   UNL     1     -13.402  12.667  72.046  1.00  0.00    -0.555 A  
HETATM   53  C   UNL     1     -13.527  11.304  72.310  1.00  0.00    -0.026 A  
HETATM   54  C   UNL     1     -12.781  10.377  71.579  1.00  0.00    -0.564 A  
ENDBRANCH  48  49
ENDBRANCH  24  48
ENDBRANCH  22  24
ENDBRANCH   3  20
TORSDOF 18
ENDMDL
MODEL       21
REMARK 921   NORMALIZED FREE ENERGY PREDICTED BY IDOCK:   -5.52 KCAL/MOL
REMARK 922        TOTAL FREE ENERGY PREDICTED BY IDOCK:  -15.95 KCAL/MOL
REMARK 923 INTER-LIGAND FREE ENERGY PREDICTED BY IDOCK:  -14.27 KCAL/MOL
REMARK 924 INTRA-LIGAND FREE ENERGY PREDICTED BY IDOCK:   -1.68 KCAL/MOL
REMARK 927      BINDING AFFINITY PREDICTED BY RF-SCORE:    0.00 PKD
ROOT
HETATM    1  C   UNL     1     -10.212  12.647  64.238  1.00  0.00    -0.358 C  
HETATM    2  C   UNL     1     -11.579  12.248  64.779  1.00  0.00    -0.393 C  
HETATM    3  C   UNL     1     -11.976  12.931  66.111  1.00  0.00    -0.429 C  
HETATM    4  C   UNL     1     -12.630  12.421  63.675  1.00  0.00    -0.550 C  
ENDROOT
BRANCH   3   5
HETATM    5  N   UNL     1     -12.120  14.396  66.088  1.00  0.00    -0.387 N  
HETATM    6  H   UNL     1     -12.967  14.806  66.480  1.00  0.00     0.000 HD 
BRANCH   5   7
HETATM    7  C   UNL     1     -11.173  15.233  65.566  1.00  0.00    -0.277 C  
HETATM    8  O   UNL     1     -11.222  15.616  64.399  1.00  0.00    -0.363 OA 
BRANCH   7   9
HETATM    9  N   UNL     1     -10.116  15.565  66.389  1.00  0.00    -0.273 N  
HETATM   10  C   UNL     1      -8.715  15.214  66.213  1.00  0.00    -0.090 C  
BRANCH   9  11
HETATM   11  C   UNL     1     -10.412  16.406  67.556  1.00  0.00    -0.304 C  
BRANCH  11  12
HETATM   12  C   UNL     1      -9.941  17.822  67.353  1.00  0.00    -0.323 A  
HETATM   13  C   UNL     1     -10.744  18.916  67.085  1.00  0.00    -0.432 A  
HETATM   14  N   UNL     1      -8.586  18.136  67.506  1.00  0.00    -0.247 NA 
HETATM   15  S   UNL     1      -9.814  20.348  67.028  1.00  0.00    -0.391 SA 
HETATM   16  C   UNL     1      -6.081  19.710  66.463  1.00  0.00    -0.164 C  
HETATM   17  C   UNL     1      -8.396  19.435  67.380  1.00  0.00    -0.292 A  
HETATM   18  C   UNL     1      -7.068  20.138  67.547  1.00  0.00    -0.311 C  
HETATM   19  C   UNL     1      -6.487  19.871  68.937  1.00  0.00    -0.347 C  
ENDBRANCH  11  12
ENDBRANCH   9  11
ENDBRANCH   7   9
ENDBRANCH   5   7
ENDBRANCH   3   5
BRANCH   3  20
HETATM   20  C   UNL     1     -11.166  12.375  67.324  1.00  0.00    -0.303 C  
HETATM   21  O   UNL     1      -9.949  12.506  67.446  1.00  0.00    -0.204 OA 
HETATM   22  N   UNL     1     -11.920  11.667  68.239  1.00  0.00    -0.255 N  
HETATM   23  H   UNL     1     -12.899  11.475  68.027  1.00  0.00     0.000 HD 
BRANCH  22  24
HETATM   24  C   UNL     1     -11.365  11.183  69.500  1.00  0.00    -0.290 C  
BRANCH  24  25
HETATM   25  C   UNL     1     -10.812   9.745  69.426  1.00  0.00    -0.256 C  
BRANCH  25  26
HETATM   26  C   UNL     1      -9.294   9.534  69.328  1.00  0.00    -0.169 C  
HETATM   27  H   UNL     1      -7.727  10.693  69.296  1.00  0.00     0.000 HD 
HETATM   28  O   UNL     1      -8.665  10.823  69.358  1.00  0.00    -0.095 OA 
BRANCH  26  29
HETATM   29  C   UNL     1      -8.780   8.730  68.095  1.00  0.00    -0.134 C  
BRANCH  29  30
HETATM   30  N   UNL     1      -8.771   7.284  68.314  1.00  0.00    -0.126 N  
HETATM   31  C   UNL     1      -9.928   6.555  68.270  1.00  0.00    -0.143 C  
HETATM   32  H   UNL     1      -7.886   6.811  68.503  1.00  0.00     0.000 HD 
HETATM   33  O   UNL     1     -10.915   6.877  67.637  1.00  0.00    -0.256 OA 
BRANCH  31  34
HETATM   34  O   UNL     1      -9.828   5.469  69.066  1.00  0.00    -0.140 OA 
BRANCH  34  35
HETATM   35  C   UNL     1      -9.144   5.666  70.321  1.00  0.00    -0.143 C  
BRANCH  35  36
HETATM   36  C   UNL     1      -9.933   6.535  71.244  1.00  0.00    -0.181 A  
HETATM   37  N   UNL     1     -10.418   8.168  72.854  1.00  0.00    -0.328 NA 
HETATM   38  C   UNL     1      -9.460   7.479  72.138  1.00  0.00    -0.147 A  
HETATM   39  C   UNL     1     -11.609   7.737  72.504  1.00  0.00    -0.367 A  
HETATM   40  S   UNL     1     -11.647   6.542  71.272  1.00  0.00    -0.328 SA 
ENDBRANCH  35  36
ENDBRANCH  34  35
ENDBRANCH  31  34
ENDBRANCH  29  30
BRANCH  29  41
HETATM   41  C   UNL     1      -9.536   9.100  66.776  1.00  0.00    -0.253 C  
BRANCH  41  42
HETATM   42  C   UNL     1      -8.694   9.514  65.587  1.00  0.00    -0.173 A  
HETATM   43  C   UNL     1      -6.591  10.325  64.659  1.00  0.00    -0.092 A  
HETATM   44  C   UNL     1      -7.426  10.086  65.745  1.00  0.00    -0.121 A  
HETATM   45  C   UNL     1      -9.153   9.296  64.284  1.00  0.00    -0.076 A  
HETATM   46  C   UNL     1      -8.326   9.558  63.184  1.00  0.00    -0.180 A  
HETATM   47  C   UNL     1      -7.037  10.056  63.375  1.00  0.00    -0.129 A  
ENDBRANCH  41  42
ENDBRANCH  29  41
ENDBRANCH  26  29
ENDBRANCH  25  26
ENDBRANCH  24  25
BRANCH  24  48
HETATM   48  C   UNL     1     -12.391  11.404  70.630  1.00  0.00    -0.466 C  
BRANCH  48  49
HETATM   49  C   UNL     1     -12.658  12.844  70.999  1.00  0.00    -0.376 A  
HETATM   50  C   UNL     1     -13.784  14.479  72.400  1.00  0.00    -0.583 A  
HETATM   51  C   UNL     1     -13.510  13.153  72.068  1.00  0.00    -0.598 A  
HETATM   52  C   UNL     1     -13.217  15.514  71.662  1.00  0.00    -0.575 A  
HETATM   53  C   UNL     1     -12.372  15.223  70.592  1.00  0.00    -0.427 A  
HETATM   54  C   UNL     1     -12.100  13.896  70.255  1.00  0.00    -0.423 A  
ENDBRANCH  48  49
ENDBRANCH  24  48
ENDBRANCH  22  24
ENDBRANCH   3  20
TORSDOF 18
ENDMDL
MODEL       22
REMARK 921   NORMALIZED FREE ENERGY PREDICTED BY IDOCK:   -5.52 KCAL/MOL
REMARK 922        TOTAL FREE ENERGY PREDICTED BY IDOCK:  -15.93 KCAL/MOL
REMARK 923 INTER-LIGAND FREE ENERGY PREDICTED BY IDOCK:  -12.37 KCAL/MOL
REMARK 924 INTRA-LIGAND FREE ENERGY PREDICTED BY IDOCK:   -3.57 KCAL/MOL
REMARK 927      BINDING AFFINITY PREDICTED BY RF-SCORE:    0.00 PKD
ROOT
HETATM    1  C   UNL     1      -9.711   8.616  67.144  1.00  0.00    -0.248 C  
HETATM    2  C   UNL     1      -9.902   7.702  68.349  1.00  0.00    -0.176 C  
HETATM    3  C   UNL     1     -10.273   8.430  69.664  1.00  0.00    -0.209 C  
HETATM    4  C   UNL     1     -10.881   6.580  67.982  1.00  0.00    -0.372 C  
ENDROOT
BRANCH   3   5
HETATM    5  N   UNL     1     -11.553   9.157  69.681  1.00  0.00    -0.389 N  
HETATM    6  H   UNL     1     -12.001   9.372  68.790  1.00  0.00     0.000 HD 
BRANCH   5   7
HETATM    7  C   UNL     1     -12.171   9.559  70.833  1.00  0.00    -0.254 C  
HETATM    8  O   UNL     1     -11.962  10.665  71.326  1.00  0.00    -0.331 OA 
BRANCH   7   9
HETATM    9  N   UNL     1     -12.981   8.632  71.458  1.00  0.00    -0.325 N  
HETATM   10  C   UNL     1     -14.157   8.895  72.273  1.00  0.00    -0.442 C  
BRANCH   9  11
HETATM   11  C   UNL     1     -12.665   7.213  71.249  1.00  0.00    -0.366 C  
BRANCH  11  12
HETATM   12  C   UNL     1     -11.662   6.714  72.255  1.00  0.00    -0.269 A  
HETATM   13  C   UNL     1     -11.075   7.464  73.259  1.00  0.00    -0.255 A  
HETATM   14  N   UNL     1     -11.302   5.363  72.271  1.00  0.00    -0.186 NA 
HETATM   15  S   UNL     1     -10.074   6.483  74.236  1.00  0.00    -0.331 SA 
HETATM   16  C   UNL     1      -9.035   3.211  72.540  1.00  0.00    -0.116 C  
HETATM   17  C   UNL     1     -10.489   5.113  73.278  1.00  0.00    -0.218 A  
HETATM   18  C   UNL     1      -9.949   3.748  73.639  1.00  0.00    -0.166 C  
HETATM   19  C   UNL     1     -11.093   2.769  73.912  1.00  0.00    -0.258 C  
ENDBRANCH  11  12
ENDBRANCH   9  11
ENDBRANCH   7   9
ENDBRANCH   5   7
ENDBRANCH   3   5
BRANCH   3  20
HETATM   20  C   UNL     1      -9.067   9.220  70.263  1.00  0.00    -0.237 C  
HETATM   21  O   UNL     1      -8.776   9.213  71.458  1.00  0.00    -0.334 OA 
HETATM   22  N   UNL     1      -8.372   9.983  69.346  1.00  0.00    -0.151 N  
HETATM   23  H   UNL     1      -8.731  10.058  68.395  1.00  0.00     0.000 HD 
BRANCH  22  24
HETATM   24  C   UNL     1      -7.139  10.687  69.692  1.00  0.00    -0.143 C  
BRANCH  24  25
HETATM   25  C   UNL     1      -7.030  12.094  69.070  1.00  0.00    -0.086 C  
BRANCH  25  26
HETATM   26  C   UNL     1      -7.665  12.353  67.696  1.00  0.00    -0.151 C  
HETATM   27  H   UNL     1      -7.001  12.782  65.914  1.00  0.00     0.000 HD 
HETATM   28  O   UNL     1      -6.608  12.622  66.764  1.00  0.00    -0.004 OA 
BRANCH  26  29
HETATM   29  C   UNL     1      -8.728  13.491  67.622  1.00  0.00    -0.194 C  
BRANCH  29  30
HETATM   30  N   UNL     1      -9.737  13.406  68.679  1.00  0.00    -0.390 N  
HETATM   31  C   UNL     1     -10.857  12.634  68.526  1.00  0.00    -0.252 C  
HETATM   32  H   UNL     1      -9.603  13.930  69.544  1.00  0.00     0.000 HD 
HETATM   33  O   UNL     1     -10.920  11.657  67.806  1.00  0.00    -0.207 OA 
BRANCH  31  34
HETATM   34  O   UNL     1     -11.879  13.145  69.245  1.00  0.00    -0.302 OA 
BRANCH  34  35
HETATM   35  C   UNL     1     -11.872  14.576  69.425  1.00  0.00    -0.325 C  
BRANCH  35  36
HETATM   36  C   UNL     1     -12.216  14.953  70.828  1.00  0.00    -0.325 A  
HETATM   37  N   UNL     1     -11.972  15.764  73.014  1.00  0.00    -0.472 NA 
HETATM   38  C   UNL     1     -11.383  15.477  71.799  1.00  0.00    -0.384 A  
HETATM   39  C   UNL     1     -13.247  15.446  72.958  1.00  0.00    -0.531 A  
HETATM   40  S   UNL     1     -13.811  14.853  71.450  1.00  0.00    -0.460 SA 
ENDBRANCH  35  36
ENDBRANCH  34  35
ENDBRANCH  31  34
ENDBRANCH  29  30
BRANCH  29  41
HETATM   41  C   UNL     1      -8.084  14.916  67.566  1.00  0.00    -0.200 C  
BRANCH  41  42
HETATM   42  C   UNL     1      -9.025  16.102  67.530  1.00  0.00    -0.197 A  
HETATM   43  C   UNL     1     -10.051  18.027  68.619  1.00  0.00    -0.401 A  
HETATM   44  C   UNL     1      -9.310  16.852  68.678  1.00  0.00    -0.268 A  
HETATM   45  C   UNL     1      -9.610  16.505  66.327  1.00  0.00    -0.333 A  
HETATM   46  C   UNL     1     -10.379  17.675  66.265  1.00  0.00    -0.342 A  
HETATM   47  C   UNL     1     -10.583  18.445  67.409  1.00  0.00    -0.445 A  
ENDBRANCH  41  42
ENDBRANCH  29  41
ENDBRANCH  26  29
ENDBRANCH  25  26
ENDBRANCH  24  25
BRANCH  24  48
HETATM   48  C   UNL     1      -5.930   9.775  69.399  1.00  0.00    -0.033 C  
BRANCH  48  49
HETATM   49  C   UNL     1      -6.162   8.688  68.377  1.00  0.00    -0.054 A  
HETATM   50  C   UNL     1      -6.509   6.341  67.849  1.00  0.00    -0.052 A  
HETATM   51  C   UNL     1      -6.321   7.357  68.786  1.00  0.00    -0.036 A  
HETATM   52  C   UNL     1      -6.534   6.643  66.490  1.00  0.00    -0.043 A  
HETATM   53  C   UNL     1      -6.372   7.961  66.068  1.00  0.00    -0.045 A  
HETATM   54  C   UNL     1      -6.179   8.978  67.004  1.00  0.00    -0.059 A  
ENDBRANCH  48  49
ENDBRANCH  24  48
ENDBRANCH  22  24
ENDBRANCH   3  20
TORSDOF 18
ENDMDL
MODEL       23
REMARK 921   NORMALIZED FREE ENERGY PREDICTED BY IDOCK:   -5.48 KCAL/MOL
REMARK 922        TOTAL FREE ENERGY PREDICTED BY IDOCK:  -15.85 KCAL/MOL
REMARK 923 INTER-LIGAND FREE ENERGY PREDICTED BY IDOCK:  -12.80 KCAL/MOL
REMARK 924 INTRA-LIGAND FREE ENERGY PREDICTED BY IDOCK:   -3.05 KCAL/MOL
REMARK 927      BINDING AFFINITY PREDICTED BY RF-SCORE:    0.00 PKD
ROOT
HETATM    1  C   UNL     1     -12.620  11.772  63.559  1.00  0.00    -0.485 C  
HETATM    2  C   UNL     1     -11.157  12.104  63.828  1.00  0.00    -0.505 C  
HETATM    3  C   UNL     1     -10.729  12.002  65.313  1.00  0.00    -0.288 C  
HETATM    4  C   UNL     1     -10.270  11.281  62.885  1.00  0.00    -0.201 C  
ENDROOT
BRANCH   3   5
HETATM    5  N   UNL     1     -10.815  10.671  65.937  1.00  0.00    -0.039 N  
HETATM    6  H   UNL     1     -11.725  10.346  66.263  1.00  0.00     0.000 HD 
BRANCH   5   7
HETATM    7  C   UNL     1      -9.733   9.850  66.100  1.00  0.00    -0.236 C  
HETATM    8  O   UNL     1      -8.740   9.939  65.382  1.00  0.00    -0.140 OA 
BRANCH   7   9
HETATM    9  N   UNL     1      -9.842   8.864  67.061  1.00  0.00    -0.194 N  
HETATM   10  C   UNL     1     -10.619   7.637  66.982  1.00  0.00    -0.336 C  
BRANCH   9  11
HETATM   11  C   UNL     1      -9.055   9.033  68.289  1.00  0.00    -0.133 C  
BRANCH  11  12
HETATM   12  C   UNL     1      -9.939   9.249  69.489  1.00  0.00    -0.187 A  
HETATM   13  C   UNL     1     -10.794  10.319  69.688  1.00  0.00    -0.271 A  
HETATM   14  N   UNL     1      -9.997   8.281  70.497  1.00  0.00    -0.183 NA 
HETATM   15  S   UNL     1     -11.684  10.119  71.133  1.00  0.00    -0.337 SA 
HETATM   16  C   UNL     1     -10.088   7.628  73.564  1.00  0.00    -0.345 C  
HETATM   17  C   UNL     1     -10.893   8.613  71.406  1.00  0.00    -0.269 A  
HETATM   18  C   UNL     1     -11.267   7.771  72.604  1.00  0.00    -0.438 C  
HETATM   19  C   UNL     1     -11.768   6.395  72.161  1.00  0.00    -0.366 C  
ENDBRANCH  11  12
ENDBRANCH   9  11
ENDBRANCH   7   9
ENDBRANCH   5   7
ENDBRANCH   3   5
BRANCH   3  20
HETATM   20  C   UNL     1     -11.309  13.166  66.177  1.00  0.00    -0.312 C  
HETATM   21  O   UNL     1     -12.211  13.910  65.797  1.00  0.00    -0.405 OA 
HETATM   22  N   UNL     1     -10.687  13.335  67.398  1.00  0.00    -0.256 N  
HETATM   23  H   UNL     1      -9.860  12.778  67.611  1.00  0.00     0.000 HD 
BRANCH  22  24
HETATM   24  C   UNL     1     -11.173  14.285  68.395  1.00  0.00    -0.269 C  
BRANCH  24  25
HETATM   25  C   UNL     1     -10.087  15.245  68.924  1.00  0.00    -0.225 C  
BRANCH  25  26
HETATM   26  C   UNL     1      -9.123  15.901  67.926  1.00  0.00    -0.190 C  
HETATM   27  H   UNL     1      -9.147  16.286  66.014  1.00  0.00     0.000 HD 
HETATM   28  O   UNL     1      -9.743  15.880  66.632  1.00  0.00    -0.233 OA 
BRANCH  26  29
HETATM   29  C   UNL     1      -7.693  15.288  67.830  1.00  0.00    -0.149 C  
BRANCH  29  30
HETATM   30  N   UNL     1      -7.638  14.082  67.002  1.00  0.00    -0.314 N  
HETATM   31  C   UNL     1      -7.464  12.847  67.564  1.00  0.00    -0.155 C  
HETATM   32  H   UNL     1      -7.732  14.165  65.989  1.00  0.00     0.000 HD 
HETATM   33  O   UNL     1      -7.788  12.561  68.700  1.00  0.00    -0.120 OA 
BRANCH  31  34
HETATM   34  O   UNL     1      -6.840  12.022  66.697  1.00  0.00    -0.025 OA 
BRANCH  34  35
HETATM   35  C   UNL     1      -5.514  11.597  67.070  1.00  0.00    -0.121 C  
BRANCH  35  36
HETATM   36  C   UNL     1      -5.484  10.147  67.427  1.00  0.00    -0.041 A  
HETATM   37  N   UNL     1      -5.410   8.201  68.732  1.00  0.00    -0.030 NA 
HETATM   38  C   UNL     1      -5.385   9.581  68.685  1.00  0.00    -0.037 A  
HETATM   39  C   UNL     1      -5.519   7.732  67.509  1.00  0.00    -0.036 A  
HETATM   40  S   UNL     1      -5.657   8.902  66.261  1.00  0.00    -0.046 SA 
ENDBRANCH  35  36
ENDBRANCH  34  35
ENDBRANCH  31  34
ENDBRANCH  29  30
BRANCH  29  41
HETATM   41  C   UNL     1      -6.617  16.333  67.383  1.00  0.00    -0.212 C  
BRANCH  41  42
HETATM   42  C   UNL     1      -7.017  17.794  67.412  1.00  0.00    -0.197 A  
HETATM   43  C   UNL     1      -8.046  19.731  66.348  1.00  0.00    -0.350 A  
HETATM   44  C   UNL     1      -7.538  18.438  66.283  1.00  0.00    -0.289 A  
HETATM   45  C   UNL     1      -6.910  18.534  68.593  1.00  0.00    -0.279 A  
HETATM   46  C   UNL     1      -7.397  19.846  68.659  1.00  0.00    -0.297 A  
HETATM   47  C   UNL     1      -7.982  20.437  67.539  1.00  0.00    -0.329 A  
ENDBRANCH  41  42
ENDBRANCH  29  41
ENDBRANCH  26  29
ENDBRANCH  25  26
ENDBRANCH  24  25
BRANCH  24  48
HETATM   48  C   UNL     1     -11.930  13.523  69.502  1.00  0.00    -0.390 C  
BRANCH  48  49
HETATM   49  C   UNL     1     -12.426  14.365  70.654  1.00  0.00    -0.419 A  
HETATM   50  C   UNL     1     -12.003  15.501  72.760  1.00  0.00    -0.573 A  
HETATM   51  C   UNL     1     -11.550  14.746  71.679  1.00  0.00    -0.260 A  
HETATM   52  C   UNL     1     -13.341  15.877  72.835  1.00  0.00    -0.635 A  
HETATM   53  C   UNL     1     -14.227  15.500  71.827  1.00  0.00    -0.563 A  
HETATM   54  C   UNL     1     -13.775  14.741  70.745  1.00  0.00    -0.092 A  
ENDBRANCH  48  49
ENDBRANCH  24  48
ENDBRANCH  22  24
ENDBRANCH   3  20
TORSDOF 18
ENDMDL
MODEL       24
REMARK 921   NORMALIZED FREE ENERGY PREDICTED BY IDOCK:   -5.45 KCAL/MOL
REMARK 922        TOTAL FREE ENERGY PREDICTED BY IDOCK:  -15.80 KCAL/MOL
REMARK 923 INTER-LIGAND FREE ENERGY PREDICTED BY IDOCK:  -13.74 KCAL/MOL
REMARK 924 INTRA-LIGAND FREE ENERGY PREDICTED BY IDOCK:   -2.06 KCAL/MOL
REMARK 927      BINDING AFFINITY PREDICTED BY RF-SCORE:    0.00 PKD
ROOT
HETATM    1  C   UNL     1     -10.426  12.614  63.742  1.00  0.00    -0.411 C  
HETATM    2  C   UNL     1     -11.471  11.711  64.387  1.00  0.00    -0.302 C  
HETATM    3  C   UNL     1     -11.606  11.865  65.922  1.00  0.00    -0.224 C  
HETATM    4  C   UNL     1     -12.804  11.870  63.645  1.00  0.00    -0.429 C  
ENDROOT
BRANCH   3   5
HETATM    5  N   UNL     1     -12.050  13.178  66.420  1.00  0.00    -0.401 N  
HETATM    6  H   UNL     1     -12.844  13.211  67.058  1.00  0.00     0.000 HD 
BRANCH   5   7
HETATM    7  C   UNL     1     -11.448  14.355  66.068  1.00  0.00    -0.349 C  
HETATM    8  O   UNL     1     -11.840  15.021  65.113  1.00  0.00    -0.301 OA 
BRANCH   7   9
HETATM    9  N   UNL     1     -10.329  14.719  66.790  1.00  0.00    -0.265 N  
HETATM   10  C   UNL     1     -10.192  14.772  68.238  1.00  0.00    -0.227 C  
BRANCH   9  11
HETATM   11  C   UNL     1      -9.117  15.050  66.031  1.00  0.00    -0.114 C  
BRANCH  11  12
HETATM   12  C   UNL     1      -8.585  16.410  66.399  1.00  0.00    -0.323 A  
HETATM   13  C   UNL     1      -7.251  16.769  66.473  1.00  0.00    -0.243 A  
HETATM   14  N   UNL     1      -9.471  17.467  66.631  1.00  0.00    -0.266 NA 
HETATM   15  S   UNL     1      -7.093  18.433  66.826  1.00  0.00    -0.213 SA 
HETATM   16  C   UNL     1     -10.248  19.963  68.365  1.00  0.00    -0.557 C  
HETATM   17  C   UNL     1      -8.809  18.587  66.844  1.00  0.00    -0.283 A  
HETATM   18  C   UNL     1      -9.443  19.941  67.067  1.00  0.00    -0.505 C  
HETATM   19  C   UNL     1     -10.328  20.325  65.880  1.00  0.00    -0.327 C  
ENDBRANCH  11  12
ENDBRANCH   9  11
ENDBRANCH   7   9
ENDBRANCH   5   7
ENDBRANCH   3   5
BRANCH   3  20
HETATM   20  C   UNL     1     -10.388  11.257  66.686  1.00  0.00    -0.237 C  
HETATM   21  O   UNL     1     -10.190  11.418  67.889  1.00  0.00    -0.176 OA 
HETATM   22  N   UNL     1      -9.504  10.557  65.888  1.00  0.00    -0.180 N  
HETATM   23  H   UNL     1      -9.643  10.562  64.878  1.00  0.00     0.000 HD 
BRANCH  22  24
HETATM   24  C   UNL     1      -8.378   9.809  66.441  1.00  0.00    -0.120 C  
BRANCH  24  25
HETATM   25  C   UNL     1      -8.637   9.247  67.854  1.00  0.00    -0.120 C  
BRANCH  25  26
HETATM   26  C   UNL     1      -9.525   8.005  68.011  1.00  0.00    -0.146 C  
HETATM   27  H   UNL     1     -10.965   7.183  66.985  1.00  0.00     0.000 HD 
HETATM   28  O   UNL     1     -10.415   7.952  66.887  1.00  0.00    -0.325 OA 
BRANCH  26  29
HETATM   29  C   UNL     1     -10.345   7.895  69.333  1.00  0.00    -0.220 C  
BRANCH  29  30
HETATM   30  N   UNL     1     -11.275   9.007  69.526  1.00  0.00    -0.440 N  
HETATM   31  C   UNL     1     -11.581   9.463  70.780  1.00  0.00    -0.298 C  
HETATM   32  H   UNL     1     -11.703   9.451  68.713  1.00  0.00     0.000 HD 
HETATM   33  O   UNL     1     -10.846   9.358  71.743  1.00  0.00    -0.354 OA 
BRANCH  31  34
HETATM   34  O   UNL     1     -12.823   9.990  70.796  1.00  0.00    -0.321 OA 
BRANCH  34  35
HETATM   35  C   UNL     1     -13.175  10.744  71.974  1.00  0.00    -0.361 C  
BRANCH  35  36
HETATM   36  C   UNL     1     -13.129  12.214  71.717  1.00  0.00    -0.352 A  
HETATM   37  N   UNL     1     -13.444  14.515  72.031  1.00  0.00    -0.351 NA 
HETATM   38  C   UNL     1     -13.658  13.232  72.490  1.00  0.00    -0.532 A  
HETATM   39  C   UNL     1     -12.762  14.462  70.909  1.00  0.00    -0.355 A  
HETATM   40  S   UNL     1     -12.295  12.897  70.384  1.00  0.00    -0.187 SA 
ENDBRANCH  35  36
ENDBRANCH  34  35
ENDBRANCH  31  34
ENDBRANCH  29  30
BRANCH  29  41
HETATM   41  C   UNL     1     -11.069   6.515  69.480  1.00  0.00    -0.425 C  
BRANCH  41  42
HETATM   42  C   UNL     1     -10.769   5.705  70.724  1.00  0.00    -0.320 A  
HETATM   43  C   UNL     1     -11.097   5.270  73.100  1.00  0.00    -0.384 A  
HETATM   44  C   UNL     1     -11.241   6.088  71.985  1.00  0.00    -0.341 A  
HETATM   45  C   UNL     1     -10.036   4.518  70.636  1.00  0.00    -0.273 A  
HETATM   46  C   UNL     1      -9.865   3.700  71.761  1.00  0.00    -0.235 A  
HETATM   47  C   UNL     1     -10.413   4.069  72.989  1.00  0.00    -0.250 A  
ENDBRANCH  41  42
ENDBRANCH  29  41
ENDBRANCH  26  29
ENDBRANCH  25  26
ENDBRANCH  24  25
BRANCH  24  48
HETATM   48  C   UNL     1      -7.095  10.657  66.328  1.00  0.00    -0.137 C  
BRANCH  48  49
HETATM   49  C   UNL     1      -6.691  11.402  67.577  1.00  0.00    -0.078 A  
HETATM   50  C   UNL     1      -6.769  13.411  68.943  1.00  0.00    -0.110 A  
HETATM   51  C   UNL     1      -7.157  12.704  67.805  1.00  0.00    -0.126 A  
HETATM   52  C   UNL     1      -5.904  12.828  69.864  1.00  0.00    -0.134 A  
HETATM   53  C   UNL     1      -5.427  11.536  69.649  1.00  0.00    -0.064 A  
HETATM   54  C   UNL     1      -5.811  10.828  68.508  1.00  0.00    -0.043 A  
ENDBRANCH  48  49
ENDBRANCH  24  48
ENDBRANCH  22  24
ENDBRANCH   3  20
TORSDOF 18
ENDMDL
MODEL       25
REMARK 921   NORMALIZED FREE ENERGY PREDICTED BY IDOCK:   -5.43 KCAL/MOL
REMARK 922        TOTAL FREE ENERGY PREDICTED BY IDOCK:  -15.76 KCAL/MOL
REMARK 923 INTER-LIGAND FREE ENERGY PREDICTED BY IDOCK:  -13.81 KCAL/MOL
REMARK 924 INTRA-LIGAND FREE ENERGY PREDICTED BY IDOCK:   -1.95 KCAL/MOL
REMARK 927      BINDING AFFINITY PREDICTED BY RF-SCORE:    0.00 PKD
ROOT
HETATM    1  C   UNL     1     -10.183  12.232  64.505  1.00  0.00    -0.322 C  
HETATM    2  C   UNL     1     -11.379  11.880  65.382  1.00  0.00    -0.334 C  
HETATM    3  C   UNL     1     -11.027  11.501  66.841  1.00  0.00    -0.296 C  
HETATM    4  C   UNL     1     -12.425  12.998  65.283  1.00  0.00    -0.555 C  
ENDROOT
BRANCH   3   5
HETATM    5  N   UNL     1     -10.397  12.548  67.664  1.00  0.00    -0.216 N  
HETATM    6  H   UNL     1     -10.787  12.739  68.587  1.00  0.00     0.000 HD 
BRANCH   5   7
HETATM    7  C   UNL     1      -9.315  13.275  67.251  1.00  0.00    -0.226 C  
HETATM    8  O   UNL     1      -8.236  12.742  67.001  1.00  0.00    -0.169 OA 
BRANCH   7   9
HETATM    9  N   UNL     1      -9.471  14.645  67.202  1.00  0.00    -0.221 N  
HETATM   10  C   UNL     1      -9.563  15.481  66.015  1.00  0.00    -0.345 C  
BRANCH   9  11
HETATM   11  C   UNL     1      -9.607  15.353  68.482  1.00  0.00    -0.201 C  
BRANCH  11  12
HETATM   12  C   UNL     1      -9.544  16.846  68.300  1.00  0.00    -0.258 A  
HETATM   13  C   UNL     1     -10.628  17.695  68.159  1.00  0.00    -0.356 A  
HETATM   14  N   UNL     1      -8.310  17.503  68.338  1.00  0.00    -0.270 NA 
HETATM   15  S   UNL     1     -10.112  19.322  68.080  1.00  0.00    -0.431 SA 
HETATM   16  C   UNL     1      -6.421  19.700  67.135  1.00  0.00    -0.209 C  
HETATM   17  C   UNL     1      -8.477  18.808  68.254  1.00  0.00    -0.327 A  
HETATM   18  C   UNL     1      -7.368  19.832  68.326  1.00  0.00    -0.349 C  
HETATM   19  C   UNL     1      -6.597  19.701  69.641  1.00  0.00    -0.365 C  
ENDBRANCH  11  12
ENDBRANCH   9  11
ENDBRANCH   7   9
ENDBRANCH   5   7
ENDBRANCH   3   5
BRANCH   3  20
HETATM   20  C   UNL     1     -10.349  10.099  66.941  1.00  0.00    -0.236 C  
HETATM   21  O   UNL     1      -9.212   9.863  66.536  1.00  0.00    -0.149 OA 
HETATM   22  N   UNL     1     -11.153   9.112  67.477  1.00  0.00    -0.399 N  
HETATM   23  H   UNL     1     -12.129   9.327  67.676  1.00  0.00     0.000 HD 
BRANCH  22  24
HETATM   24  C   UNL     1     -10.653   7.771  67.769  1.00  0.00    -0.185 C  
BRANCH  24  25
HETATM   25  C   UNL     1      -9.960   7.650  69.142  1.00  0.00    -0.181 C  
BRANCH  25  26
HETATM   26  C   UNL     1     -10.780   7.185  70.352  1.00  0.00    -0.235 C  
HETATM   27  H   UNL     1     -12.464   6.236  70.612  1.00  0.00     0.000 HD 
HETATM   28  O   UNL     1     -11.956   6.524  69.862  1.00  0.00    -0.319 OA 
BRANCH  26  29
HETATM   29  C   UNL     1     -11.189   8.281  71.382  1.00  0.00    -0.255 C  
BRANCH  29  30
HETATM   30  N   UNL     1     -12.274   9.141  70.907  1.00  0.00    -0.453 N  
HETATM   31  C   UNL     1     -12.037  10.438  70.540  1.00  0.00    -0.332 C  
HETATM   32  H   UNL     1     -13.221   8.767  70.849  1.00  0.00     0.000 HD 
HETATM   33  O   UNL     1     -10.968  10.850  70.135  1.00  0.00    -0.230 OA 
BRANCH  31  34
HETATM   34  O   UNL     1     -13.141  11.189  70.742  1.00  0.00    -0.199 OA 
BRANCH  34  35
HETATM   35  C   UNL     1     -13.159  11.973  71.953  1.00  0.00    -0.370 C  
BRANCH  35  36
HETATM   36  C   UNL     1     -12.923  13.421  71.671  1.00  0.00    -0.355 A  
HETATM   37  N   UNL     1     -12.348  15.372  70.508  1.00  0.00    -0.381 NA 
HETATM   38  C   UNL     1     -12.443  13.995  70.509  1.00  0.00    -0.359 A  
HETATM   39  C   UNL     1     -12.749  15.831  71.673  1.00  0.00    -0.453 A  
HETATM   40  S   UNL     1     -13.309  14.658  72.793  1.00  0.00    -0.487 SA 
ENDBRANCH  35  36
ENDBRANCH  34  35
ENDBRANCH  31  34
ENDBRANCH  29  30
BRANCH  29  41
HETATM   41  C   UNL     1     -11.509   7.692  72.796  1.00  0.00    -0.384 C  
BRANCH  41  42
HETATM   42  C   UNL     1     -10.840   6.385  73.169  1.00  0.00    -0.282 A  
HETATM   43  C   UNL     1     -10.871   3.951  73.303  1.00  0.00    -0.297 A  
HETATM   44  C   UNL     1     -11.523   5.164  73.109  1.00  0.00    -0.348 A  
HETATM   45  C   UNL     1      -9.495   6.362  73.550  1.00  0.00    -0.156 A  
HETATM   46  C   UNL     1      -8.838   5.144  73.772  1.00  0.00    -0.118 A  
HETATM   47  C   UNL     1      -9.523   3.938  73.630  1.00  0.00    -0.122 A  
ENDBRANCH  41  42
ENDBRANCH  29  41
ENDBRANCH  26  29
ENDBRANCH  25  26
ENDBRANCH  24  25
BRANCH  24  48
HETATM   48  C   UNL     1      -9.794   7.276  66.586  1.00  0.00    -0.257 C  
BRANCH  48  49
HETATM   49  C   UNL     1      -9.248   5.874  66.716  1.00  0.00    -0.139 A  
HETATM   50  C   UNL     1      -9.627   3.487  66.966  1.00  0.00    -0.155 A  
HETATM   51  C   UNL     1     -10.120   4.783  66.818  1.00  0.00    -0.261 A  
HETATM   52  C   UNL     1      -8.253   3.267  67.021  1.00  0.00    -0.084 A  
HETATM   53  C   UNL     1      -7.372   4.343  66.927  1.00  0.00    -0.080 A  
HETATM   54  C   UNL     1      -7.865   5.642  66.784  1.00  0.00    -0.101 A  
ENDBRANCH  48  49
ENDBRANCH  24  48
ENDBRANCH  22  24
ENDBRANCH   3  20
TORSDOF 18
ENDMDL
MODEL       26
REMARK 921   NORMALIZED FREE ENERGY PREDICTED BY IDOCK:   -5.41 KCAL/MOL
REMARK 922        TOTAL FREE ENERGY PREDICTED BY IDOCK:  -15.71 KCAL/MOL
REMARK 923 INTER-LIGAND FREE ENERGY PREDICTED BY IDOCK:  -13.28 KCAL/MOL
REMARK 924 INTRA-LIGAND FREE ENERGY PREDICTED BY IDOCK:   -2.43 KCAL/MOL
REMARK 927      BINDING AFFINITY PREDICTED BY RF-SCORE:    0.00 PKD
ROOT
HETATM    1  C   UNL     1      -9.755  10.759  64.366  1.00  0.00    -0.356 C  
HETATM    2  C   UNL     1     -11.118  11.439  64.392  1.00  0.00    -0.329 C  
HETATM    3  C   UNL     1     -11.320  12.447  65.551  1.00  0.00    -0.346 C  
HETATM    4  C   UNL     1     -11.410  12.040  63.012  1.00  0.00    -0.054 C  
ENDROOT
BRANCH   3   5
HETATM    5  N   UNL     1     -10.438  13.626  65.566  1.00  0.00    -0.296 N  
HETATM    6  H   UNL     1      -9.434  13.478  65.662  1.00  0.00     0.000 HD 
BRANCH   5   7
HETATM    7  C   UNL     1     -10.901  14.908  65.456  1.00  0.00    -0.356 C  
HETATM    8  O   UNL     1     -11.632  15.254  64.531  1.00  0.00    -0.395 OA 
BRANCH   7   9
HETATM    9  N   UNL     1     -10.445  15.814  66.392  1.00  0.00    -0.297 N  
HETATM   10  C   UNL     1     -10.058  17.198  66.166  1.00  0.00    -0.305 C  
BRANCH   9  11
HETATM   11  C   UNL     1     -10.380  15.363  67.789  1.00  0.00    -0.253 C  
BRANCH  11  12
HETATM   12  C   UNL     1      -8.957  15.181  68.247  1.00  0.00    -0.175 A  
HETATM   13  C   UNL     1      -8.204  16.105  68.949  1.00  0.00    -0.229 A  
HETATM   14  N   UNL     1      -8.307  13.961  68.036  1.00  0.00    -0.154 NA 
HETATM   15  S   UNL     1      -6.678  15.454  69.357  1.00  0.00    -0.179 SA 
HETATM   16  C   UNL     1      -5.689  12.445  67.206  1.00  0.00    -0.114 C  
HETATM   17  C   UNL     1      -7.111  13.973  68.592  1.00  0.00    -0.108 A  
HETATM   18  C   UNL     1      -6.154  12.803  68.616  1.00  0.00    -0.068 C  
HETATM   19  C   UNL     1      -6.799  11.591  69.292  1.00  0.00    -0.114 C  
ENDBRANCH  11  12
ENDBRANCH   9  11
ENDBRANCH   7   9
ENDBRANCH   5   7
ENDBRANCH   3   5
BRANCH   3  20
HETATM   20  C   UNL     1     -11.480  11.735  66.931  1.00  0.00    -0.293 C  
HETATM   21  O   UNL     1     -12.218  12.145  67.826  1.00  0.00    -0.451 OA 
HETATM   22  N   UNL     1     -10.678  10.623  67.098  1.00  0.00    -0.268 N  
HETATM   23  H   UNL     1      -9.990  10.401  66.379  1.00  0.00     0.000 HD 
BRANCH  22  24
HETATM   24  C   UNL     1     -10.782   9.755  68.267  1.00  0.00    -0.233 C  
BRANCH  24  25
HETATM   25  C   UNL     1     -10.086  10.317  69.524  1.00  0.00    -0.260 C  
BRANCH  25  26
HETATM   26  C   UNL     1     -10.854  10.341  70.853  1.00  0.00     0.075 C  
HETATM   27  H   UNL     1     -10.923   9.214  72.443  1.00  0.00     0.000 HD 
HETATM   28  O   UNL     1     -10.447   9.199  71.621  1.00  0.00    -0.331 OA 
BRANCH  26  29
HETATM   29  C   UNL     1     -12.410  10.380  70.760  1.00  0.00    -0.367 C  
BRANCH  29  30
HETATM   30  N   UNL     1     -13.017   9.049  70.707  1.00  0.00    -0.478 N  
HETATM   31  C   UNL     1     -13.574   8.482  71.821  1.00  0.00    -0.388 C  
HETATM   32  H   UNL     1     -13.024   8.536  69.825  1.00  0.00     0.000 HD 
HETATM   33  O   UNL     1     -14.029   9.113  72.754  1.00  0.00    -0.450 OA 
BRANCH  31  34
HETATM   34  O   UNL     1     -13.494   7.136  71.749  1.00  0.00    -0.355 OA 
BRANCH  34  35
HETATM   35  C   UNL     1     -12.496   6.608  70.852  1.00  0.00    -0.122 C  
BRANCH  35  36
HETATM   36  C   UNL     1     -11.387   5.943  71.597  1.00  0.00    -0.207 A  
HETATM   37  N   UNL     1     -10.066   5.213  73.391  1.00  0.00    -0.168 NA 
HETATM   38  C   UNL     1     -11.160   5.937  72.961  1.00  0.00    -0.254 A  
HETATM   39  C   UNL     1      -9.467   4.682  72.348  1.00  0.00    -0.135 A  
HETATM   40  S   UNL     1     -10.206   4.968  70.826  1.00  0.00    -0.201 SA 
ENDBRANCH  35  36
ENDBRANCH  34  35
ENDBRANCH  31  34
ENDBRANCH  29  30
BRANCH  29  41
HETATM   41  C   UNL     1     -13.060  11.257  71.881  1.00  0.00    -0.510 C  
BRANCH  41  42
HETATM   42  C   UNL     1     -13.144  12.749  71.633  1.00  0.00    -0.428 A  
HETATM   43  C   UNL     1     -14.052  14.941  72.191  1.00  0.00    -0.616 A  
HETATM   44  C   UNL     1     -14.073  13.555  72.303  1.00  0.00    -0.564 A  
HETATM   45  C   UNL     1     -12.260  13.370  70.747  1.00  0.00    -0.409 A  
HETATM   46  C   UNL     1     -12.250  14.764  70.610  1.00  0.00    -0.385 A  
HETATM   47  C   UNL     1     -13.135  15.550  71.348  1.00  0.00    -0.580 A  
ENDBRANCH  41  42
ENDBRANCH  29  41
ENDBRANCH  26  29
ENDBRANCH  25  26
ENDBRANCH  24  25
BRANCH  24  48
HETATM   48  C   UNL     1     -10.335   8.328  67.887  1.00  0.00    -0.278 C  
BRANCH  48  49
HETATM   49  C   UNL     1      -9.144   8.240  66.963  1.00  0.00    -0.172 A  
HETATM   50  C   UNL     1      -8.156   7.485  64.876  1.00  0.00    -0.121 A  
HETATM   51  C   UNL     1      -9.257   7.596  65.724  1.00  0.00     0.025 A  
HETATM   52  C   UNL     1      -6.925   8.012  65.258  1.00  0.00    -0.063 A  
HETATM   53  C   UNL     1      -6.795   8.650  66.491  1.00  0.00    -0.072 A  
HETATM   54  C   UNL     1      -7.896   8.758  67.344  1.00  0.00    -0.098 A  
ENDBRANCH  48  49
ENDBRANCH  24  48
ENDBRANCH  22  24
ENDBRANCH   3  20
TORSDOF 18
ENDMDL
MODEL       27
REMARK 921   NORMALIZED FREE ENERGY PREDICTED BY IDOCK:   -5.40 KCAL/MOL
REMARK 922        TOTAL FREE ENERGY PREDICTED BY IDOCK:  -15.69 KCAL/MOL
REMARK 923 INTER-LIGAND FREE ENERGY PREDICTED BY IDOCK:  -12.12 KCAL/MOL
REMARK 924 INTRA-LIGAND FREE ENERGY PREDICTED BY IDOCK:   -3.57 KCAL/MOL
REMARK 927      BINDING AFFINITY PREDICTED BY RF-SCORE:    0.00 PKD
ROOT
HETATM    1  C   UNL     1     -11.343   7.695  72.657  1.00  0.00    -0.423 C  
HETATM    2  C   UNL     1     -12.294   7.903  71.485  1.00  0.00    -0.340 C  
HETATM    3  C   UNL     1     -11.717   7.513  70.102  1.00  0.00     0.053 C  
HETATM    4  C   UNL     1     -13.634   7.222  71.794  1.00  0.00    -0.386 C  
ENDROOT
BRANCH   3   5
HETATM    5  N   UNL     1     -11.364   6.097  69.906  1.00  0.00    -0.421 N  
HETATM    6  H   UNL     1     -12.090   5.393  70.037  1.00  0.00     0.000 HD 
BRANCH   5   7
HETATM    7  C   UNL     1     -10.109   5.679  69.557  1.00  0.00    -0.225 C  
HETATM    8  O   UNL     1      -9.286   5.330  70.400  1.00  0.00    -0.148 OA 
BRANCH   7   9
HETATM    9  N   UNL     1      -9.785   5.743  68.217  1.00  0.00    -0.123 N  
HETATM   10  C   UNL     1     -10.677   5.551  67.083  1.00  0.00    -0.181 C  
BRANCH   9  11
HETATM   11  C   UNL     1      -8.399   6.087  67.875  1.00  0.00    -0.116 C  
BRANCH  11  12
HETATM   12  C   UNL     1      -7.898   5.280  66.707  1.00  0.00    -0.100 A  
HETATM   13  C   UNL     1      -7.692   3.912  66.692  1.00  0.00    -0.089 A  
HETATM   14  N   UNL     1      -7.669   5.902  65.475  1.00  0.00    -0.087 NA 
HETATM   15  S   UNL     1      -7.217   3.391  65.135  1.00  0.00    -0.068 SA 
HETATM   16  C   UNL     1      -5.840   6.215  62.946  1.00  0.00    -0.026 C  
HETATM   17  C   UNL     1      -7.328   5.013  64.564  1.00  0.00    -0.063 A  
HETATM   18  C   UNL     1      -7.066   5.319  63.107  1.00  0.00    -0.042 C  
HETATM   19  C   UNL     1      -8.293   5.968  62.463  1.00  0.00    -0.050 C  
ENDBRANCH  11  12
ENDBRANCH   9  11
ENDBRANCH   7   9
ENDBRANCH   5   7
ENDBRANCH   3   5
BRANCH   3  20
HETATM   20  C   UNL     1     -10.639   8.527  69.604  1.00  0.00    -0.220 C  
HETATM   21  O   UNL     1      -9.649   8.845  70.261  1.00  0.00    -0.168 OA 
HETATM   22  N   UNL     1     -10.912   9.093  68.374  1.00  0.00    -0.466 N  
HETATM   23  H   UNL     1     -11.809   8.896  67.930  1.00  0.00     0.000 HD 
BRANCH  22  24
HETATM   24  C   UNL     1      -9.961   9.963  67.688  1.00  0.00    -0.171 C  
BRANCH  24  25
HETATM   25  C   UNL     1      -9.935  11.407  68.230  1.00  0.00    -0.203 C  
BRANCH  25  26
HETATM   26  C   UNL     1     -11.220  12.006  68.819  1.00  0.00    -0.263 C  
HETATM   27  H   UNL     1     -13.131  11.780  68.508  1.00  0.00     0.000 HD 
HETATM   28  O   UNL     1     -12.336  11.410  68.143  1.00  0.00    -0.502 OA 
BRANCH  26  29
HETATM   29  C   UNL     1     -11.350  13.559  68.775  1.00  0.00    -0.290 C  
BRANCH  29  30
HETATM   30  N   UNL     1     -10.067  14.248  68.914  1.00  0.00    -0.329 N  
HETATM   31  C   UNL     1     -10.001  15.526  69.399  1.00  0.00    -0.277 C  
HETATM   32  H   UNL     1      -9.208  13.768  68.645  1.00  0.00     0.000 HD 
HETATM   33  O   UNL     1     -10.823  16.017  70.147  1.00  0.00    -0.321 OA 
BRANCH  31  34
HETATM   34  O   UNL     1      -8.928  16.166  68.887  1.00  0.00    -0.222 OA 
BRANCH  34  35
HETATM   35  C   UNL     1      -9.061  16.638  67.531  1.00  0.00    -0.202 C  
BRANCH  35  36
HETATM   36  C   UNL     1      -9.157  18.128  67.477  1.00  0.00    -0.254 A  
HETATM   37  N   UNL     1      -8.497  20.376  67.438  1.00  0.00    -0.342 NA 
HETATM   38  C   UNL     1      -8.129  19.050  67.541  1.00  0.00    -0.267 A  
HETATM   39  C   UNL     1      -9.803  20.450  67.305  1.00  0.00    -0.456 A  
HETATM   40  S   UNL     1     -10.640  18.953  67.237  1.00  0.00    -0.447 SA 
ENDBRANCH  35  36
ENDBRANCH  34  35
ENDBRANCH  31  34
ENDBRANCH  29  30
BRANCH  29  41
HETATM   41  C   UNL     1     -12.134  14.062  67.518  1.00  0.00    -0.361 C  
BRANCH  41  42
HETATM   42  C   UNL     1     -11.727  13.493  66.174  1.00  0.00    -0.397 A  
HETATM   43  C   UNL     1     -12.305  12.402  64.072  1.00  0.00    -0.579 A  
HETATM   44  C   UNL     1     -12.631  12.792  65.367  1.00  0.00    -0.387 A  
HETATM   45  C   UNL     1     -10.432  13.689  65.685  1.00  0.00    -0.304 A  
HETATM   46  C   UNL     1     -10.089  13.276  64.391  1.00  0.00    -0.190 A  
HETATM   47  C   UNL     1     -11.033  12.649  63.578  1.00  0.00    -0.413 A  
ENDBRANCH  41  42
ENDBRANCH  29  41
ENDBRANCH  26  29
ENDBRANCH  25  26
ENDBRANCH  24  25
BRANCH  24  48
HETATM   48  C   UNL     1     -10.187   9.868  66.165  1.00  0.00    -0.277 C  
BRANCH  48  49
HETATM   49  C   UNL     1      -8.936   9.854  65.318  1.00  0.00    -0.228 A  
HETATM   50  C   UNL     1      -7.880   9.723  63.133  1.00  0.00    -0.139 A  
HETATM   51  C   UNL     1      -9.029   9.764  63.923  1.00  0.00    -0.277 A  
HETATM   52  C   UNL     1      -6.623   9.764  63.730  1.00  0.00    -0.119 A  
HETATM   53  C   UNL     1      -6.514   9.847  65.117  1.00  0.00    -0.103 A  
HETATM   54  C   UNL     1      -7.663   9.884  65.909  1.00  0.00    -0.110 A  
ENDBRANCH  48  49
ENDBRANCH  24  48
ENDBRANCH  22  24
ENDBRANCH   3  20
TORSDOF 18
ENDMDL
MODEL       28
REMARK 921   NORMALIZED FREE ENERGY PREDICTED BY IDOCK:   -5.30 KCAL/MOL
REMARK 922        TOTAL FREE ENERGY PREDICTED BY IDOCK:  -15.49 KCAL/MOL
REMARK 923 INTER-LIGAND FREE ENERGY PREDICTED BY IDOCK:  -12.68 KCAL/MOL
REMARK 924 INTRA-LIGAND FREE ENERGY PREDICTED BY IDOCK:   -2.81 KCAL/MOL
REMARK 927      BINDING AFFINITY PREDICTED BY RF-SCORE:    0.00 PKD
ROOT
HETATM    1  C   UNL     1     -11.133  11.967  64.003  1.00  0.00    -0.459 C  
HETATM    2  C   UNL     1     -11.821  12.576  65.218  1.00  0.00    -0.461 C  
HETATM    3  C   UNL     1     -11.022  12.467  66.540  1.00  0.00    -0.266 C  
HETATM    4  C   UNL     1     -12.252  14.011  64.889  1.00  0.00    -0.455 C  
ENDROOT
BRANCH   3   5
HETATM    5  N   UNL     1      -9.728  13.168  66.593  1.00  0.00    -0.255 N  
HETATM    6  H   UNL     1      -9.037  12.964  65.872  1.00  0.00     0.000 HD 
BRANCH   5   7
HETATM    7  C   UNL     1      -9.410  14.079  67.561  1.00  0.00    -0.209 C  
HETATM    8  O   UNL     1     -10.275  14.711  68.163  1.00  0.00    -0.224 OA 
BRANCH   7   9
HETATM    9  N   UNL     1      -8.066  14.312  67.776  1.00  0.00    -0.155 N  
HETATM   10  C   UNL     1      -7.183  13.603  68.689  1.00  0.00    -0.110 C  
BRANCH   9  11
HETATM   11  C   UNL     1      -7.427  15.358  66.967  1.00  0.00    -0.131 C  
BRANCH  11  12
HETATM   12  C   UNL     1      -7.656  16.728  67.550  1.00  0.00    -0.158 A  
HETATM   13  C   UNL     1      -6.888  17.334  68.528  1.00  0.00    -0.197 A  
HETATM   14  N   UNL     1      -8.679  17.538  67.048  1.00  0.00    -0.233 NA 
HETATM   15  S   UNL     1      -7.436  18.925  68.824  1.00  0.00    -0.312 SA 
HETATM   16  C   UNL     1     -11.022  19.541  67.632  1.00  0.00    -0.340 C  
HETATM   17  C   UNL     1      -8.653  18.724  67.622  1.00  0.00    -0.272 A  
HETATM   18  C   UNL     1      -9.574  19.874  67.281  1.00  0.00    -0.502 C  
HETATM   19  C   UNL     1      -9.451  20.242  65.801  1.00  0.00    -0.066 C  
ENDBRANCH  11  12
ENDBRANCH   9  11
ENDBRANCH   7   9
ENDBRANCH   5   7
ENDBRANCH   3   5
BRANCH   3  20
HETATM   20  C   UNL     1     -10.996  11.009  67.096  1.00  0.00    -0.283 C  
HETATM   21  O   UNL     1     -11.900  10.523  67.775  1.00  0.00    -0.361 OA 
HETATM   22  N   UNL     1      -9.839  10.309  66.812  1.00  0.00    -0.189 N  
HETATM   23  H   UNL     1      -9.067  10.798  66.360  1.00  0.00     0.000 HD 
BRANCH  22  24
HETATM   24  C   UNL     1      -9.685   8.894  67.136  1.00  0.00    -0.184 C  
BRANCH  24  25
HETATM   25  C   UNL     1      -8.587   8.610  68.182  1.00  0.00    -0.141 C  
BRANCH  25  26
HETATM   26  C   UNL     1      -8.674   9.291  69.556  1.00  0.00    -0.146 C  
HETATM   27  H   UNL     1      -7.523   9.411  71.125  1.00  0.00     0.000 HD 
HETATM   28  O   UNL     1      -7.469   8.990  70.275  1.00  0.00    -0.063 OA 
BRANCH  26  29
HETATM   29  C   UNL     1      -9.910   8.933  70.436  1.00  0.00    -0.189 C  
BRANCH  29  30
HETATM   30  N   UNL     1     -10.738  10.094  70.763  1.00  0.00    -0.388 N  
HETATM   31  C   UNL     1     -12.023   9.942  71.210  1.00  0.00    -0.402 C  
HETATM   32  H   UNL     1     -10.352  11.032  70.656  1.00  0.00     0.000 HD 
HETATM   33  O   UNL     1     -12.431   8.958  71.796  1.00  0.00    -0.319 OA 
BRANCH  31  34
HETATM   34  O   UNL     1     -12.768  11.012  70.863  1.00  0.00    -0.354 OA 
BRANCH  34  35
HETATM   35  C   UNL     1     -12.048  12.243  70.648  1.00  0.00    -0.237 C  
BRANCH  35  36
HETATM   36  C   UNL     1     -12.699  13.388  71.352  1.00  0.00    -0.322 A  
HETATM   37  N   UNL     1     -13.982  14.567  72.919  1.00  0.00    -0.473 NA 
HETATM   38  C   UNL     1     -13.543  13.347  72.447  1.00  0.00    -0.606 A  
HETATM   39  C   UNL     1     -13.476  15.524  72.173  1.00  0.00    -0.490 A  
HETATM   40  S   UNL     1     -12.413  15.023  70.923  1.00  0.00    -0.380 SA 
ENDBRANCH  35  36
ENDBRANCH  34  35
ENDBRANCH  31  34
ENDBRANCH  29  30
BRANCH  29  41
HETATM   41  C   UNL     1     -10.769   7.776  69.826  1.00  0.00    -0.236 C  
BRANCH  41  42
HETATM   42  C   UNL     1     -10.467   6.367  70.294  1.00  0.00    -0.270 A  
HETATM   43  C   UNL     1      -9.889   4.050  69.805  1.00  0.00    -0.173 A  
HETATM   44  C   UNL     1     -10.316   5.307  69.392  1.00  0.00    -0.313 A  
HETATM   45  C   UNL     1     -10.290   6.097  71.654  1.00  0.00    -0.259 A  
HETATM   46  C   UNL     1      -9.884   4.825  72.080  1.00  0.00    -0.228 A  
HETATM   47  C   UNL     1      -9.666   3.807  71.152  1.00  0.00    -0.245 A  
ENDBRANCH  41  42
ENDBRANCH  29  41
ENDBRANCH  26  29
ENDBRANCH  25  26
ENDBRANCH  24  25
BRANCH  24  48
HETATM   48  C   UNL     1      -9.533   8.083  65.832  1.00  0.00    -0.036 C  
BRANCH  48  49
HETATM   49  C   UNL     1      -8.316   8.407  64.999  1.00  0.00    -0.169 A  
HETATM   50  C   UNL     1      -7.342   9.090  62.880  1.00  0.00    -0.095 A  
HETATM   51  C   UNL     1      -8.460   8.814  63.666  1.00  0.00    -0.110 A  
HETATM   52  C   UNL     1      -6.063   8.954  63.414  1.00  0.00    -0.088 A  
HETATM   53  C   UNL     1      -5.903   8.544  64.737  1.00  0.00    -0.055 A  
HETATM   54  C   UNL     1      -7.022   8.263  65.524  1.00  0.00    -0.066 A  
ENDBRANCH  48  49
ENDBRANCH  24  48
ENDBRANCH  22  24
ENDBRANCH   3  20
TORSDOF 18
ENDMDL
MODEL       29
REMARK 921   NORMALIZED FREE ENERGY PREDICTED BY IDOCK:   -5.23 KCAL/MOL
REMARK 922        TOTAL FREE ENERGY PREDICTED BY IDOCK:  -15.35 KCAL/MOL
REMARK 923 INTER-LIGAND FREE ENERGY PREDICTED BY IDOCK:  -13.88 KCAL/MOL
REMARK 924 INTRA-LIGAND FREE ENERGY PREDICTED BY IDOCK:   -1.48 KCAL/MOL
REMARK 927      BINDING AFFINITY PREDICTED BY RF-SCORE:    0.00 PKD
ROOT
HETATM    1  C   UNL     1      -7.723  10.664  64.056  1.00  0.00     0.166 C  
HETATM    2  C   UNL     1      -9.136  10.092  64.085  1.00  0.00    -0.287 C  
HETATM    3  C   UNL     1     -10.119  10.836  65.021  1.00  0.00    -0.313 C  
HETATM    4  C   UNL     1      -9.656   9.956  62.648  1.00  0.00    -0.004 C  
ENDROOT
BRANCH   3   5
HETATM    5  N   UNL     1     -10.411  12.242  64.694  1.00  0.00    -0.290 N  
HETATM    6  H   UNL     1      -9.702  12.782  64.200  1.00  0.00     0.000 HD 
BRANCH   5   7
HETATM    7  C   UNL     1     -11.588  12.857  65.020  1.00  0.00    -0.332 C  
HETATM    8  O   UNL     1     -12.652  12.242  65.051  1.00  0.00    -0.575 OA 
BRANCH   7   9
HETATM    9  N   UNL     1     -11.537  14.219  65.238  1.00  0.00    -0.336 N  
HETATM   10  C   UNL     1     -11.679  15.277  64.250  1.00  0.00    -0.215 C  
BRANCH   9  11
HETATM   11  C   UNL     1     -11.367  14.672  66.625  1.00  0.00    -0.356 C  
BRANCH  11  12
HETATM   12  C   UNL     1     -10.282  15.710  66.741  1.00  0.00    -0.276 A  
HETATM   13  C   UNL     1      -8.931  15.500  66.530  1.00  0.00    -0.312 A  
HETATM   14  N   UNL     1     -10.614  17.040  67.015  1.00  0.00    -0.272 NA 
HETATM   15  S   UNL     1      -8.065  16.967  66.667  1.00  0.00    -0.290 SA 
HETATM   16  C   UNL     1      -9.970  19.680  68.583  1.00  0.00    -0.553 C  
HETATM   17  C   UNL     1      -9.538  17.802  66.982  1.00  0.00    -0.284 A  
HETATM   18  C   UNL     1      -9.531  19.302  67.170  1.00  0.00    -0.388 C  
HETATM   19  C   UNL     1     -10.424  19.981  66.131  1.00  0.00    -0.526 C  
ENDBRANCH  11  12
ENDBRANCH   9  11
ENDBRANCH   7   9
ENDBRANCH   5   7
ENDBRANCH   3   5
BRANCH   3  20
HETATM   20  C   UNL     1      -9.817  10.568  66.529  1.00  0.00    -0.206 C  
HETATM   21  O   UNL     1      -9.154  11.326  67.235  1.00  0.00    -0.153 OA 
HETATM   22  N   UNL     1     -10.310   9.369  67.007  1.00  0.00    -0.253 N  
HETATM   23  H   UNL     1     -10.738   8.717  66.350  1.00  0.00     0.000 HD 
BRANCH  22  24
HETATM   24  C   UNL     1     -10.240   9.004  68.419  1.00  0.00    -0.201 C  
BRANCH  24  25
HETATM   25  C   UNL     1      -9.882  10.181  69.349  1.00  0.00    -0.247 C  
BRANCH  25  26
HETATM   26  C   UNL     1     -10.627  10.330  70.683  1.00  0.00     0.035 C  
HETATM   27  H   UNL     1     -10.581   9.431  72.412  1.00  0.00     0.000 HD 
HETATM   28  O   UNL     1     -10.119   9.338  71.587  1.00  0.00    -0.311 OA 
BRANCH  26  29
HETATM   29  C   UNL     1     -12.183  10.239  70.628  1.00  0.00    -0.329 C  
BRANCH  29  30
HETATM   30  N   UNL     1     -12.678   8.862  70.627  1.00  0.00    -0.394 N  
HETATM   31  C   UNL     1     -13.292   8.332  71.729  1.00  0.00    -0.352 C  
HETATM   32  H   UNL     1     -12.565   8.289  69.790  1.00  0.00     0.000 HD 
HETATM   33  O   UNL     1     -13.878   8.988  72.567  1.00  0.00    -0.473 OA 
BRANCH  31  34
HETATM   34  O   UNL     1     -13.103   6.996  71.771  1.00  0.00    -0.361 OA 
BRANCH  34  35
HETATM   35  C   UNL     1     -12.000   6.487  70.993  1.00  0.00    -0.297 C  
BRANCH  35  36
HETATM   36  C   UNL     1     -10.991   5.804  71.856  1.00  0.00    -0.259 A  
HETATM   37  N   UNL     1      -9.811   5.160  73.775  1.00  0.00    -0.152 NA 
HETATM   38  C   UNL     1     -10.807   5.937  73.220  1.00  0.00    -0.261 A  
HETATM   39  C   UNL     1      -9.241   4.450  72.827  1.00  0.00    -0.127 A  
HETATM   40  S   UNL     1      -9.899   4.628  71.252  1.00  0.00    -0.194 SA 
ENDBRANCH  35  36
ENDBRANCH  34  35
ENDBRANCH  31  34
ENDBRANCH  29  30
BRANCH  29  41
HETATM   41  C   UNL     1     -12.877  11.093  71.741  1.00  0.00    -0.479 C  
BRANCH  41  42
HETATM   42  C   UNL     1     -12.868  12.597  71.567  1.00  0.00    -0.368 A  
HETATM   43  C   UNL     1     -12.534  14.567  70.170  1.00  0.00    -0.375 A  
HETATM   44  C   UNL     1     -12.403  13.200  70.391  1.00  0.00    -0.351 A  
HETATM   45  C   UNL     1     -13.366  13.429  72.573  1.00  0.00    -0.588 A  
HETATM   46  C   UNL     1     -13.478  14.810  72.366  1.00  0.00    -0.529 A  
HETATM   47  C   UNL     1     -13.078  15.375  71.156  1.00  0.00    -0.565 A  
ENDBRANCH  41  42
ENDBRANCH  29  41
ENDBRANCH  26  29
ENDBRANCH  25  26
ENDBRANCH  24  25
BRANCH  24  48
HETATM   48  C   UNL     1      -9.326   7.772  68.585  1.00  0.00    -0.148 C  
BRANCH  48  49
HETATM   49  C   UNL     1      -8.198   7.656  67.587  1.00  0.00    -0.121 A  
HETATM   50  C   UNL     1      -6.006   8.355  66.804  1.00  0.00    -0.053 A  
HETATM   51  C   UNL     1      -7.042   8.435  67.734  1.00  0.00    -0.083 A  
HETATM   52  C   UNL     1      -6.115   7.500  65.711  1.00  0.00    -0.038 A  
HETATM   53  C   UNL     1      -7.261   6.722  65.549  1.00  0.00    -0.077 A  
HETATM   54  C   UNL     1      -8.301   6.805  66.476  1.00  0.00    -0.121 A  
ENDBRANCH  48  49
ENDBRANCH  24  48
ENDBRANCH  22  24
ENDBRANCH   3  20
TORSDOF 18
ENDMDL
MODEL       30
REMARK 921   NORMALIZED FREE ENERGY PREDICTED BY IDOCK:   -5.23 KCAL/MOL
REMARK 922        TOTAL FREE ENERGY PREDICTED BY IDOCK:  -15.34 KCAL/MOL
REMARK 923 INTER-LIGAND FREE ENERGY PREDICTED BY IDOCK:  -11.29 KCAL/MOL
REMARK 924 INTRA-LIGAND FREE ENERGY PREDICTED BY IDOCK:   -4.04 KCAL/MOL
REMARK 927      BINDING AFFINITY PREDICTED BY RF-SCORE:    0.00 PKD
ROOT
HETATM    1  C   UNL     1     -10.384   7.730  72.705  1.00  0.00    -0.374 C  
HETATM    2  C   UNL     1     -11.054   8.649  71.691  1.00  0.00    -0.375 C  
HETATM    3  C   UNL     1     -10.883   8.221  70.213  1.00  0.00    -0.240 C  
HETATM    4  C   UNL     1     -12.519   8.862  72.093  1.00  0.00    -0.459 C  
ENDROOT
BRANCH   3   5
HETATM    5  N   UNL     1     -11.472   6.928  69.825  1.00  0.00    -0.540 N  
HETATM    6  H   UNL     1     -12.485   6.864  69.733  1.00  0.00     0.000 HD 
BRANCH   5   7
HETATM    7  C   UNL     1     -10.724   5.809  69.580  1.00  0.00    -0.346 C  
HETATM    8  O   UNL     1     -10.165   5.195  70.486  1.00  0.00    -0.238 OA 
BRANCH   7   9
HETATM    9  N   UNL     1     -10.565   5.446  68.258  1.00  0.00    -0.125 N  
HETATM   10  C   UNL     1     -10.952   6.207  67.081  1.00  0.00    -0.331 C  
BRANCH   9  11
HETATM   11  C   UNL     1      -9.887   4.171  67.988  1.00  0.00    -0.023 C  
BRANCH  11  12
HETATM   12  C   UNL     1      -8.578   4.379  67.274  1.00  0.00    -0.104 A  
HETATM   13  C   UNL     1      -7.364   4.671  67.870  1.00  0.00    -0.066 A  
HETATM   14  N   UNL     1      -8.503   4.206  65.888  1.00  0.00    -0.109 NA 
HETATM   15  S   UNL     1      -6.117   4.725  66.703  1.00  0.00    -0.032 SA 
HETATM   16  C   UNL     1      -7.403   5.221  63.131  1.00  0.00    -0.049 C  
HETATM   17  C   UNL     1      -7.259   4.341  65.472  1.00  0.00    -0.068 A  
HETATM   18  C   UNL     1      -6.796   4.158  64.045  1.00  0.00    -0.045 C  
HETATM   19  C   UNL     1      -7.143   2.756  63.540  1.00  0.00    -0.044 C  
ENDBRANCH  11  12
ENDBRANCH   9  11
ENDBRANCH   7   9
ENDBRANCH   5   7
ENDBRANCH   3   5
BRANCH   3  20
HETATM   20  C   UNL     1      -9.430   8.457  69.694  1.00  0.00    -0.166 C  
HETATM   21  O   UNL     1      -8.423   8.194  70.348  1.00  0.00    -0.124 OA 
HETATM   22  N   UNL     1      -9.358   9.044  68.445  1.00  0.00    -0.139 N  
HETATM   23  H   UNL     1     -10.218   9.362  68.000  1.00  0.00     0.000 HD 
BRANCH  22  24
HETATM   24  C   UNL     1      -8.091   9.225  67.741  1.00  0.00    -0.104 C  
BRANCH  24  25
HETATM   25  C   UNL     1      -7.957  10.593  67.041  1.00  0.00    -0.121 C  
BRANCH  25  26
HETATM   26  C   UNL     1      -7.873  11.864  67.898  1.00  0.00    -0.138 C  
HETATM   27  H   UNL     1      -7.749  12.251  69.804  1.00  0.00     0.000 HD 
HETATM   28  O   UNL     1      -7.800  11.465  69.274  1.00  0.00    -0.039 OA 
BRANCH  26  29
HETATM   29  C   UNL     1      -9.019  12.906  67.716  1.00  0.00    -0.191 C  
BRANCH  29  30
HETATM   30  N   UNL     1      -8.745  13.882  66.661  1.00  0.00    -0.445 N  
HETATM   31  C   UNL     1      -8.207  15.106  66.954  1.00  0.00    -0.199 C  
HETATM   32  H   UNL     1      -8.959  13.647  65.691  1.00  0.00     0.000 HD 
HETATM   33  O   UNL     1      -7.513  15.333  67.925  1.00  0.00    -0.122 OA 
BRANCH  31  34
HETATM   34  O   UNL     1      -8.602  16.020  66.043  1.00  0.00    -0.322 OA 
BRANCH  34  35
HETATM   35  C   UNL     1      -7.938  17.299  66.100  1.00  0.00    -0.257 C  
BRANCH  35  36
HETATM   36  C   UNL     1      -8.866  18.378  66.552  1.00  0.00    -0.278 A  
HETATM   37  N   UNL     1      -9.737  20.523  66.918  1.00  0.00    -0.421 NA 
HETATM   38  C   UNL     1      -8.702  19.747  66.438  1.00  0.00    -0.368 A  
HETATM   39  C   UNL     1     -10.674  19.738  67.401  1.00  0.00    -0.384 A  
HETATM   40  S   UNL     1     -10.396  18.051  67.253  1.00  0.00    -0.379 SA 
ENDBRANCH  35  36
ENDBRANCH  34  35
ENDBRANCH  31  34
ENDBRANCH  29  30
BRANCH  29  41
HETATM   41  C   UNL     1     -10.419  12.235  67.520  1.00  0.00    -0.230 C  
BRANCH  41  42
HETATM   42  C   UNL     1     -11.068  12.371  66.159  1.00  0.00    -0.340 A  
HETATM   43  C   UNL     1     -12.432  13.630  64.578  1.00  0.00    -0.335 A  
HETATM   44  C   UNL     1     -11.955  13.415  65.866  1.00  0.00    -0.452 A  
HETATM   45  C   UNL     1     -10.764  11.468  65.136  1.00  0.00    -0.348 A  
HETATM   46  C   UNL     1     -11.262  11.664  63.841  1.00  0.00    -0.479 A  
HETATM   47  C   UNL     1     -12.082  12.757  63.559  1.00  0.00    -0.642 A  
ENDBRANCH  41  42
ENDBRANCH  29  41
ENDBRANCH  26  29
ENDBRANCH  25  26
ENDBRANCH  24  25
BRANCH  24  48
HETATM   48  C   UNL     1      -7.845   8.017  66.812  1.00  0.00    -0.103 C  
BRANCH  48  49
HETATM   49  C   UNL     1      -7.568   8.351  65.366  1.00  0.00    -0.092 A  
HETATM   50  C   UNL     1      -8.384   8.893  63.142  1.00  0.00    -0.185 A  
HETATM   51  C   UNL     1      -8.627   8.611  64.485  1.00  0.00    -0.097 A  
HETATM   52  C   UNL     1      -7.078   8.912  62.659  1.00  0.00    -0.095 A  
HETATM   53  C   UNL     1      -6.015   8.649  63.521  1.00  0.00    -0.077 A  
HETATM   54  C   UNL     1      -6.257   8.362  64.865  1.00  0.00    -0.056 A  
ENDBRANCH  48  49
ENDBRANCH  24  48
ENDBRANCH  22  24
ENDBRANCH   3  20
TORSDOF 18
ENDMDL
MODEL       31
REMARK 921   NORMALIZED FREE ENERGY PREDICTED BY IDOCK:   -5.22 KCAL/MOL
REMARK 922        TOTAL FREE ENERGY PREDICTED BY IDOCK:  -15.33 KCAL/MOL
REMARK 923 INTER-LIGAND FREE ENERGY PREDICTED BY IDOCK:  -13.61 KCAL/MOL
REMARK 924 INTRA-LIGAND FREE ENERGY PREDICTED BY IDOCK:   -1.72 KCAL/MOL
REMARK 927      BINDING AFFINITY PREDICTED BY RF-SCORE:    0.00 PKD
ROOT
HETATM    1  C   UNL     1     -10.269  12.521  64.379  1.00  0.00    -0.346 C  
HETATM    2  C   UNL     1     -11.606  11.952  64.838  1.00  0.00    -0.290 C  
HETATM    3  C   UNL     1     -12.233  12.668  66.059  1.00  0.00    -0.260 C  
HETATM    4  C   UNL     1     -12.555  11.861  63.637  1.00  0.00    -0.555 C  
ENDROOT
BRANCH   3   5
HETATM    5  N   UNL     1     -12.598  14.083  65.882  1.00  0.00    -0.487 N  
HETATM    6  H   UNL     1     -13.513  14.392  66.208  1.00  0.00     0.000 HD 
BRANCH   5   7
HETATM    7  C   UNL     1     -11.768  15.003  65.303  1.00  0.00    -0.200 C  
HETATM    8  O   UNL     1     -11.881  15.322  64.121  1.00  0.00    -0.406 OA 
BRANCH   7   9
HETATM    9  N   UNL     1     -10.747  15.499  66.088  1.00  0.00    -0.314 N  
HETATM   10  C   UNL     1     -10.864  16.119  67.399  1.00  0.00    -0.265 C  
BRANCH   9  11
HETATM   11  C   UNL     1      -9.376  15.352  65.582  1.00  0.00    -0.133 C  
BRANCH  11  12
HETATM   12  C   UNL     1      -8.422  16.279  66.288  1.00  0.00    -0.334 A  
HETATM   13  C   UNL     1      -7.430  15.903  67.175  1.00  0.00    -0.227 A  
HETATM   14  N   UNL     1      -8.444  17.649  66.009  1.00  0.00    -0.528 NA 
HETATM   15  S   UNL     1      -6.512  17.259  67.664  1.00  0.00    -0.155 SA 
HETATM   16  C   UNL     1      -8.306  20.592  67.088  1.00  0.00    -0.348 C  
HETATM   17  C   UNL     1      -7.475  18.268  66.654  1.00  0.00    -0.226 A  
HETATM   18  C   UNL     1      -7.161  19.743  66.541  1.00  0.00    -0.247 C  
HETATM   19  C   UNL     1      -6.859  20.120  65.089  1.00  0.00    -0.311 C  
ENDBRANCH  11  12
ENDBRANCH   9  11
ENDBRANCH   7   9
ENDBRANCH   5   7
ENDBRANCH   3   5
BRANCH   3  20
HETATM   20  C   UNL     1     -11.472  12.352  67.385  1.00  0.00    -0.352 C  
HETATM   21  O   UNL     1     -10.293  12.645  67.578  1.00  0.00    -0.215 OA 
HETATM   22  N   UNL     1     -12.216  11.659  68.320  1.00  0.00     0.025 N  
HETATM   23  H   UNL     1     -13.144  11.326  68.061  1.00  0.00     0.000 HD 
BRANCH  22  24
HETATM   24  C   UNL     1     -11.718  11.388  69.666  1.00  0.00    -0.345 C  
BRANCH  24  25
HETATM   25  C   UNL     1     -11.204   9.947  69.862  1.00  0.00    -0.298 C  
BRANCH  25  26
HETATM   26  C   UNL     1     -10.141   9.398  68.899  1.00  0.00    -0.190 C  
HETATM   27  H   UNL     1     -10.111   8.836  67.033  1.00  0.00     0.000 HD 
HETATM   28  O   UNL     1     -10.768   9.176  67.628  1.00  0.00    -0.262 OA 
BRANCH  26  29
HETATM   29  C   UNL     1      -9.396   8.104  69.347  1.00  0.00    -0.155 C  
BRANCH  29  30
HETATM   30  N   UNL     1      -8.638   8.276  70.587  1.00  0.00    -0.130 N  
HETATM   31  C   UNL     1      -7.721   7.344  70.990  1.00  0.00    -0.091 C  
HETATM   32  H   UNL     1      -8.796   9.105  71.160  1.00  0.00     0.000 HD 
HETATM   33  O   UNL     1      -7.126   6.600  70.235  1.00  0.00    -0.068 OA 
BRANCH  31  34
HETATM   34  O   UNL     1      -7.619   7.340  72.336  1.00  0.00    -0.085 OA 
BRANCH  34  35
HETATM   35  C   UNL     1      -8.841   7.576  73.065  1.00  0.00    -0.154 C  
BRANCH  35  36
HETATM   36  C   UNL     1      -9.640   6.324  73.213  1.00  0.00    -0.147 A  
HETATM   37  N   UNL     1     -11.490   4.885  73.261  1.00  0.00    -0.333 NA 
HETATM   38  C   UNL     1     -11.010   6.170  73.105  1.00  0.00    -0.231 A  
HETATM   39  C   UNL     1     -10.480   4.076  73.495  1.00  0.00    -0.183 A  
HETATM   40  S   UNL     1      -8.921   4.791  73.481  1.00  0.00    -0.106 SA 
ENDBRANCH  35  36
ENDBRANCH  34  35
ENDBRANCH  31  34
ENDBRANCH  29  30
BRANCH  29  41
HETATM   41  C   UNL     1     -10.342   6.860  69.427  1.00  0.00    -0.220 C  
BRANCH  41  42
HETATM   42  C   UNL     1     -10.095   5.736  68.442  1.00  0.00    -0.216 A  
HETATM   43  C   UNL     1      -9.791   4.954  66.153  1.00  0.00    -0.222 A  
HETATM   44  C   UNL     1     -10.165   5.941  67.058  1.00  0.00    -0.256 A  
HETATM   45  C   UNL     1      -9.747   4.461  68.896  1.00  0.00    -0.211 A  
HETATM   46  C   UNL     1      -9.393   3.454  67.988  1.00  0.00    -0.241 A  
HETATM   47  C   UNL     1      -9.398   3.708  66.617  1.00  0.00    -0.206 A  
ENDBRANCH  41  42
ENDBRANCH  29  41
ENDBRANCH  26  29
ENDBRANCH  25  26
ENDBRANCH  24  25
BRANCH  24  48
HETATM   48  C   UNL     1     -12.778  11.822  70.700  1.00  0.00    -0.193 C  
BRANCH  48  49
HETATM   49  C   UNL     1     -12.687  13.256  71.166  1.00  0.00    -0.404 A  
HETATM   50  C   UNL     1     -11.783  15.496  70.906  1.00  0.00    -0.413 A  
HETATM   51  C   UNL     1     -11.894  14.177  70.469  1.00  0.00    -0.352 A  
HETATM   52  C   UNL     1     -12.457  15.910  72.051  1.00  0.00    -0.534 A  
HETATM   53  C   UNL     1     -13.245  15.005  72.759  1.00  0.00    -0.565 A  
HETATM   54  C   UNL     1     -13.354  13.682  72.326  1.00  0.00    -0.622 A  
ENDBRANCH  48  49
ENDBRANCH  24  48
ENDBRANCH  22  24
ENDBRANCH   3  20
TORSDOF 18
ENDMDL
MODEL       32
REMARK 921   NORMALIZED FREE ENERGY PREDICTED BY IDOCK:   -5.22 KCAL/MOL
REMARK 922        TOTAL FREE ENERGY PREDICTED BY IDOCK:  -15.32 KCAL/MOL
REMARK 923 INTER-LIGAND FREE ENERGY PREDICTED BY IDOCK:  -13.20 KCAL/MOL
REMARK 924 INTRA-LIGAND FREE ENERGY PREDICTED BY IDOCK:   -2.12 KCAL/MOL
REMARK 927      BINDING AFFINITY PREDICTED BY RF-SCORE:    0.00 PKD
ROOT
HETATM    1  C   UNL     1      -9.345  11.675  65.933  1.00  0.00    -0.232 C  
HETATM    2  C   UNL     1     -10.851  11.454  66.011  1.00  0.00    -0.306 C  
HETATM    3  C   UNL     1     -11.570  12.260  67.120  1.00  0.00    -0.353 C  
HETATM    4  C   UNL     1     -11.464  11.660  64.620  1.00  0.00    -0.249 C  
ENDROOT
BRANCH   3   5
HETATM    5  N   UNL     1     -11.525  13.727  67.008  1.00  0.00    -0.329 N  
HETATM    6  H   UNL     1     -12.328  14.263  67.337  1.00  0.00     0.000 HD 
BRANCH   5   7
HETATM    7  C   UNL     1     -10.459  14.406  66.485  1.00  0.00    -0.289 C  
HETATM    8  O   UNL     1     -10.381  14.660  65.286  1.00  0.00    -0.349 OA 
BRANCH   7   9
HETATM    9  N   UNL     1      -9.438  14.724  67.357  1.00  0.00    -0.204 N  
HETATM   10  C   UNL     1      -9.473  14.682  68.811  1.00  0.00    -0.199 C  
BRANCH   9  11
HETATM   11  C   UNL     1      -8.146  15.104  66.770  1.00  0.00    -0.078 C  
BRANCH  11  12
HETATM   12  C   UNL     1      -7.970  16.599  66.736  1.00  0.00    -0.249 A  
HETATM   13  C   UNL     1      -6.804  17.274  66.424  1.00  0.00    -0.265 A  
HETATM   14  N   UNL     1      -9.068  17.436  66.964  1.00  0.00    -0.236 NA 
HETATM   15  S   UNL     1      -7.071  18.962  66.405  1.00  0.00    -0.242 SA 
HETATM   16  C   UNL     1     -10.211  20.022  68.323  1.00  0.00    -0.527 C  
HETATM   17  C   UNL     1      -8.727  18.699  66.797  1.00  0.00    -0.292 A  
HETATM   18  C   UNL     1      -9.674  19.874  66.901  1.00  0.00    -0.532 C  
HETATM   19  C   UNL     1     -10.826  19.728  65.905  1.00  0.00    -0.389 C  
ENDBRANCH  11  12
ENDBRANCH   9  11
ENDBRANCH   7   9
ENDBRANCH   5   7
ENDBRANCH   3   5
BRANCH   3  20
HETATM   20  C   UNL     1     -11.263  11.705  68.547  1.00  0.00    -0.256 C  
HETATM   21  O   UNL     1     -10.135  11.400  68.929  1.00  0.00    -0.204 OA 
HETATM   22  N   UNL     1     -12.377  11.529  69.343  1.00  0.00    -0.176 N  
HETATM   23  H   UNL     1     -13.301  11.673  68.937  1.00  0.00     0.000 HD 
BRANCH  22  24
HETATM   24  C   UNL     1     -12.278  11.144  70.749  1.00  0.00    -0.385 C  
BRANCH  24  25
HETATM   25  C   UNL     1     -12.441   9.629  70.992  1.00  0.00    -0.382 C  
BRANCH  25  26
HETATM   26  C   UNL     1     -11.191   8.738  71.007  1.00  0.00    -0.273 C  
HETATM   27  H   UNL     1      -9.305   8.992  71.430  1.00  0.00     0.000 HD 
HETATM   28  O   UNL     1     -10.078   9.544  71.422  1.00  0.00    -0.258 OA 
BRANCH  26  29
HETATM   29  C   UNL     1     -10.840   8.006  69.676  1.00  0.00    -0.169 C  
BRANCH  29  30
HETATM   30  N   UNL     1      -9.457   8.223  69.248  1.00  0.00    -0.155 N  
HETATM   31  C   UNL     1      -9.096   8.092  67.935  1.00  0.00    -0.132 C  
HETATM   32  H   UNL     1      -8.752   8.477  69.941  1.00  0.00     0.000 HD 
HETATM   33  O   UNL     1      -9.854   8.250  66.998  1.00  0.00    -0.187 OA 
BRANCH  31  34
HETATM   34  O   UNL     1      -7.803   7.717  67.841  1.00  0.00    -0.113 OA 
BRANCH  34  35
HETATM   35  C   UNL     1      -6.862   8.486  68.619  1.00  0.00    -0.063 C  
BRANCH  35  36
HETATM   36  C   UNL     1      -6.429   9.717  67.893  1.00  0.00    -0.061 A  
HETATM   37  N   UNL     1      -6.132  11.986  67.389  1.00  0.00    -0.114 NA 
HETATM   38  C   UNL     1      -6.681  11.035  68.226  1.00  0.00    -0.059 A  
HETATM   39  C   UNL     1      -5.475  11.382  66.424  1.00  0.00    -0.129 A  
HETATM   40  S   UNL     1      -5.430   9.668  66.501  1.00  0.00    -0.046 SA 
ENDBRANCH  35  36
ENDBRANCH  34  35
ENDBRANCH  31  34
ENDBRANCH  29  30
BRANCH  29  41
HETATM   41  C   UNL     1     -11.190   6.481  69.716  1.00  0.00    -0.456 C  
BRANCH  41  42
HETATM   42  C   UNL     1     -10.785   5.710  70.955  1.00  0.00    -0.313 A  
HETATM   43  C   UNL     1      -9.137   4.414  72.200  1.00  0.00    -0.152 A  
HETATM   44  C   UNL     1      -9.582   4.995  71.017  1.00  0.00    -0.232 A  
HETATM   45  C   UNL     1     -11.594   5.724  72.094  1.00  0.00    -0.265 A  
HETATM   46  C   UNL     1     -11.163   5.119  73.282  1.00  0.00    -0.389 A  
HETATM   47  C   UNL     1      -9.925   4.480  73.338  1.00  0.00    -0.185 A  
ENDBRANCH  41  42
ENDBRANCH  29  41
ENDBRANCH  26  29
ENDBRANCH  25  26
ENDBRANCH  24  25
BRANCH  24  48
HETATM   48  C   UNL     1     -13.229  12.021  71.589  1.00  0.00    -0.361 C  
BRANCH  48  49
HETATM   49  C   UNL     1     -12.853  13.480  71.692  1.00  0.00    -0.419 A  
HETATM   50  C   UNL     1     -12.523  15.644  70.637  1.00  0.00    -0.463 A  
HETATM   51  C   UNL     1     -12.894  14.302  70.558  1.00  0.00    -0.336 A  
HETATM   52  C   UNL     1     -12.100  16.180  71.850  1.00  0.00    -0.548 A  
HETATM   53  C   UNL     1     -12.048  15.373  72.986  1.00  0.00    -0.555 A  
HETATM   54  C   UNL     1     -12.415  14.028  72.908  1.00  0.00    -0.044 A  
ENDBRANCH  48  49
ENDBRANCH  24  48
ENDBRANCH  22  24
ENDBRANCH   3  20
TORSDOF 18
ENDMDL
MODEL       33
REMARK 921   NORMALIZED FREE ENERGY PREDICTED BY IDOCK:   -5.16 KCAL/MOL
REMARK 922        TOTAL FREE ENERGY PREDICTED BY IDOCK:  -15.21 KCAL/MOL
REMARK 923 INTER-LIGAND FREE ENERGY PREDICTED BY IDOCK:  -12.55 KCAL/MOL
REMARK 924 INTRA-LIGAND FREE ENERGY PREDICTED BY IDOCK:   -2.65 KCAL/MOL
REMARK 927      BINDING AFFINITY PREDICTED BY RF-SCORE:    0.00 PKD
ROOT
HETATM    1  C   UNL     1      -9.522  14.243  68.817  1.00  0.00    -0.131 C  
HETATM    2  C   UNL     1      -9.053  12.904  68.261  1.00  0.00    -0.180 C  
HETATM    3  C   UNL     1     -10.143  12.089  67.523  1.00  0.00    -0.195 C  
HETATM    4  C   UNL     1      -7.787  13.120  67.422  1.00  0.00    -0.169 C  
ENDROOT
BRANCH   3   5
HETATM    5  N   UNL     1     -10.713  12.693  66.307  1.00  0.00    -0.253 N  
HETATM    6  H   UNL     1     -10.594  12.203  65.421  1.00  0.00     0.000 HD 
BRANCH   5   7
HETATM    7  C   UNL     1     -11.393  13.880  66.309  1.00  0.00    -0.324 C  
HETATM    8  O   UNL     1     -12.308  14.099  67.100  1.00  0.00    -0.370 OA 
BRANCH   7   9
HETATM    9  N   UNL     1     -11.054  14.791  65.329  1.00  0.00    -0.350 N  
HETATM   10  C   UNL     1     -11.919  15.337  64.294  1.00  0.00    -0.223 C  
BRANCH   9  11
HETATM   11  C   UNL     1      -9.683  15.317  65.345  1.00  0.00    -0.208 C  
BRANCH  11  12
HETATM   12  C   UNL     1      -9.610  16.655  66.031  1.00  0.00    -0.266 A  
HETATM   13  C   UNL     1     -10.602  17.227  66.807  1.00  0.00    -0.192 A  
HETATM   14  N   UNL     1      -8.431  17.406  65.974  1.00  0.00    -0.539 NA 
HETATM   15  S   UNL     1     -10.067  18.705  67.478  1.00  0.00    -0.382 SA 
HETATM   16  C   UNL     1      -7.071  20.212  65.630  1.00  0.00    -0.316 C  
HETATM   17  C   UNL     1      -8.539  18.493  66.712  1.00  0.00    -0.284 A  
HETATM   18  C   UNL     1      -7.437  19.504  66.933  1.00  0.00    -0.251 C  
HETATM   19  C   UNL     1      -6.205  18.835  67.545  1.00  0.00    -0.183 C  
ENDBRANCH  11  12
ENDBRANCH   9  11
ENDBRANCH   7   9
ENDBRANCH   5   7
ENDBRANCH   3   5
BRANCH   3  20
HETATM   20  C   UNL     1     -11.196  11.485  68.505  1.00  0.00    -0.258 C  
HETATM   21  O   UNL     1     -12.284  11.039  68.145  1.00  0.00    -0.578 OA 
HETATM   22  N   UNL     1     -10.832  11.538  69.836  1.00  0.00    -0.423 N  
HETATM   23  H   UNL     1      -9.980  12.035  70.094  1.00  0.00     0.000 HD 
BRANCH  22  24
HETATM   24  C   UNL     1     -11.626  10.908  70.887  1.00  0.00    -0.036 C  
BRANCH  24  25
HETATM   25  C   UNL     1     -11.735   9.375  70.751  1.00  0.00    -0.349 C  
BRANCH  25  26
HETATM   26  C   UNL     1     -10.515   8.508  71.093  1.00  0.00    -0.221 C  
HETATM   27  H   UNL     1      -8.754   8.826  71.867  1.00  0.00     0.000 HD 
HETATM   28  O   UNL     1      -9.509   9.363  71.656  1.00  0.00    -0.262 OA 
BRANCH  26  29
HETATM   29  C   UNL     1      -9.901   7.676  69.926  1.00  0.00    -0.184 C  
BRANCH  29  30
HETATM   30  N   UNL     1     -10.029   6.231  70.121  1.00  0.00    -0.170 N  
HETATM   31  C   UNL     1      -9.046   5.513  70.747  1.00  0.00    -0.146 C  
HETATM   32  H   UNL     1     -10.865   5.752  69.785  1.00  0.00     0.000 HD 
HETATM   33  O   UNL     1      -8.271   5.978  71.559  1.00  0.00    -0.120 OA 
BRANCH  31  34
HETATM   34  O   UNL     1      -9.035   4.242  70.292  1.00  0.00    -0.081 OA 
BRANCH  34  35
HETATM   35  C   UNL     1      -7.928   3.884  69.440  1.00  0.00    -0.055 C  
BRANCH  35  36
HETATM   36  C   UNL     1      -8.389   3.521  68.067  1.00  0.00    -0.084 A  
HETATM   37  N   UNL     1      -9.699   3.475  66.124  1.00  0.00    -0.092 NA 
HETATM   38  C   UNL     1      -9.529   3.947  67.410  1.00  0.00    -0.195 A  
HETATM   39  C   UNL     1      -8.692   2.687  65.819  1.00  0.00    -0.127 A  
HETATM   40  S   UNL     1      -7.474   2.521  67.016  1.00  0.00    -0.066 SA 
ENDBRANCH  35  36
ENDBRANCH  34  35
ENDBRANCH  31  34
ENDBRANCH  29  30
BRANCH  29  41
HETATM   41  C   UNL     1     -10.443   8.111  68.525  1.00  0.00    -0.199 C  
BRANCH  41  42
HETATM   42  C   UNL     1      -9.428   8.587  67.506  1.00  0.00    -0.182 A  
HETATM   43  C   UNL     1      -8.886   9.379  65.265  1.00  0.00    -0.227 A  
HETATM   44  C   UNL     1      -9.773   8.800  66.166  1.00  0.00    -0.320 A  
HETATM   45  C   UNL     1      -8.114   8.866  67.893  1.00  0.00    -0.106 A  
HETATM   46  C   UNL     1      -7.207   9.427  66.984  1.00  0.00    -0.087 A  
HETATM   47  C   UNL     1      -7.601   9.700  65.675  1.00  0.00    -0.107 A  
ENDBRANCH  41  42
ENDBRANCH  29  41
ENDBRANCH  26  29
ENDBRANCH  25  26
ENDBRANCH  24  25
BRANCH  24  48
HETATM   48  C   UNL     1     -12.987  11.626  71.002  1.00  0.00    -0.227 C  
BRANCH  48  49
HETATM   49  C   UNL     1     -12.925  13.089  71.370  1.00  0.00    -0.373 A  
HETATM   50  C   UNL     1     -13.191  14.853  73.020  1.00  0.00    -0.596 A  
HETATM   51  C   UNL     1     -13.219  13.502  72.676  1.00  0.00    -0.483 A  
HETATM   52  C   UNL     1     -12.876  15.810  72.059  1.00  0.00    -0.511 A  
HETATM   53  C   UNL     1     -12.588  15.416  70.754  1.00  0.00    -0.497 A  
HETATM   54  C   UNL     1     -12.620  14.064  70.407  1.00  0.00    -0.374 A  
ENDBRANCH  48  49
ENDBRANCH  24  48
ENDBRANCH  22  24
ENDBRANCH   3  20
TORSDOF 18
ENDMDL
MODEL       34
REMARK 921   NORMALIZED FREE ENERGY PREDICTED BY IDOCK:   -5.16 KCAL/MOL
REMARK 922        TOTAL FREE ENERGY PREDICTED BY IDOCK:  -15.20 KCAL/MOL
REMARK 923 INTER-LIGAND FREE ENERGY PREDICTED BY IDOCK:  -11.14 KCAL/MOL
REMARK 924 INTRA-LIGAND FREE ENERGY PREDICTED BY IDOCK:   -4.06 KCAL/MOL
REMARK 927      BINDING AFFINITY PREDICTED BY RF-SCORE:    0.00 PKD
ROOT
HETATM    1  C   UNL     1      -9.773   8.477  72.426  1.00  0.00    -0.357 C  
HETATM    2  C   UNL     1     -10.489   9.150  71.260  1.00  0.00    -0.398 C  
HETATM    3  C   UNL     1      -9.800   8.973  69.885  1.00  0.00    -0.183 C  
HETATM    4  C   UNL     1     -11.962   8.723  71.258  1.00  0.00    -0.353 C  
ENDROOT
BRANCH   3   5
HETATM    5  N   UNL     1      -9.693   7.597  69.369  1.00  0.00    -0.163 N  
HETATM    6  H   UNL     1      -9.416   6.858  70.014  1.00  0.00     0.000 HD 
BRANCH   5   7
HETATM    7  C   UNL     1      -9.948   7.264  68.067  1.00  0.00    -0.157 C  
HETATM    8  O   UNL     1     -10.432   8.072  67.277  1.00  0.00    -0.274 OA 
BRANCH   7   9
HETATM    9  N   UNL     1      -9.708   5.955  67.704  1.00  0.00    -0.111 N  
HETATM   10  C   UNL     1     -10.387   5.187  66.671  1.00  0.00    -0.281 C  
BRANCH   9  11
HETATM   11  C   UNL     1      -8.616   5.255  68.393  1.00  0.00    -0.095 C  
BRANCH  11  12
HETATM   12  C   UNL     1      -9.133   4.376  69.501  1.00  0.00    -0.115 A  
HETATM   13  C   UNL     1      -9.187   2.993  69.484  1.00  0.00    -0.147 A  
HETATM   14  N   UNL     1      -9.544   4.945  70.710  1.00  0.00    -0.171 NA 
HETATM   15  S   UNL     1      -9.746   2.394  70.983  1.00  0.00    -0.006 SA 
HETATM   16  C   UNL     1     -11.627   5.007  73.055  1.00  0.00    -0.299 C  
HETATM   17  C   UNL     1      -9.869   4.006  71.576  1.00  0.00    -0.181 A  
HETATM   18  C   UNL     1     -10.299   4.253  73.005  1.00  0.00    -0.239 C  
HETATM   19  C   UNL     1      -9.218   5.020  73.769  1.00  0.00    -0.121 C  
ENDBRANCH  11  12
ENDBRANCH   9  11
ENDBRANCH   7   9
ENDBRANCH   5   7
ENDBRANCH   3   5
BRANCH   3  20
HETATM   20  C   UNL     1      -8.493   9.817  69.766  1.00  0.00    -0.193 C  
HETATM   21  O   UNL     1      -7.605   9.819  70.617  1.00  0.00    -0.259 OA 
HETATM   22  N   UNL     1      -8.429  10.616  68.641  1.00  0.00    -0.135 N  
HETATM   23  H   UNL     1      -9.246  10.678  68.034  1.00  0.00     0.000 HD 
BRANCH  22  24
HETATM   24  C   UNL     1      -7.232  11.376  68.292  1.00  0.00    -0.082 C  
BRANCH  24  25
HETATM   25  C   UNL     1      -7.324  12.877  68.639  1.00  0.00    -0.099 C  
BRANCH  25  26
HETATM   26  C   UNL     1      -7.835  13.858  67.574  1.00  0.00    -0.181 C  
HETATM   27  H   UNL     1      -8.009  15.795  67.435  1.00  0.00     0.000 HD 
HETATM   28  O   UNL     1      -7.692  15.188  68.093  1.00  0.00    -0.108 OA 
BRANCH  26  29
HETATM   29  C   UNL     1      -9.297  13.646  67.075  1.00  0.00    -0.248 C  
BRANCH  29  30
HETATM   30  N   UNL     1     -10.304  14.109  68.030  1.00  0.00    -0.227 N  
HETATM   31  C   UNL     1     -11.432  13.376  68.278  1.00  0.00    -0.315 C  
HETATM   32  H   UNL     1     -10.162  14.993  68.519  1.00  0.00     0.000 HD 
HETATM   33  O   UNL     1     -11.508  12.171  68.140  1.00  0.00    -0.271 OA 
BRANCH  31  34
HETATM   34  O   UNL     1     -12.447  14.188  68.642  1.00  0.00    -0.145 OA 
BRANCH  34  35
HETATM   35  C   UNL     1     -12.107  15.257  69.549  1.00  0.00    -0.290 C  
BRANCH  35  36
HETATM   36  C   UNL     1     -12.751  15.069  70.883  1.00  0.00    -0.375 A  
HETATM   37  N   UNL     1     -14.170  14.218  72.543  1.00  0.00    -0.576 NA 
HETATM   38  C   UNL     1     -13.783  14.212  71.218  1.00  0.00    -0.211 A  
HETATM   39  C   UNL     1     -13.433  15.085  73.201  1.00  0.00    -0.323 A  
HETATM   40  S   UNL     1     -12.216  15.884  72.293  1.00  0.00    -0.532 SA 
ENDBRANCH  35  36
ENDBRANCH  34  35
ENDBRANCH  31  34
ENDBRANCH  29  30
BRANCH  29  41
HETATM   41  C   UNL     1      -9.541  14.252  65.653  1.00  0.00    -0.139 C  
BRANCH  41  42
HETATM   42  C   UNL     1     -10.430  13.468  64.709  1.00  0.00    -0.430 A  
HETATM   43  C   UNL     1     -10.867  11.475  63.375  1.00  0.00    -0.423 A  
HETATM   44  C   UNL     1     -10.003  12.273  64.118  1.00  0.00    -0.261 A  
HETATM   45  C   UNL     1     -11.728  13.905  64.433  1.00  0.00    -0.427 A  
HETATM   46  C   UNL     1     -12.597  13.118  63.664  1.00  0.00    -0.243 A  
HETATM   47  C   UNL     1     -12.170  11.894  63.151  1.00  0.00    -0.340 A  
ENDBRANCH  41  42
ENDBRANCH  29  41
ENDBRANCH  26  29
ENDBRANCH  25  26
ENDBRANCH  24  25
BRANCH  24  48
HETATM   48  C   UNL     1      -6.856  11.093  66.823  1.00  0.00    -0.134 C  
BRANCH  48  49
HETATM   49  C   UNL     1      -7.056   9.670  66.359  1.00  0.00    -0.093 A  
HETATM   50  C   UNL     1      -6.422   7.326  66.440  1.00  0.00    -0.048 A  
HETATM   51  C   UNL     1      -6.264   8.639  66.881  1.00  0.00    -0.059 A  
HETATM   52  C   UNL     1      -7.370   7.027  65.466  1.00  0.00    -0.079 A  
HETATM   53  C   UNL     1      -8.162   8.043  64.932  1.00  0.00    -0.137 A  
HETATM   54  C   UNL     1      -8.002   9.359  65.369  1.00  0.00    -0.105 A  
ENDBRANCH  48  49
ENDBRANCH  24  48
ENDBRANCH  22  24
ENDBRANCH   3  20
TORSDOF 18
ENDMDL
MODEL       35
REMARK 921   NORMALIZED FREE ENERGY PREDICTED BY IDOCK:   -5.10 KCAL/MOL
REMARK 922        TOTAL FREE ENERGY PREDICTED BY IDOCK:  -15.09 KCAL/MOL
REMARK 923 INTER-LIGAND FREE ENERGY PREDICTED BY IDOCK:  -13.96 KCAL/MOL
REMARK 924 INTRA-LIGAND FREE ENERGY PREDICTED BY IDOCK:   -1.13 KCAL/MOL
REMARK 927      BINDING AFFINITY PREDICTED BY RF-SCORE:    0.00 PKD
ROOT
HETATM    1  C   UNL     1      -9.975  11.844  65.677  1.00  0.00    -0.269 C  
HETATM    2  C   UNL     1     -11.477  11.875  65.928  1.00  0.00    -0.340 C  
HETATM    3  C   UNL     1     -11.915  12.717  67.152  1.00  0.00    -0.284 C  
HETATM    4  C   UNL     1     -12.198  12.272  64.634  1.00  0.00    -0.454 C  
ENDROOT
BRANCH   3   5
HETATM    5  N   UNL     1     -11.627  14.160  67.101  1.00  0.00    -0.356 N  
HETATM    6  H   UNL     1     -12.263  14.799  67.577  1.00  0.00     0.000 HD 
BRANCH   5   7
HETATM    7  C   UNL     1     -10.547  14.685  66.446  1.00  0.00    -0.301 C  
HETATM    8  O   UNL     1     -10.577  14.928  65.242  1.00  0.00    -0.341 OA 
BRANCH   7   9
HETATM    9  N   UNL     1      -9.395  14.857  67.187  1.00  0.00    -0.210 N  
HETATM   10  C   UNL     1      -9.225  14.643  68.616  1.00  0.00    -0.194 C  
BRANCH   9  11
HETATM   11  C   UNL     1      -8.182  15.255  66.462  1.00  0.00     0.001 C  
BRANCH  11  12
HETATM   12  C   UNL     1      -7.960  16.743  66.527  1.00  0.00    -0.299 A  
HETATM   13  C   UNL     1      -6.749  17.393  66.367  1.00  0.00    -0.262 A  
HETATM   14  N   UNL     1      -9.049  17.605  66.691  1.00  0.00    -0.257 NA 
HETATM   15  S   UNL     1      -6.963  19.087  66.414  1.00  0.00    -0.230 SA 
HETATM   16  C   UNL     1     -10.246  20.156  68.070  1.00  0.00    -0.493 C  
HETATM   17  C   UNL     1      -8.657  18.862  66.627  1.00  0.00    -0.307 A  
HETATM   18  C   UNL     1      -9.574  20.062  66.701  1.00  0.00    -0.548 C  
HETATM   19  C   UNL     1     -10.625  20.007  65.591  1.00  0.00    -0.380 C  
ENDBRANCH  11  12
ENDBRANCH   9  11
ENDBRANCH   7   9
ENDBRANCH   5   7
ENDBRANCH   3   5
BRANCH   3  20
HETATM   20  C   UNL     1     -11.551  12.028  68.504  1.00  0.00    -0.309 C  
HETATM   21  O   UNL     1     -10.436  11.573  68.757  1.00  0.00    -0.201 OA 
HETATM   22  N   UNL     1     -12.604  11.915  69.391  1.00  0.00     0.217 N  
HETATM   23  H   UNL     1     -13.537  12.189  69.084  1.00  0.00     0.000 HD 
BRANCH  22  24
HETATM   24  C   UNL     1     -12.428  11.418  70.752  1.00  0.00    -0.365 C  
BRANCH  24  25
HETATM   25  C   UNL     1     -12.639   9.896  70.892  1.00  0.00    -0.392 C  
BRANCH  25  26
HETATM   26  C   UNL     1     -11.412   8.976  70.962  1.00  0.00    -0.295 C  
HETATM   27  H   UNL     1      -9.499   9.227  71.241  1.00  0.00     0.000 HD 
HETATM   28  O   UNL     1     -10.258   9.796  71.198  1.00  0.00    -0.212 OA 
BRANCH  26  29
HETATM   29  C   UNL     1     -11.157   8.057  69.729  1.00  0.00    -0.064 C  
BRANCH  29  30
HETATM   30  N   UNL     1      -9.927   8.389  69.009  1.00  0.00    -0.185 N  
HETATM   31  C   UNL     1      -9.815   8.167  67.663  1.00  0.00    -0.169 C  
HETATM   32  H   UNL     1      -9.140   8.792  69.519  1.00  0.00     0.000 HD 
HETATM   33  O   UNL     1     -10.756   8.139  66.895  1.00  0.00    -0.309 OA 
BRANCH  31  34
HETATM   34  O   UNL     1      -8.527   7.938  67.333  1.00  0.00    -0.121 OA 
BRANCH  34  35
HETATM   35  C   UNL     1      -8.308   7.058  66.211  1.00  0.00    -0.129 C  
BRANCH  35  36
HETATM   36  C   UNL     1      -8.531   5.629  66.584  1.00  0.00    -0.113 A  
HETATM   37  N   UNL     1      -9.652   3.645  67.128  1.00  0.00    -0.202 NA 
HETATM   38  C   UNL     1      -9.732   4.989  66.828  1.00  0.00    -0.174 A  
HETATM   39  C   UNL     1      -8.390   3.277  67.118  1.00  0.00    -0.093 A  
HETATM   40  S   UNL     1      -7.254   4.491  66.695  1.00  0.00    -0.081 SA 
ENDBRANCH  35  36
ENDBRANCH  34  35
ENDBRANCH  31  34
ENDBRANCH  29  30
BRANCH  29  41
HETATM   41  C   UNL     1     -11.211   6.535  70.091  1.00  0.00    -0.437 C  
BRANCH  41  42
HETATM   42  C   UNL     1     -10.604   6.115  71.413  1.00  0.00    -0.294 A  
HETATM   43  C   UNL     1     -10.833   5.136  73.634  1.00  0.00    -0.363 A  
HETATM   44  C   UNL     1     -11.395   5.664  72.477  1.00  0.00    -0.349 A  
HETATM   45  C   UNL     1      -9.218   6.131  71.593  1.00  0.00    -0.150 A  
HETATM   46  C   UNL     1      -8.645   5.623  72.767  1.00  0.00    -0.119 A  
HETATM   47  C   UNL     1      -9.454   5.109  73.779  1.00  0.00    -0.132 A  
ENDBRANCH  41  42
ENDBRANCH  29  41
ENDBRANCH  26  29
ENDBRANCH  25  26
ENDBRANCH  24  25
BRANCH  24  48
HETATM   48  C   UNL     1     -13.282  12.262  71.721  1.00  0.00    -0.428 C  
BRANCH  48  49
HETATM   49  C   UNL     1     -12.806  13.676  71.950  1.00  0.00    -0.381 A  
HETATM   50  C   UNL     1     -12.585  15.608  73.408  1.00  0.00    -0.652 A  
HETATM   51  C   UNL     1     -12.997  14.293  73.194  1.00  0.00    -0.426 A  
HETATM   52  C   UNL     1     -11.984  16.326  72.378  1.00  0.00    -0.630 A  
HETATM   53  C   UNL     1     -11.793  15.728  71.133  1.00  0.00    -0.471 A  
HETATM   54  C   UNL     1     -12.208  14.413  70.916  1.00  0.00    -0.413 A  
ENDBRANCH  48  49
ENDBRANCH  24  48
ENDBRANCH  22  24
ENDBRANCH   3  20
TORSDOF 18
ENDMDL
MODEL       36
REMARK 921   NORMALIZED FREE ENERGY PREDICTED BY IDOCK:   -5.03 KCAL/MOL
REMARK 922        TOTAL FREE ENERGY PREDICTED BY IDOCK:  -14.93 KCAL/MOL
REMARK 923 INTER-LIGAND FREE ENERGY PREDICTED BY IDOCK:  -11.87 KCAL/MOL
REMARK 924 INTRA-LIGAND FREE ENERGY PREDICTED BY IDOCK:   -3.06 KCAL/MOL
REMARK 927      BINDING AFFINITY PREDICTED BY RF-SCORE:    0.00 PKD
ROOT
HETATM    1  C   UNL     1     -13.589  15.483  71.096  1.00  0.00    -0.459 C  
HETATM    2  C   UNL     1     -12.202  14.936  71.413  1.00  0.00    -0.391 C  
HETATM    3  C   UNL     1     -11.202  14.977  70.233  1.00  0.00    -0.252 C  
HETATM    4  C   UNL     1     -11.669  15.615  72.681  1.00  0.00    -0.555 C  
ENDROOT
BRANCH   3   5
HETATM    5  N   UNL     1     -10.846  16.307  69.710  1.00  0.00    -0.341 N  
HETATM    6  H   UNL     1     -11.467  17.090  69.914  1.00  0.00     0.000 HD 
BRANCH   5   7
HETATM    7  C   UNL     1      -9.723  16.543  68.966  1.00  0.00    -0.258 C  
HETATM    8  O   UNL     1      -8.636  16.054  69.265  1.00  0.00    -0.251 OA 
BRANCH   7   9
HETATM    9  N   UNL     1      -9.853  17.420  67.908  1.00  0.00    -0.276 N  
HETATM   10  C   UNL     1     -10.718  18.586  67.830  1.00  0.00    -0.339 C  
BRANCH   9  11
HETATM   11  C   UNL     1      -8.995  17.193  66.738  1.00  0.00    -0.241 C  
BRANCH  11  12
HETATM   12  C   UNL     1      -7.888  18.211  66.656  1.00  0.00    -0.242 A  
HETATM   13  C   UNL     1      -7.102  18.645  67.709  1.00  0.00    -0.220 A  
HETATM   14  N   UNL     1      -7.528  18.753  65.418  1.00  0.00    -0.396 NA 
HETATM   15  S   UNL     1      -5.901  19.728  67.158  1.00  0.00    -0.171 SA 
HETATM   16  C   UNL     1      -6.706  21.281  63.753  1.00  0.00     0.017 C  
HETATM   17  C   UNL     1      -6.483  19.547  65.548  1.00  0.00    -0.255 A  
HETATM   18  C   UNL     1      -5.785  20.255  64.409  1.00  0.00    -0.270 C  
HETATM   19  C   UNL     1      -5.282  19.246  63.374  1.00  0.00    -0.318 C  
ENDBRANCH  11  12
ENDBRANCH   9  11
ENDBRANCH   7   9
ENDBRANCH   5   7
ENDBRANCH   3   5
BRANCH   3  20
HETATM   20  C   UNL     1     -11.536  13.915  69.138  1.00  0.00    -0.313 C  
HETATM   21  O   UNL     1     -12.508  13.994  68.389  1.00  0.00    -0.119 OA 
HETATM   22  N   UNL     1     -10.675  12.835  69.107  1.00  0.00    -0.440 N  
HETATM   23  H   UNL     1      -9.964  12.753  69.833  1.00  0.00     0.000 HD 
BRANCH  22  24
HETATM   24  C   UNL     1     -10.749  11.808  68.072  1.00  0.00    -0.208 C  
BRANCH  24  25
HETATM   25  C   UNL     1     -10.353  10.400  68.562  1.00  0.00    -0.197 C  
BRANCH  25  26
HETATM   26  C   UNL     1      -9.000  10.208  69.262  1.00  0.00    -0.183 C  
HETATM   27  H   UNL     1      -7.390  11.282  69.499  1.00  0.00     0.000 HD 
HETATM   28  O   UNL     1      -8.227  11.401  69.066  1.00  0.00    -0.096 OA 
BRANCH  26  29
HETATM   29  C   UNL     1      -8.162   8.966  68.832  1.00  0.00    -0.117 C  
BRANCH  29  30
HETATM   30  N   UNL     1      -8.044   7.959  69.888  1.00  0.00    -0.116 N  
HETATM   31  C   UNL     1      -7.141   8.105  70.905  1.00  0.00    -0.050 C  
HETATM   32  H   UNL     1      -8.645   7.134  69.864  1.00  0.00     0.000 HD 
HETATM   33  O   UNL     1      -6.722   9.175  71.300  1.00  0.00    -0.089 OA 
BRANCH  31  34
HETATM   34  O   UNL     1      -6.753   6.895  71.363  1.00  0.00    -0.058 OA 
BRANCH  34  35
HETATM   35  C   UNL     1      -7.147   6.573  72.712  1.00  0.00    -0.081 C  
BRANCH  35  36
HETATM   36  C   UNL     1      -8.630   6.615  72.874  1.00  0.00    -0.118 A  
HETATM   37  N   UNL     1     -10.760   7.398  73.459  1.00  0.00    -0.365 NA 
HETATM   38  C   UNL     1      -9.395   7.599  73.472  1.00  0.00    -0.282 A  
HETATM   39  C   UNL     1     -11.020   6.258  72.859  1.00  0.00    -0.254 A  
HETATM   40  S   UNL     1      -9.667   5.408  72.234  1.00  0.00    -0.159 SA 
ENDBRANCH  35  36
ENDBRANCH  34  35
ENDBRANCH  31  34
ENDBRANCH  29  30
BRANCH  29  41
HETATM   41  C   UNL     1      -8.667   8.331  67.494  1.00  0.00    -0.129 C  
BRANCH  41  42
HETATM   42  C   UNL     1      -8.193   8.967  66.204  1.00  0.00    -0.115 A  
HETATM   43  C   UNL     1      -6.601  10.352  64.984  1.00  0.00    -0.075 A  
HETATM   44  C   UNL     1      -7.136   9.885  66.179  1.00  0.00    -0.103 A  
HETATM   45  C   UNL     1      -8.783   8.619  64.985  1.00  0.00    -0.154 A  
HETATM   46  C   UNL     1      -8.265   9.106  63.778  1.00  0.00    -0.173 A  
HETATM   47  C   UNL     1      -7.161   9.959  63.778  1.00  0.00    -0.125 A  
ENDBRANCH  41  42
ENDBRANCH  29  41
ENDBRANCH  26  29
ENDBRANCH  25  26
ENDBRANCH  24  25
BRANCH  24  48
HETATM   48  C   UNL     1      -9.974  12.281  66.825  1.00  0.00    -0.217 C  
BRANCH  48  49
HETATM   49  C   UNL     1     -10.807  12.522  65.589  1.00  0.00    -0.311 A  
HETATM   50  C   UNL     1     -11.727  11.721  63.487  1.00  0.00    -0.485 A  
HETATM   51  C   UNL     1     -10.982  11.501  64.645  1.00  0.00    -0.353 A  
HETATM   52  C   UNL     1     -12.301  12.968  63.254  1.00  0.00    -0.392 A  
HETATM   53  C   UNL     1     -12.132  13.995  64.181  1.00  0.00    -0.456 A  
HETATM   54  C   UNL     1     -11.382  13.778  65.339  1.00  0.00    -0.314 A  
ENDBRANCH  48  49
ENDBRANCH  24  48
ENDBRANCH  22  24
ENDBRANCH   3  20
TORSDOF 18
ENDMDL
MODEL       37
REMARK 921   NORMALIZED FREE ENERGY PREDICTED BY IDOCK:   -5.02 KCAL/MOL
REMARK 922        TOTAL FREE ENERGY PREDICTED BY IDOCK:  -14.91 KCAL/MOL
REMARK 923 INTER-LIGAND FREE ENERGY PREDICTED BY IDOCK:  -11.61 KCAL/MOL
REMARK 924 INTRA-LIGAND FREE ENERGY PREDICTED BY IDOCK:   -3.30 KCAL/MOL
REMARK 927      BINDING AFFINITY PREDICTED BY RF-SCORE:    0.00 PKD
ROOT
HETATM    1  C   UNL     1      -9.342   8.524  72.282  1.00  0.00    -0.363 C  
HETATM    2  C   UNL     1     -10.093   9.214  71.150  1.00  0.00    -0.384 C  
HETATM    3  C   UNL     1      -9.375   9.183  69.779  1.00  0.00    -0.182 C  
HETATM    4  C   UNL     1     -11.528   8.674  71.093  1.00  0.00    -0.332 C  
ENDROOT
BRANCH   3   5
HETATM    5  N   UNL     1      -9.153   7.858  69.176  1.00  0.00    -0.145 N  
HETATM    6  H   UNL     1      -8.425   7.262  69.570  1.00  0.00     0.000 HD 
BRANCH   5   7
HETATM    7  C   UNL     1      -9.875   7.387  68.115  1.00  0.00    -0.156 C  
HETATM    8  O   UNL     1     -10.759   8.058  67.586  1.00  0.00    -0.216 OA 
BRANCH   7   9
HETATM    9  N   UNL     1      -9.618   6.092  67.714  1.00  0.00    -0.112 N  
HETATM   10  C   UNL     1     -10.305   5.334  66.680  1.00  0.00    -0.283 C  
BRANCH   9  11
HETATM   11  C   UNL     1      -8.496   5.399  68.361  1.00  0.00    -0.096 C  
BRANCH  11  12
HETATM   12  C   UNL     1      -8.965   4.509  69.481  1.00  0.00    -0.094 A  
HETATM   13  C   UNL     1      -9.021   3.126  69.453  1.00  0.00    -0.116 A  
HETATM   14  N   UNL     1      -9.323   5.067  70.713  1.00  0.00    -0.147 NA 
HETATM   15  S   UNL     1      -9.515   2.513  70.969  1.00  0.00    -0.140 SA 
HETATM   16  C   UNL     1     -11.303   5.107  73.146  1.00  0.00    -0.385 C  
HETATM   17  C   UNL     1      -9.612   4.119  71.583  1.00  0.00    -0.164 A  
HETATM   18  C   UNL     1      -9.979   4.353  73.031  1.00  0.00    -0.195 C  
HETATM   19  C   UNL     1      -8.865   5.112  73.755  1.00  0.00    -0.118 C  
ENDBRANCH  11  12
ENDBRANCH   9  11
ENDBRANCH   7   9
ENDBRANCH   5   7
ENDBRANCH   3   5
BRANCH   3  20
HETATM   20  C   UNL     1      -8.137  10.133  69.739  1.00  0.00    -0.154 C  
HETATM   21  O   UNL     1      -7.308  10.207  70.644  1.00  0.00    -0.306 OA 
HETATM   22  N   UNL     1      -8.069  10.936  68.617  1.00  0.00    -0.135 N  
HETATM   23  H   UNL     1      -8.848  10.930  67.960  1.00  0.00     0.000 HD 
BRANCH  22  24
HETATM   24  C   UNL     1      -6.920  11.794  68.341  1.00  0.00    -0.080 C  
BRANCH  24  25
HETATM   25  C   UNL     1      -7.182  13.291  68.603  1.00  0.00    -0.106 C  
BRANCH  25  26
HETATM   26  C   UNL     1      -6.774  14.317  67.537  1.00  0.00    -0.105 C  
HETATM   27  H   UNL     1      -5.259  15.514  67.265  1.00  0.00     0.000 HD 
HETATM   28  O   UNL     1      -5.512  14.879  67.924  1.00  0.00    -0.148 OA 
BRANCH  26  29
HETATM   29  C   UNL     1      -7.789  15.464  67.246  1.00  0.00    -0.206 C  
BRANCH  29  30
HETATM   30  N   UNL     1      -9.179  15.006  67.211  1.00  0.00    -0.195 N  
HETATM   31  C   UNL     1     -10.080  15.553  66.338  1.00  0.00    -0.288 C  
HETATM   32  H   UNL     1      -9.480  14.268  67.847  1.00  0.00     0.000 HD 
HETATM   33  O   UNL     1      -9.781  16.066  65.278  1.00  0.00    -0.403 OA 
BRANCH  31  34
HETATM   34  O   UNL     1     -11.327  15.484  66.851  1.00  0.00    -0.227 OA 
BRANCH  34  35
HETATM   35  C   UNL     1     -11.874  14.159  67.009  1.00  0.00    -0.429 C  
BRANCH  35  36
HETATM   36  C   UNL     1     -11.915  13.425  65.709  1.00  0.00    -0.407 A  
HETATM   37  N   UNL     1     -11.723  11.676  64.161  1.00  0.00    -0.272 NA 
HETATM   38  C   UNL     1     -11.557  12.113  65.459  1.00  0.00    -0.343 A  
HETATM   39  C   UNL     1     -12.197  12.662  63.433  1.00  0.00    -0.517 A  
HETATM   40  S   UNL     1     -12.522  14.126  64.267  1.00  0.00    -0.148 SA 
ENDBRANCH  35  36
ENDBRANCH  34  35
ENDBRANCH  31  34
ENDBRANCH  29  30
BRANCH  29  41
HETATM   41  C   UNL     1      -7.616  16.682  68.214  1.00  0.00    -0.181 C  
BRANCH  41  42
HETATM   42  C   UNL     1      -8.310  17.973  67.833  1.00  0.00    -0.249 A  
HETATM   43  C   UNL     1      -8.657  19.812  66.270  1.00  0.00    -0.397 A  
HETATM   44  C   UNL     1      -7.927  18.712  66.707  1.00  0.00    -0.266 A  
HETATM   45  C   UNL     1      -9.390  18.444  68.585  1.00  0.00    -0.339 A  
HETATM   46  C   UNL     1     -10.116  19.567  68.164  1.00  0.00    -0.537 A  
HETATM   47  C   UNL     1      -9.758  20.239  66.996  1.00  0.00    -0.598 A  
ENDBRANCH  41  42
ENDBRANCH  29  41
ENDBRANCH  26  29
ENDBRANCH  25  26
ENDBRANCH  24  25
BRANCH  24  48
HETATM   48  C   UNL     1      -6.381  11.489  66.928  1.00  0.00    -0.146 C  
BRANCH  48  49
HETATM   49  C   UNL     1      -7.023  10.318  66.222  1.00  0.00    -0.115 A  
HETATM   50  C   UNL     1      -8.868   9.395  64.937  1.00  0.00    -0.240 A  
HETATM   51  C   UNL     1      -8.253  10.475  65.569  1.00  0.00    -0.162 A  
HETATM   52  C   UNL     1      -8.263   8.141  64.956  1.00  0.00    -0.157 A  
HETATM   53  C   UNL     1      -7.042   7.967  65.606  1.00  0.00    -0.063 A  
HETATM   54  C   UNL     1      -6.428   9.047  66.243  1.00  0.00    -0.066 A  
ENDBRANCH  48  49
ENDBRANCH  24  48
ENDBRANCH  22  24
ENDBRANCH   3  20
TORSDOF 18
ENDMDL
MODEL       38
REMARK 921   NORMALIZED FREE ENERGY PREDICTED BY IDOCK:   -4.97 KCAL/MOL
REMARK 922        TOTAL FREE ENERGY PREDICTED BY IDOCK:  -14.81 KCAL/MOL
REMARK 923 INTER-LIGAND FREE ENERGY PREDICTED BY IDOCK:  -12.08 KCAL/MOL
REMARK 924 INTRA-LIGAND FREE ENERGY PREDICTED BY IDOCK:   -2.73 KCAL/MOL
REMARK 927      BINDING AFFINITY PREDICTED BY RF-SCORE:    0.00 PKD
ROOT
HETATM    1  C   UNL     1      -6.391  12.266  69.583  1.00  0.00    -0.111 C  
HETATM    2  C   UNL     1      -6.742  11.379  68.395  1.00  0.00    -0.065 C  
HETATM    3  C   UNL     1      -8.255  11.278  68.083  1.00  0.00    -0.140 C  
HETATM    4  C   UNL     1      -5.902  11.800  67.183  1.00  0.00    -0.136 C  
ENDROOT
BRANCH   3   5
HETATM    5  N   UNL     1      -8.935  12.523  67.690  1.00  0.00    -0.175 N  
HETATM    6  H   UNL     1      -8.864  13.331  68.309  1.00  0.00     0.000 HD 
BRANCH   5   7
HETATM    7  C   UNL     1      -9.657  12.649  66.535  1.00  0.00    -0.248 C  
HETATM    8  O   UNL     1      -9.535  11.853  65.607  1.00  0.00    -0.228 OA 
BRANCH   7   9
HETATM    9  N   UNL     1     -10.472  13.759  66.431  1.00  0.00    -0.281 N  
HETATM   10  C   UNL     1     -11.430  14.054  65.377  1.00  0.00    -0.315 C  
BRANCH   9  11
HETATM   11  C   UNL     1     -10.414  14.741  67.522  1.00  0.00    -0.245 C  
BRANCH  11  12
HETATM   12  C   UNL     1      -9.578  15.936  67.148  1.00  0.00    -0.218 A  
HETATM   13  C   UNL     1      -8.271  15.905  66.694  1.00  0.00    -0.282 A  
HETATM   14  N   UNL     1     -10.140  17.217  67.174  1.00  0.00    -0.287 NA 
HETATM   15  S   UNL     1      -7.736  17.477  66.290  1.00  0.00    -0.284 SA 
HETATM   16  C   UNL     1      -9.824  20.252  67.903  1.00  0.00    -0.492 C  
HETATM   17  C   UNL     1      -9.279  18.109  66.725  1.00  0.00    -0.279 A  
HETATM   18  C   UNL     1      -9.566  19.583  66.554  1.00  0.00    -0.462 C  
HETATM   19  C   UNL     1     -10.753  19.796  65.613  1.00  0.00    -0.418 C  
ENDBRANCH  11  12
ENDBRANCH   9  11
ENDBRANCH   7   9
ENDBRANCH   5   7
ENDBRANCH   3   5
BRANCH   3  20
HETATM   20  C   UNL     1      -9.021  10.424  69.142  1.00  0.00    -0.179 C  
HETATM   21  O   UNL     1      -8.543   9.433  69.691  1.00  0.00    -0.140 OA 
HETATM   22  N   UNL     1     -10.317  10.838  69.381  1.00  0.00    -0.331 N  
HETATM   23  H   UNL     1     -10.710  11.583  68.806  1.00  0.00     0.000 HD 
BRANCH  22  24
HETATM   24  C   UNL     1     -11.144  10.246  70.429  1.00  0.00    -0.319 C  
BRANCH  24  25
HETATM   25  C   UNL     1     -11.132   8.703  70.434  1.00  0.00    -0.250 C  
BRANCH  25  26
HETATM   26  C   UNL     1     -10.934   7.964  71.765  1.00  0.00    -0.243 C  
HETATM   27  H   UNL     1     -10.071   8.367  73.466  1.00  0.00     0.000 HD 
HETATM   28  O   UNL     1     -10.194   8.825  72.643  1.00  0.00    -0.188 OA 
BRANCH  26  29
HETATM   29  C   UNL     1     -10.239   6.570  71.693  1.00  0.00    -0.193 C  
BRANCH  29  30
HETATM   30  N   UNL     1      -9.222   6.488  70.644  1.00  0.00    -0.161 N  
HETATM   31  C   UNL     1      -9.296   5.540  69.660  1.00  0.00    -0.134 C  
HETATM   32  H   UNL     1      -8.444   7.149  70.646  1.00  0.00     0.000 HD 
HETATM   33  O   UNL     1     -10.331   5.028  69.281  1.00  0.00    -0.213 OA 
BRANCH  31  34
HETATM   34  O   UNL     1      -8.060   5.226  69.219  1.00  0.00    -0.090 OA 
BRANCH  34  35
HETATM   35  C   UNL     1      -7.939   4.969  67.805  1.00  0.00    -0.095 C  
BRANCH  35  36
HETATM   36  C   UNL     1      -7.921   6.238  67.017  1.00  0.00    -0.109 A  
HETATM   37  N   UNL     1      -8.672   8.007  65.677  1.00  0.00    -0.149 NA 
HETATM   38  C   UNL     1      -8.953   6.804  66.291  1.00  0.00    -0.152 A  
HETATM   39  C   UNL     1      -7.426   8.340  65.934  1.00  0.00    -0.081 A  
HETATM   40  S   UNL     1      -6.557   7.275  66.960  1.00  0.00    -0.061 SA 
ENDBRANCH  35  36
ENDBRANCH  34  35
ENDBRANCH  31  34
ENDBRANCH  29  30
BRANCH  29  41
HETATM   41  C   UNL     1      -9.668   6.108  73.075  1.00  0.00    -0.160 C  
BRANCH  41  42
HETATM   42  C   UNL     1      -9.827   4.646  73.436  1.00  0.00    -0.170 A  
HETATM   43  C   UNL     1     -11.161   2.606  73.476  1.00  0.00    -0.317 A  
HETATM   44  C   UNL     1     -11.050   3.979  73.291  1.00  0.00    -0.301 A  
HETATM   45  C   UNL     1      -8.732   3.907  73.892  1.00  0.00    -0.093 A  
HETATM   46  C   UNL     1      -8.843   2.526  74.105  1.00  0.00    -0.077 A  
HETATM   47  C   UNL     1     -10.054   1.874  73.879  1.00  0.00    -0.144 A  
ENDBRANCH  41  42
ENDBRANCH  29  41
ENDBRANCH  26  29
ENDBRANCH  25  26
ENDBRANCH  24  25
BRANCH  24  48
HETATM   48  C   UNL     1     -12.557  10.862  70.376  1.00  0.00    -0.376 C  
BRANCH  48  49
HETATM   49  C   UNL     1     -12.683  12.258  70.939  1.00  0.00    -0.277 A  
HETATM   50  C   UNL     1     -13.527  13.765  72.648  1.00  0.00    -0.638 A  
HETATM   51  C   UNL     1     -13.381  12.478  72.134  1.00  0.00    -0.540 A  
HETATM   52  C   UNL     1     -12.981  14.852  71.970  1.00  0.00    -0.414 A  
HETATM   53  C   UNL     1     -12.289  14.651  70.777  1.00  0.00    -0.398 A  
HETATM   54  C   UNL     1     -12.146  13.362  70.258  1.00  0.00    -0.419 A  
ENDBRANCH  48  49
ENDBRANCH  24  48
ENDBRANCH  22  24
ENDBRANCH   3  20
TORSDOF 18
ENDMDL
MODEL       39
REMARK 921   NORMALIZED FREE ENERGY PREDICTED BY IDOCK:   -4.97 KCAL/MOL
REMARK 922        TOTAL FREE ENERGY PREDICTED BY IDOCK:  -14.80 KCAL/MOL
REMARK 923 INTER-LIGAND FREE ENERGY PREDICTED BY IDOCK:  -12.11 KCAL/MOL
REMARK 924 INTRA-LIGAND FREE ENERGY PREDICTED BY IDOCK:   -2.69 KCAL/MOL
REMARK 927      BINDING AFFINITY PREDICTED BY RF-SCORE:    0.00 PKD
ROOT
HETATM    1  C   UNL     1      -6.773  12.186  67.267  1.00  0.00    -0.144 C  
HETATM    2  C   UNL     1      -7.019  11.515  68.613  1.00  0.00    -0.089 C  
HETATM    3  C   UNL     1      -7.881  10.230  68.550  1.00  0.00    -0.097 C  
HETATM    4  C   UNL     1      -5.679  11.309  69.329  1.00  0.00    -0.043 C  
ENDROOT
BRANCH   3   5
HETATM    5  N   UNL     1      -7.328   9.097  67.790  1.00  0.00    -0.083 N  
HETATM    6  H   UNL     1      -6.580   9.281  67.121  1.00  0.00     0.000 HD 
BRANCH   5   7
HETATM    7  C   UNL     1      -7.768   7.810  67.937  1.00  0.00    -0.122 C  
HETATM    8  O   UNL     1      -8.084   7.358  69.034  1.00  0.00    -0.123 OA 
BRANCH   7   9
HETATM    9  N   UNL     1      -7.765   7.021  66.805  1.00  0.00    -0.097 N  
HETATM   10  C   UNL     1      -6.610   6.575  66.042  1.00  0.00    -0.048 C  
BRANCH   9  11
HETATM   11  C   UNL     1      -9.063   6.526  66.328  1.00  0.00    -0.148 C  
BRANCH  11  12
HETATM   12  C   UNL     1      -9.058   5.029  66.158  1.00  0.00    -0.138 A  
HETATM   13  C   UNL     1      -8.925   4.097  67.172  1.00  0.00    -0.128 A  
HETATM   14  N   UNL     1      -9.273   4.468  64.895  1.00  0.00    -0.155 NA 
HETATM   15  S   UNL     1      -9.074   2.510  66.554  1.00  0.00    -0.050 SA 
HETATM   16  C   UNL     1      -8.490   2.292  62.776  1.00  0.00    -0.074 C  
HETATM   17  C   UNL     1      -9.325   3.154  64.976  1.00  0.00    -0.148 A  
HETATM   18  C   UNL     1      -9.605   2.223  63.818  1.00  0.00    -0.125 C  
HETATM   19  C   UNL     1     -10.957   2.549  63.179  1.00  0.00    -0.230 C  
ENDBRANCH  11  12
ENDBRANCH   9  11
ENDBRANCH   7   9
ENDBRANCH   5   7
ENDBRANCH   3   5
BRANCH   3  20
HETATM   20  C   UNL     1      -9.383  10.539  68.258  1.00  0.00    -0.156 C  
HETATM   21  O   UNL     1      -9.955  10.211  67.221  1.00  0.00    -0.179 OA 
HETATM   22  N   UNL     1     -10.019  11.268  69.244  1.00  0.00    -0.428 N  
HETATM   23  H   UNL     1      -9.467  11.628  70.023  1.00  0.00     0.000 HD 
BRANCH  22  24
HETATM   24  C   UNL     1     -11.453  11.541  69.210  1.00  0.00    -0.305 C  
BRANCH  24  25
HETATM   25  C   UNL     1     -11.812  12.907  68.589  1.00  0.00    -0.347 C  
BRANCH  25  26
HETATM   26  C   UNL     1     -10.719  13.710  67.871  1.00  0.00    -0.247 C  
HETATM   27  H   UNL     1      -8.998  14.478  68.372  1.00  0.00     0.000 HD 
HETATM   28  O   UNL     1      -9.674  13.980  68.817  1.00  0.00    -0.205 OA 
BRANCH  26  29
HETATM   29  C   UNL     1     -11.163  15.040  67.189  1.00  0.00    -0.336 C  
BRANCH  29  30
HETATM   30  N   UNL     1     -10.042  15.926  66.872  1.00  0.00    -0.259 N  
HETATM   31  C   UNL     1     -10.191  17.287  66.890  1.00  0.00    -0.322 C  
HETATM   32  H   UNL     1      -9.136  15.523  66.634  1.00  0.00     0.000 HD 
HETATM   33  O   UNL     1     -11.014  17.876  67.563  1.00  0.00    -0.304 OA 
BRANCH  31  34
HETATM   34  O   UNL     1      -9.333  17.862  66.020  1.00  0.00    -0.508 OA 
BRANCH  34  35
HETATM   35  C   UNL     1      -7.967  17.404  66.082  1.00  0.00    -0.240 C  
BRANCH  35  36
HETATM   36  C   UNL     1      -7.134  18.283  66.956  1.00  0.00    -0.196 A  
HETATM   37  N   UNL     1      -5.824  20.102  67.640  1.00  0.00    -0.189 NA 
HETATM   38  C   UNL     1      -6.514  19.473  66.624  1.00  0.00    -0.185 A  
HETATM   39  C   UNL     1      -5.919  19.379  68.734  1.00  0.00    -0.229 A  
HETATM   40  S   UNL     1      -6.877  17.960  68.620  1.00  0.00    -0.256 SA 
ENDBRANCH  35  36
ENDBRANCH  34  35
ENDBRANCH  31  34
ENDBRANCH  29  30
BRANCH  29  41
HETATM   41  C   UNL     1     -12.071  14.802  65.937  1.00  0.00    -0.106 C  
BRANCH  41  42
HETATM   42  C   UNL     1     -11.662  13.697  64.985  1.00  0.00    -0.354 A  
HETATM   43  C   UNL     1      -9.934  12.329  63.943  1.00  0.00    -0.303 A  
HETATM   44  C   UNL     1     -10.318  13.435  64.694  1.00  0.00    -0.400 A  
HETATM   45  C   UNL     1     -12.629  12.877  64.395  1.00  0.00    -0.392 A  
HETATM   46  C   UNL     1     -12.250  11.776  63.616  1.00  0.00    -0.489 A  
HETATM   47  C   UNL     1     -10.901  11.492  63.406  1.00  0.00    -0.423 A  
ENDBRANCH  41  42
ENDBRANCH  29  41
ENDBRANCH  26  29
ENDBRANCH  25  26
ENDBRANCH  24  25
BRANCH  24  48
HETATM   48  C   UNL     1     -12.052  11.312  70.613  1.00  0.00    -0.480 C  
BRANCH  48  49
HETATM   49  C   UNL     1     -12.434   9.888  70.936  1.00  0.00    -0.401 A  
HETATM   50  C   UNL     1     -11.886   7.521  70.966  1.00  0.00    -0.319 A  
HETATM   51  C   UNL     1     -11.533   8.842  70.696  1.00  0.00    -0.280 A  
HETATM   52  C   UNL     1     -13.148   7.226  71.472  1.00  0.00    -0.434 A  
HETATM   53  C   UNL     1     -14.059   8.254  71.711  1.00  0.00    -0.510 A  
HETATM   54  C   UNL     1     -13.708   9.578  71.437  1.00  0.00    -0.294 A  
ENDBRANCH  48  49
ENDBRANCH  24  48
ENDBRANCH  22  24
ENDBRANCH   3  20
TORSDOF 18
ENDMDL
MODEL       40
REMARK 921   NORMALIZED FREE ENERGY PREDICTED BY IDOCK:   -4.92 KCAL/MOL
REMARK 922        TOTAL FREE ENERGY PREDICTED BY IDOCK:  -14.72 KCAL/MOL
REMARK 923 INTER-LIGAND FREE ENERGY PREDICTED BY IDOCK:  -11.36 KCAL/MOL
REMARK 924 INTRA-LIGAND FREE ENERGY PREDICTED BY IDOCK:   -3.36 KCAL/MOL
REMARK 927      BINDING AFFINITY PREDICTED BY RF-SCORE:    0.00 PKD
ROOT
HETATM    1  C   UNL     1     -10.296   5.036  71.245  1.00  0.00    -0.255 C  
HETATM    2  C   UNL     1     -10.278   5.528  72.687  1.00  0.00    -0.222 C  
HETATM    3  C   UNL     1     -10.496   7.051  72.858  1.00  0.00    -0.254 C  
HETATM    4  C   UNL     1     -11.247   4.681  73.522  1.00  0.00    -0.400 C  
ENDROOT
BRANCH   3   5
HETATM    5  N   UNL     1     -11.792   7.589  72.413  1.00  0.00    -0.444 N  
HETATM    6  H   UNL     1     -12.590   7.517  73.045  1.00  0.00     0.000 HD 
BRANCH   5   7
HETATM    7  C   UNL     1     -11.979   8.181  71.195  1.00  0.00    -0.273 C  
HETATM    8  O   UNL     1     -12.003   7.526  70.155  1.00  0.00     0.029 OA 
BRANCH   7   9
HETATM    9  N   UNL     1     -12.061   9.559  71.180  1.00  0.00    -0.327 N  
HETATM   10  C   UNL     1     -13.078  10.389  71.808  1.00  0.00    -0.462 C  
BRANCH   9  11
HETATM   11  C   UNL     1     -10.984  10.290  70.500  1.00  0.00    -0.270 C  
BRANCH  11  12
HETATM   12  C   UNL     1     -11.482  11.576  69.896  1.00  0.00    -0.260 A  
HETATM   13  C   UNL     1     -11.748  11.796  68.556  1.00  0.00    -0.330 A  
HETATM   14  N   UNL     1     -11.790  12.663  70.722  1.00  0.00     0.018 NA 
HETATM   15  S   UNL     1     -12.392  13.361  68.319  1.00  0.00     0.349 SA 
HETATM   16  C   UNL     1     -11.659  15.758  71.213  1.00  0.00    -0.499 C  
HETATM   17  C   UNL     1     -12.296  13.653  70.014  1.00  0.00    -0.278 A  
HETATM   18  C   UNL     1     -12.798  14.959  70.584  1.00  0.00    -0.406 C  
HETATM   19  C   UNL     1     -13.908  14.710  71.608  1.00  0.00    -0.522 C  
ENDBRANCH  11  12
ENDBRANCH   9  11
ENDBRANCH   7   9
ENDBRANCH   5   7
ENDBRANCH   3   5
BRANCH   3  20
HETATM   20  C   UNL     1      -9.255   7.880  72.401  1.00  0.00    -0.181 C  
HETATM   21  O   UNL     1      -8.612   8.612  73.151  1.00  0.00    -0.393 OA 
HETATM   22  N   UNL     1      -8.960   7.772  71.056  1.00  0.00    -0.141 N  
HETATM   23  H   UNL     1      -9.600   7.258  70.451  1.00  0.00     0.000 HD 
BRANCH  22  24
HETATM   24  C   UNL     1      -7.763   8.370  70.470  1.00  0.00    -0.080 C  
BRANCH  24  25
HETATM   25  C   UNL     1      -7.796   9.911  70.419  1.00  0.00    -0.066 C  
BRANCH  25  26
HETATM   26  C   UNL     1      -6.692  10.656  69.656  1.00  0.00    -0.116 C  
HETATM   27  H   UNL     1      -5.268  11.900  70.131  1.00  0.00     0.000 HD 
HETATM   28  O   UNL     1      -5.950  11.438  70.603  1.00  0.00    -0.275 OA 
BRANCH  26  29
HETATM   29  C   UNL     1      -7.151  11.564  68.474  1.00  0.00    -0.087 C  
BRANCH  29  30
HETATM   30  N   UNL     1      -6.763  12.965  68.641  1.00  0.00    -0.089 N  
HETATM   31  C   UNL     1      -7.660  13.976  68.427  1.00  0.00    -0.129 C  
HETATM   32  H   UNL     1      -5.809  13.191  68.921  1.00  0.00     0.000 HD 
HETATM   33  O   UNL     1      -8.864  13.858  68.543  1.00  0.00    -0.181 OA 
BRANCH  31  34
HETATM   34  O   UNL     1      -7.018  15.093  68.024  1.00  0.00    -0.108 OA 
BRANCH  34  35
HETATM   35  C   UNL     1      -7.732  15.932  67.092  1.00  0.00    -0.212 C  
BRANCH  35  36
HETATM   36  C   UNL     1      -8.197  17.195  67.739  1.00  0.00    -0.197 A  
HETATM   37  N   UNL     1      -8.130  19.333  68.696  1.00  0.00    -0.363 NA 
HETATM   38  C   UNL     1      -7.435  18.273  68.150  1.00  0.00    -0.263 A  
HETATM   39  C   UNL     1      -9.413  19.047  68.704  1.00  0.00    -0.405 A  
HETATM   40  S   UNL     1      -9.854  17.540  68.011  1.00  0.00    -0.316 SA 
ENDBRANCH  35  36
ENDBRANCH  34  35
ENDBRANCH  31  34
ENDBRANCH  29  30
BRANCH  29  41
HETATM   41  C   UNL     1      -6.702  11.012  67.081  1.00  0.00    -0.096 C  
BRANCH  41  42
HETATM   42  C   UNL     1      -7.778  10.821  66.032  1.00  0.00    -0.139 A  
HETATM   43  C   UNL     1      -8.578   9.768  63.984  1.00  0.00    -0.208 A  
HETATM   44  C   UNL     1      -7.551  10.071  64.871  1.00  0.00    -0.139 A  
HETATM   45  C   UNL     1      -9.053  11.363  66.218  1.00  0.00    -0.211 A  
HETATM   46  C   UNL     1     -10.086  11.082  65.315  1.00  0.00    -0.332 A  
HETATM   47  C   UNL     1      -9.851  10.269  64.207  1.00  0.00    -0.357 A  
ENDBRANCH  41  42
ENDBRANCH  29  41
ENDBRANCH  26  29
ENDBRANCH  25  26
ENDBRANCH  24  25
BRANCH  24  48
HETATM   48  C   UNL     1      -7.471   7.703  69.109  1.00  0.00    -0.095 C  
BRANCH  48  49
HETATM   49  C   UNL     1      -8.683   7.267  68.321  1.00  0.00    -0.125 A  
HETATM   50  C   UNL     1     -10.061   5.491  67.398  1.00  0.00    -0.215 A  
HETATM   51  C   UNL     1      -8.960   5.905  68.147  1.00  0.00    -0.115 A  
HETATM   52  C   UNL     1     -10.896   6.436  66.808  1.00  0.00    -0.361 A  
HETATM   53  C   UNL     1     -10.631   7.795  66.967  1.00  0.00    -0.396 A  
HETATM   54  C   UNL     1      -9.526   8.210  67.713  1.00  0.00    -0.164 A  
ENDBRANCH  48  49
ENDBRANCH  24  48
ENDBRANCH  22  24
ENDBRANCH   3  20
TORSDOF 18
ENDMDL
MODEL       41
REMARK 921   NORMALIZED FREE ENERGY PREDICTED BY IDOCK:   -4.89 KCAL/MOL
REMARK 922        TOTAL FREE ENERGY PREDICTED BY IDOCK:  -14.66 KCAL/MOL
REMARK 923 INTER-LIGAND FREE ENERGY PREDICTED BY IDOCK:  -10.84 KCAL/MOL
REMARK 924 INTRA-LIGAND FREE ENERGY PREDICTED BY IDOCK:   -3.82 KCAL/MOL
REMARK 927      BINDING AFFINITY PREDICTED BY RF-SCORE:    0.00 PKD
ROOT
HETATM    1  C   UNL     1     -12.274  14.527  63.929  1.00  0.00    -0.126 C  
HETATM    2  C   UNL     1     -11.501  13.224  64.100  1.00  0.00    -0.438 C  
HETATM    3  C   UNL     1     -11.044  12.925  65.549  1.00  0.00    -0.278 C  
HETATM    4  C   UNL     1     -12.299  12.076  63.469  1.00  0.00    -0.661 C  
ENDROOT
BRANCH   3   5
HETATM    5  N   UNL     1     -12.105  12.735  66.553  1.00  0.00    -0.347 N  
HETATM    6  H   UNL     1     -13.039  12.486  66.230  1.00  0.00     0.000 HD 
BRANCH   5   7
HETATM    7  C   UNL     1     -11.897  12.876  67.897  1.00  0.00    -0.339 C  
HETATM    8  O   UNL     1     -11.999  13.965  68.456  1.00  0.00    -0.352 OA 
BRANCH   7   9
HETATM    9  N   UNL     1     -11.490  11.749  68.583  1.00  0.00    -0.261 N  
HETATM   10  C   UNL     1     -11.145  10.451  68.023  1.00  0.00    -0.298 C  
BRANCH   9  11
HETATM   11  C   UNL     1     -11.336  11.867  70.039  1.00  0.00    -0.012 C  
BRANCH  11  12
HETATM   12  C   UNL     1     -11.993  10.721  70.761  1.00  0.00    -0.362 A  
HETATM   13  C   UNL     1     -13.326  10.646  71.125  1.00  0.00    -0.092 A  
HETATM   14  N   UNL     1     -11.258   9.569  71.058  1.00  0.00    -0.330 NA 
HETATM   15  S   UNL     1     -13.673   9.131  71.834  1.00  0.00    -0.414 SA 
HETATM   16  C   UNL     1     -10.560   7.310  73.119  1.00  0.00    -0.400 C  
HETATM   17  C   UNL     1     -12.034   8.653  71.603  1.00  0.00    -0.326 A  
HETATM   18  C   UNL     1     -11.591   7.261  71.994  1.00  0.00    -0.311 C  
HETATM   19  C   UNL     1     -11.030   6.513  70.783  1.00  0.00    -0.328 C  
ENDBRANCH  11  12
ENDBRANCH   9  11
ENDBRANCH   7   9
ENDBRANCH   5   7
ENDBRANCH   3   5
BRANCH   3  20
HETATM   20  C   UNL     1      -9.876  13.854  66.004  1.00  0.00    -0.289 C  
HETATM   21  O   UNL     1      -9.760  15.025  65.647  1.00  0.00    -0.339 OA 
HETATM   22  N   UNL     1      -8.935  13.239  66.807  1.00  0.00    -0.365 N  
HETATM   23  H   UNL     1      -9.007  12.234  66.967  1.00  0.00     0.000 HD 
BRANCH  22  24
HETATM   24  C   UNL     1      -7.843  13.977  67.435  1.00  0.00    -0.170 C  
BRANCH  24  25
HETATM   25  C   UNL     1      -6.528  13.177  67.536  1.00  0.00    -0.154 C  
BRANCH  25  26
HETATM   26  C   UNL     1      -6.424  12.041  68.564  1.00  0.00    -0.058 C  
HETATM   27  H   UNL     1      -5.081  10.708  69.034  1.00  0.00     0.000 HD 
HETATM   28  O   UNL     1      -5.145  11.411  68.398  1.00  0.00    -0.040 OA 
BRANCH  26  29
HETATM   29  C   UNL     1      -7.547  10.961  68.526  1.00  0.00    -0.111 C  
BRANCH  29  30
HETATM   30  N   UNL     1      -7.232   9.834  67.647  1.00  0.00    -0.088 N  
HETATM   31  C   UNL     1      -7.818   9.713  66.416  1.00  0.00    -0.101 C  
HETATM   32  H   UNL     1      -6.565   9.127  67.957  1.00  0.00     0.000 HD 
HETATM   33  O   UNL     1      -8.237  10.649  65.764  1.00  0.00    -0.158 OA 
BRANCH  31  34
HETATM   34  O   UNL     1      -7.905   8.413  66.065  1.00  0.00    -0.093 OA 
BRANCH  34  35
HETATM   35  C   UNL     1      -8.775   7.596  66.875  1.00  0.00    -0.129 C  
BRANCH  35  36
HETATM   36  C   UNL     1      -8.941   6.230  66.295  1.00  0.00    -0.155 A  
HETATM   37  N   UNL     1      -8.409   4.209  65.234  1.00  0.00    -0.108 NA 
HETATM   38  C   UNL     1      -7.992   5.457  65.650  1.00  0.00    -0.107 A  
HETATM   39  C   UNL     1      -9.673   4.048  65.558  1.00  0.00    -0.194 A  
HETATM   40  S   UNL     1     -10.401   5.341  66.420  1.00  0.00    -0.262 SA 
ENDBRANCH  35  36
ENDBRANCH  34  35
ENDBRANCH  31  34
ENDBRANCH  29  30
BRANCH  29  41
HETATM   41  C   UNL     1      -7.960  10.470  69.954  1.00  0.00     0.084 C  
BRANCH  41  42
HETATM   42  C   UNL     1      -7.210   9.283  70.522  1.00  0.00    -0.111 A  
HETATM   43  C   UNL     1      -5.317   8.362  71.750  1.00  0.00    -0.036 A  
HETATM   44  C   UNL     1      -5.940   9.418  71.094  1.00  0.00    -0.072 A  
HETATM   45  C   UNL     1      -7.794   8.013  70.523  1.00  0.00    -0.094 A  
HETATM   46  C   UNL     1      -7.161   6.938  71.161  1.00  0.00    -0.075 A  
HETATM   47  C   UNL     1      -5.930   7.119  71.790  1.00  0.00    -0.037 A  
ENDBRANCH  41  42
ENDBRANCH  29  41
ENDBRANCH  26  29
ENDBRANCH  25  26
ENDBRANCH  24  25
BRANCH  24  48
HETATM   48  C   UNL     1      -8.326  14.564  68.778  1.00  0.00    -0.149 C  
BRANCH  48  49
HETATM   49  C   UNL     1      -8.687  16.030  68.759  1.00  0.00    -0.223 A  
HETATM   50  C   UNL     1     -10.371  17.780  68.855  1.00  0.00    -0.300 A  
HETATM   51  C   UNL     1     -10.023  16.430  68.898  1.00  0.00    -0.257 A  
HETATM   52  C   UNL     1      -9.387  18.747  68.665  1.00  0.00    -0.392 A  
HETATM   53  C   UNL     1      -8.055  18.364  68.519  1.00  0.00    -0.340 A  
HETATM   54  C   UNL     1      -7.706  17.013  68.557  1.00  0.00    -0.238 A  
ENDBRANCH  48  49
ENDBRANCH  24  48
ENDBRANCH  22  24
ENDBRANCH   3  20
TORSDOF 18
ENDMDL
MODEL       42
REMARK 921   NORMALIZED FREE ENERGY PREDICTED BY IDOCK:   -4.85 KCAL/MOL
REMARK 922        TOTAL FREE ENERGY PREDICTED BY IDOCK:  -14.56 KCAL/MOL
REMARK 923 INTER-LIGAND FREE ENERGY PREDICTED BY IDOCK:  -11.19 KCAL/MOL
REMARK 924 INTRA-LIGAND FREE ENERGY PREDICTED BY IDOCK:   -3.37 KCAL/MOL
REMARK 927      BINDING AFFINITY PREDICTED BY RF-SCORE:    0.00 PKD
ROOT
HETATM    1  C   UNL     1     -13.074  11.224  70.350  1.00  0.00     0.166 C  
HETATM    2  C   UNL     1     -11.980  12.274  70.493  1.00  0.00    -0.296 C  
HETATM    3  C   UNL     1     -11.215  12.598  69.186  1.00  0.00    -0.243 C  
HETATM    4  C   UNL     1     -12.559  13.519  71.178  1.00  0.00    -0.438 C  
ENDROOT
BRANCH   3   5
HETATM    5  N   UNL     1     -11.999  13.184  68.086  1.00  0.00    -0.336 N  
HETATM    6  H   UNL     1     -12.749  12.628  67.676  1.00  0.00     0.000 HD 
BRANCH   5   7
HETATM    7  C   UNL     1     -11.771  14.437  67.589  1.00  0.00    -0.391 C  
HETATM    8  O   UNL     1     -11.869  15.439  68.294  1.00  0.00    -0.339 OA 
BRANCH   7   9
HETATM    9  N   UNL     1     -11.500  14.529  66.239  1.00  0.00    -0.353 N  
HETATM   10  C   UNL     1     -12.458  14.686  65.156  1.00  0.00    -0.206 C  
BRANCH   9  11
HETATM   11  C   UNL     1     -10.089  14.517  65.834  1.00  0.00    -0.326 C  
BRANCH  11  12
HETATM   12  C   UNL     1      -9.355  15.732  66.338  1.00  0.00    -0.301 A  
HETATM   13  C   UNL     1      -7.997  15.818  66.584  1.00  0.00    -0.197 A  
HETATM   14  N   UNL     1     -10.044  16.934  66.528  1.00  0.00    -0.303 NA 
HETATM   15  S   UNL     1      -7.568  17.405  67.048  1.00  0.00    -0.221 SA 
HETATM   16  C   UNL     1     -10.536  19.472  68.304  1.00  0.00    -0.442 C  
HETATM   17  C   UNL     1      -9.211  17.893  66.880  1.00  0.00    -0.264 A  
HETATM   18  C   UNL     1      -9.596  19.337  67.108  1.00  0.00    -0.397 C  
HETATM   19  C   UNL     1     -10.239  19.929  65.852  1.00  0.00    -0.552 C  
ENDBRANCH  11  12
ENDBRANCH   9  11
ENDBRANCH   7   9
ENDBRANCH   5   7
ENDBRANCH   3   5
BRANCH   3  20
HETATM   20  C   UNL     1     -10.258  11.440  68.759  1.00  0.00    -0.197 C  
HETATM   21  O   UNL     1     -10.631  10.283  68.576  1.00  0.00    -0.190 OA 
HETATM   22  N   UNL     1      -8.930  11.805  68.654  1.00  0.00    -0.345 N  
HETATM   23  H   UNL     1      -8.653  12.743  68.943  1.00  0.00     0.000 HD 
BRANCH  22  24
HETATM   24  C   UNL     1      -7.909  10.895  68.143  1.00  0.00    -0.114 C  
BRANCH  24  25
HETATM   25  C   UNL     1      -6.816  10.543  69.173  1.00  0.00    -0.074 C  
BRANCH  25  26
HETATM   26  C   UNL     1      -6.422   9.072  69.369  1.00  0.00    -0.044 C  
HETATM   27  H   UNL     1      -5.120   7.862  68.568  1.00  0.00     0.000 HD 
HETATM   28  O   UNL     1      -5.363   8.772  68.447  1.00  0.00    -0.036 OA 
BRANCH  26  29
HETATM   29  C   UNL     1      -7.560   8.018  69.218  1.00  0.00    -0.096 C  
BRANCH  29  30
HETATM   30  N   UNL     1      -7.250   6.972  68.243  1.00  0.00    -0.088 N  
HETATM   31  C   UNL     1      -8.077   6.731  67.179  1.00  0.00    -0.117 C  
HETATM   32  H   UNL     1      -6.404   6.414  68.358  1.00  0.00     0.000 HD 
HETATM   33  O   UNL     1      -8.813   7.561  66.683  1.00  0.00    -0.132 OA 
BRANCH  31  34
HETATM   34  O   UNL     1      -7.990   5.437  66.803  1.00  0.00    -0.100 OA 
BRANCH  34  35
HETATM   35  C   UNL     1      -9.243   4.752  66.600  1.00  0.00    -0.128 C  
BRANCH  35  36
HETATM   36  C   UNL     1      -9.424   4.356  65.172  1.00  0.00    -0.170 A  
HETATM   37  N   UNL     1     -10.488   3.756  63.171  1.00  0.00    -0.212 NA 
HETATM   38  C   UNL     1     -10.604   4.070  64.510  1.00  0.00    -0.180 A  
HETATM   39  C   UNL     1      -9.219   3.798  62.829  1.00  0.00    -0.105 A  
HETATM   40  S   UNL     1      -8.121   4.267  64.062  1.00  0.00    -0.096 SA 
ENDBRANCH  35  36
ENDBRANCH  34  35
ENDBRANCH  31  34
ENDBRANCH  29  30
BRANCH  29  41
HETATM   41  C   UNL     1      -7.999   7.405  70.589  1.00  0.00    -0.098 C  
BRANCH  41  42
HETATM   42  C   UNL     1      -9.466   7.504  70.954  1.00  0.00    -0.165 A  
HETATM   43  C   UNL     1     -11.732   6.607  70.886  1.00  0.00    -0.431 A  
HETATM   44  C   UNL     1     -10.416   6.615  70.436  1.00  0.00    -0.249 A  
HETATM   45  C   UNL     1      -9.906   8.474  71.860  1.00  0.00    -0.358 A  
HETATM   46  C   UNL     1     -11.237   8.488  72.298  1.00  0.00    -0.432 A  
HETATM   47  C   UNL     1     -12.145   7.542  71.824  1.00  0.00    -0.340 A  
ENDBRANCH  41  42
ENDBRANCH  29  41
ENDBRANCH  26  29
ENDBRANCH  25  26
ENDBRANCH  24  25
BRANCH  24  48
HETATM   48  C   UNL     1      -7.362  11.437  66.807  1.00  0.00    -0.135 C  
BRANCH  48  49
HETATM   49  C   UNL     1      -7.872  10.749  65.563  1.00  0.00    -0.041 A  
HETATM   50  C   UNL     1      -7.469   9.324  63.636  1.00  0.00    -0.106 A  
HETATM   51  C   UNL     1      -7.016   9.942  64.801  1.00  0.00    -0.132 A  
HETATM   52  C   UNL     1      -8.783   9.510  63.214  1.00  0.00    -0.238 A  
HETATM   53  C   UNL     1      -9.645  10.314  63.959  1.00  0.00    -0.365 A  
HETATM   54  C   UNL     1      -9.191  10.938  65.122  1.00  0.00    -0.240 A  
ENDBRANCH  48  49
ENDBRANCH  24  48
ENDBRANCH  22  24
ENDBRANCH   3  20
TORSDOF 18
ENDMDL
MODEL       43
REMARK 921   NORMALIZED FREE ENERGY PREDICTED BY IDOCK:   -4.80 KCAL/MOL
REMARK 922        TOTAL FREE ENERGY PREDICTED BY IDOCK:  -14.47 KCAL/MOL
REMARK 923 INTER-LIGAND FREE ENERGY PREDICTED BY IDOCK:  -12.24 KCAL/MOL
REMARK 924 INTRA-LIGAND FREE ENERGY PREDICTED BY IDOCK:   -2.23 KCAL/MOL
REMARK 927      BINDING AFFINITY PREDICTED BY RF-SCORE:    0.00 PKD
ROOT
HETATM    1  C   UNL     1      -6.967  10.466  65.211  1.00  0.00    -0.099 C  
HETATM    2  C   UNL     1      -8.343   9.859  65.460  1.00  0.00    -0.143 C  
HETATM    3  C   UNL     1      -9.168  10.552  66.572  1.00  0.00    -0.161 C  
HETATM    4  C   UNL     1      -9.096   9.750  64.128  1.00  0.00    -0.289 C  
ENDROOT
BRANCH   3   5
HETATM    5  N   UNL     1      -9.539  11.959  66.343  1.00  0.00    -0.220 N  
HETATM    6  H   UNL     1      -8.798  12.628  66.137  1.00  0.00     0.000 HD 
BRANCH   5   7
HETATM    7  C   UNL     1     -10.829  12.410  66.394  1.00  0.00    -0.258 C  
HETATM    8  O   UNL     1     -11.751  11.688  66.766  1.00  0.00    -0.541 OA 
BRANCH   7   9
HETATM    9  N   UNL     1     -11.057  13.691  65.933  1.00  0.00    -0.284 N  
HETATM   10  C   UNL     1     -10.824  14.200  64.590  1.00  0.00    -0.386 C  
BRANCH   9  11
HETATM   11  C   UNL     1     -11.644  14.650  66.877  1.00  0.00    -0.362 C  
BRANCH  11  12
HETATM   12  C   UNL     1     -10.593  15.528  67.502  1.00  0.00    -0.297 A  
HETATM   13  C   UNL     1      -9.535  15.100  68.283  1.00  0.00    -0.201 A  
HETATM   14  N   UNL     1     -10.592  16.904  67.250  1.00  0.00    -0.304 NA 
HETATM   15  S   UNL     1      -8.525  16.412  68.703  1.00  0.00    -0.239 SA 
HETATM   16  C   UNL     1     -10.243  19.817  68.361  1.00  0.00    -0.568 C  
HETATM   17  C   UNL     1      -9.543  17.476  67.809  1.00  0.00    -0.269 A  
HETATM   18  C   UNL     1      -9.187  18.940  67.691  1.00  0.00    -0.318 C  
HETATM   19  C   UNL     1      -9.013  19.337  66.224  1.00  0.00    -0.347 C  
ENDBRANCH  11  12
ENDBRANCH   9  11
ENDBRANCH   7   9
ENDBRANCH   5   7
ENDBRANCH   3   5
BRANCH   3  20
HETATM   20  C   UNL     1      -8.609  10.250  67.998  1.00  0.00    -0.118 C  
HETATM   21  O   UNL     1      -7.956  11.057  68.658  1.00  0.00    -0.127 OA 
HETATM   22  N   UNL     1      -8.859   8.969  68.450  1.00  0.00    -0.133 N  
HETATM   23  H   UNL     1      -9.289   8.298  67.814  1.00  0.00     0.000 HD 
BRANCH  22  24
HETATM   24  C   UNL     1      -8.528   8.542  69.807  1.00  0.00    -0.129 C  
BRANCH  24  25
HETATM   25  C   UNL     1      -9.138   9.436  70.907  1.00  0.00    -0.220 C  
BRANCH  25  26
HETATM   26  C   UNL     1     -10.075   8.805  71.946  1.00  0.00    -0.339 C  
HETATM   27  H   UNL     1      -9.862   7.596  73.460  1.00  0.00     0.000 HD 
HETATM   28  O   UNL     1      -9.282   7.986  72.817  1.00  0.00    -0.198 OA 
BRANCH  26  29
HETATM   29  C   UNL     1     -11.272   7.973  71.393  1.00  0.00    -0.252 C  
BRANCH  29  30
HETATM   30  N   UNL     1     -12.479   8.773  71.180  1.00  0.00    -0.441 N  
HETATM   31  C   UNL     1     -12.455   9.893  70.394  1.00  0.00    -0.039 C  
HETATM   32  H   UNL     1     -13.353   8.491  71.625  1.00  0.00     0.000 HD 
HETATM   33  O   UNL     1     -11.667  10.075  69.487  1.00  0.00    -0.131 OA 
BRANCH  31  34
HETATM   34  O   UNL     1     -13.391  10.774  70.807  1.00  0.00    -0.146 OA 
BRANCH  34  35
HETATM   35  C   UNL     1     -13.042  11.577  71.954  1.00  0.00    -0.387 C  
BRANCH  35  36
HETATM   36  C   UNL     1     -13.316  13.024  71.712  1.00  0.00    -0.378 A  
HETATM   37  N   UNL     1     -14.307  15.140  71.904  1.00  0.00    -0.550 NA 
HETATM   38  C   UNL     1     -14.295  13.814  72.287  1.00  0.00    -0.368 A  
HETATM   39  C   UNL     1     -13.343  15.344  71.034  1.00  0.00    -0.480 A  
HETATM   40  S   UNL     1     -12.347  13.992  70.681  1.00  0.00    -0.391 SA 
ENDBRANCH  35  36
ENDBRANCH  34  35
ENDBRANCH  31  34
ENDBRANCH  29  30
BRANCH  29  41
HETATM   41  C   UNL     1     -10.898   7.158  70.111  1.00  0.00    -0.279 C  
BRANCH  41  42
HETATM   42  C   UNL     1     -10.322   5.772  70.315  1.00  0.00    -0.319 A  
HETATM   43  C   UNL     1      -9.963   3.812  71.720  1.00  0.00    -0.227 A  
HETATM   44  C   UNL     1     -10.351   5.138  71.564  1.00  0.00    -0.278 A  
HETATM   45  C   UNL     1      -9.775   5.067  69.239  1.00  0.00    -0.249 A  
HETATM   46  C   UNL     1      -9.358   3.738  69.396  1.00  0.00    -0.245 A  
HETATM   47  C   UNL     1      -9.470   3.106  70.633  1.00  0.00    -0.233 A  
ENDBRANCH  41  42
ENDBRANCH  29  41
ENDBRANCH  26  29
ENDBRANCH  25  26
ENDBRANCH  24  25
BRANCH  24  48
HETATM   48  C   UNL     1      -7.002   8.352  69.927  1.00  0.00    -0.043 C  
BRANCH  48  49
HETATM   49  C   UNL     1      -6.542   7.444  71.043  1.00  0.00    -0.043 A  
HETATM   50  C   UNL     1      -5.373   7.132  73.150  1.00  0.00    -0.038 A  
HETATM   51  C   UNL     1      -5.826   7.966  72.128  1.00  0.00    -0.036 A  
HETATM   52  C   UNL     1      -5.624   5.764  73.097  1.00  0.00    -0.035 A  
HETATM   53  C   UNL     1      -6.330   5.229  72.020  1.00  0.00    -0.039 A  
HETATM   54  C   UNL     1      -6.780   6.061  70.994  1.00  0.00    -0.061 A  
ENDBRANCH  48  49
ENDBRANCH  24  48
ENDBRANCH  22  24
ENDBRANCH   3  20
TORSDOF 18
ENDMDL
MODEL       44
REMARK 921   NORMALIZED FREE ENERGY PREDICTED BY IDOCK:   -4.78 KCAL/MOL
REMARK 922        TOTAL FREE ENERGY PREDICTED BY IDOCK:  -14.43 KCAL/MOL
REMARK 923 INTER-LIGAND FREE ENERGY PREDICTED BY IDOCK:  -12.02 KCAL/MOL
REMARK 924 INTRA-LIGAND FREE ENERGY PREDICTED BY IDOCK:   -2.41 KCAL/MOL
REMARK 927      BINDING AFFINITY PREDICTED BY RF-SCORE:    0.00 PKD
ROOT
HETATM    1  C   UNL     1     -12.360  12.195  63.529  1.00  0.00    -0.682 C  
HETATM    2  C   UNL     1     -10.929  12.263  64.050  1.00  0.00    -0.438 C  
HETATM    3  C   UNL     1     -10.771  11.956  65.559  1.00  0.00    -0.283 C  
HETATM    4  C   UNL     1     -10.025  11.401  63.160  1.00  0.00    -0.402 C  
ENDROOT
BRANCH   3   5
HETATM    5  N   UNL     1     -11.148  10.603  66.003  1.00  0.00     0.125 N  
HETATM    6  H   UNL     1     -12.138  10.363  66.039  1.00  0.00     0.000 HD 
BRANCH   5   7
HETATM    7  C   UNL     1     -10.233   9.654  66.369  1.00  0.00    -0.217 C  
HETATM    8  O   UNL     1      -9.298   9.341  65.636  1.00  0.00    -0.217 OA 
BRANCH   7   9
HETATM    9  N   UNL     1     -10.456   9.009  67.569  1.00  0.00    -0.266 N  
HETATM   10  C   UNL     1     -10.421   9.589  68.903  1.00  0.00    -0.216 C  
BRANCH   9  11
HETATM   11  C   UNL     1     -10.815   7.586  67.511  1.00  0.00    -0.162 C  
BRANCH  11  12
HETATM   12  C   UNL     1      -9.992   6.766  68.469  1.00  0.00    -0.149 A  
HETATM   13  C   UNL     1     -10.480   6.002  69.514  1.00  0.00    -0.266 A  
HETATM   14  N   UNL     1      -8.607   6.672  68.296  1.00  0.00    -0.120 NA 
HETATM   15  S   UNL     1      -9.213   5.154  70.284  1.00  0.00    -0.154 SA 
HETATM   16  C   UNL     1      -5.754   6.646  69.599  1.00  0.00    -0.015 C  
HETATM   17  C   UNL     1      -8.087   5.838  69.174  1.00  0.00    -0.101 A  
HETATM   18  C   UNL     1      -6.629   5.446  69.241  1.00  0.00    -0.047 C  
HETATM   19  C   UNL     1      -6.175   4.827  67.918  1.00  0.00    -0.035 C  
ENDBRANCH  11  12
ENDBRANCH   9  11
ENDBRANCH   7   9
ENDBRANCH   5   7
ENDBRANCH   3   5
BRANCH   3  20
HETATM   20  C   UNL     1     -11.314  13.111  66.458  1.00  0.00    -0.315 C  
HETATM   21  O   UNL     1     -12.260  13.830  66.143  1.00  0.00    -0.422 OA 
HETATM   22  N   UNL     1     -10.606  13.305  67.628  1.00  0.00    -0.234 N  
HETATM   23  H   UNL     1      -9.752  12.770  67.782  1.00  0.00     0.000 HD 
BRANCH  22  24
HETATM   24  C   UNL     1     -11.040  14.250  68.654  1.00  0.00    -0.253 C  
BRANCH  24  25
HETATM   25  C   UNL     1      -9.943  15.242  69.091  1.00  0.00    -0.238 C  
BRANCH  25  26
HETATM   26  C   UNL     1      -9.091  15.933  68.016  1.00  0.00    -0.184 C  
HETATM   27  H   UNL     1      -9.326  16.392  66.136  1.00  0.00     0.000 HD 
HETATM   28  O   UNL     1      -9.853  15.965  66.801  1.00  0.00    -0.231 OA 
BRANCH  26  29
HETATM   29  C   UNL     1      -7.687  15.316  67.736  1.00  0.00    -0.149 C  
BRANCH  29  30
HETATM   30  N   UNL     1      -7.747  14.076  66.962  1.00  0.00    -0.338 N  
HETATM   31  C   UNL     1      -7.470  12.868  67.541  1.00  0.00    -0.155 C  
HETATM   32  H   UNL     1      -8.001  14.113  65.974  1.00  0.00     0.000 HD 
HETATM   33  O   UNL     1      -7.606  12.630  68.725  1.00  0.00    -0.102 OA 
BRANCH  31  34
HETATM   34  O   UNL     1      -6.980  12.010  66.622  1.00  0.00    -0.024 OA 
BRANCH  34  35
HETATM   35  C   UNL     1      -6.122  10.965  67.124  1.00  0.00    -0.068 C  
BRANCH  35  36
HETATM   36  C   UNL     1      -5.826   9.947  66.073  1.00  0.00    -0.065 A  
HETATM   37  N   UNL     1      -5.679   7.869  64.999  1.00  0.00    -0.037 NA 
HETATM   38  C   UNL     1      -6.014   8.578  66.135  1.00  0.00    -0.044 A  
HETATM   39  C   UNL     1      -5.233   8.704  64.088  1.00  0.00    -0.052 A  
HETATM   40  S   UNL     1      -5.246  10.365  64.515  1.00  0.00    -0.151 SA 
ENDBRANCH  35  36
ENDBRANCH  34  35
ENDBRANCH  31  34
ENDBRANCH  29  30
BRANCH  29  41
HETATM   41  C   UNL     1      -6.697  16.342  67.090  1.00  0.00    -0.237 C  
BRANCH  41  42
HETATM   42  C   UNL     1      -6.752  17.770  67.593  1.00  0.00    -0.192 A  
HETATM   43  C   UNL     1      -6.556  19.387  69.406  1.00  0.00    -0.364 A  
HETATM   44  C   UNL     1      -6.658  18.075  68.956  1.00  0.00    -0.251 A  
HETATM   45  C   UNL     1      -6.861  18.833  66.692  1.00  0.00    -0.217 A  
HETATM   46  C   UNL     1      -6.784  20.158  67.142  1.00  0.00    -0.264 A  
HETATM   47  C   UNL     1      -6.613  20.433  68.498  1.00  0.00    -0.301 A  
ENDBRANCH  41  42
ENDBRANCH  29  41
ENDBRANCH  26  29
ENDBRANCH  25  26
ENDBRANCH  24  25
BRANCH  24  48
HETATM   48  C   UNL     1     -11.689  13.478  69.821  1.00  0.00    -0.363 C  
BRANCH  48  49
HETATM   49  C   UNL     1     -12.262  14.328  70.930  1.00  0.00    -0.425 A  
HETATM   50  C   UNL     1     -14.172  15.065  72.238  1.00  0.00    -0.594 A  
HETATM   51  C   UNL     1     -13.628  14.265  71.234  1.00  0.00    -0.355 A  
HETATM   52  C   UNL     1     -13.357  15.945  72.946  1.00  0.00    -0.635 A  
HETATM   53  C   UNL     1     -11.997  16.023  72.651  1.00  0.00    -0.646 A  
HETATM   54  C   UNL     1     -11.452  15.225  71.643  1.00  0.00    -0.471 A  
ENDBRANCH  48  49
ENDBRANCH  24  48
ENDBRANCH  22  24
ENDBRANCH   3  20
TORSDOF 18
ENDMDL
MODEL       45
REMARK 921   NORMALIZED FREE ENERGY PREDICTED BY IDOCK:   -4.78 KCAL/MOL
REMARK 922        TOTAL FREE ENERGY PREDICTED BY IDOCK:  -14.42 KCAL/MOL
REMARK 923 INTER-LIGAND FREE ENERGY PREDICTED BY IDOCK:  -12.31 KCAL/MOL
REMARK 924 INTRA-LIGAND FREE ENERGY PREDICTED BY IDOCK:   -2.11 KCAL/MOL
REMARK 927      BINDING AFFINITY PREDICTED BY RF-SCORE:    0.00 PKD
ROOT
HETATM    1  C   UNL     1     -11.935  15.895  68.458  1.00  0.00    -0.051 C  
HETATM    2  C   UNL     1     -11.611  14.999  69.648  1.00  0.00    -0.333 C  
HETATM    3  C   UNL     1     -10.307  14.178  69.507  1.00  0.00     0.185 C  
HETATM    4  C   UNL     1     -11.667  15.830  70.936  1.00  0.00    -0.441 C  
ENDROOT
BRANCH   3   5
HETATM    5  N   UNL     1      -9.051  14.940  69.404  1.00  0.00    -0.415 N  
HETATM    6  H   UNL     1      -8.932  15.761  69.997  1.00  0.00     0.000 HD 
BRANCH   5   7
HETATM    7  C   UNL     1      -8.037  14.600  68.551  1.00  0.00    -0.146 C  
HETATM    8  O   UNL     1      -7.209  13.740  68.842  1.00  0.00    -0.109 OA 
BRANCH   7   9
HETATM    9  N   UNL     1      -7.944  15.324  67.379  1.00  0.00    -0.169 N  
HETATM   10  C   UNL     1      -8.934  15.417  66.317  1.00  0.00    -0.306 C  
BRANCH   9  11
HETATM   11  C   UNL     1      -6.735  16.136  67.185  1.00  0.00    -0.192 C  
BRANCH  11  12
HETATM   12  C   UNL     1      -7.050  17.608  67.184  1.00  0.00    -0.173 A  
HETATM   13  C   UNL     1      -6.153  18.632  66.936  1.00  0.00    -0.158 A  
HETATM   14  N   UNL     1      -8.366  18.041  67.377  1.00  0.00    -0.230 NA 
HETATM   15  S   UNL     1      -6.949  20.144  66.934  1.00  0.00    -0.243 SA 
HETATM   16  C   UNL     1     -10.332  20.079  68.727  1.00  0.00    -0.318 C  
HETATM   17  C   UNL     1      -8.446  19.350  67.247  1.00  0.00    -0.295 A  
HETATM   18  C   UNL     1      -9.723  20.155  67.328  1.00  0.00    -0.574 C  
HETATM   19  C   UNL     1     -10.729  19.677  66.279  1.00  0.00    -0.524 C  
ENDBRANCH  11  12
ENDBRANCH   9  11
ENDBRANCH   7   9
ENDBRANCH   5   7
ENDBRANCH   3   5
BRANCH   3  20
HETATM   20  C   UNL     1     -10.449  13.014  68.476  1.00  0.00    -0.249 C  
HETATM   21  O   UNL     1     -11.215  13.048  67.514  1.00  0.00    -0.261 OA 
HETATM   22  N   UNL     1      -9.678  11.903  68.758  1.00  0.00    -0.394 N  
HETATM   23  H   UNL     1      -9.160  11.873  69.636  1.00  0.00     0.000 HD 
BRANCH  22  24
HETATM   24  C   UNL     1      -9.580  10.770  67.842  1.00  0.00    -0.160 C  
BRANCH  24  25
HETATM   25  C   UNL     1      -9.451   9.406  68.551  1.00  0.00    -0.150 C  
BRANCH  25  26
HETATM   26  C   UNL     1      -9.563   8.120  67.719  1.00  0.00    -0.151 C  
HETATM   27  H   UNL     1     -10.695   7.502  66.257  1.00  0.00     0.000 HD 
HETATM   28  O   UNL     1     -10.626   8.298  66.772  1.00  0.00    -0.306 OA 
BRANCH  26  29
HETATM   29  C   UNL     1      -9.784   6.795  68.510  1.00  0.00    -0.133 C  
BRANCH  29  30
HETATM   30  N   UNL     1     -10.371   7.005  69.834  1.00  0.00    -0.205 N  
HETATM   31  C   UNL     1     -10.242   6.067  70.821  1.00  0.00    -0.204 C  
HETATM   32  H   UNL     1     -10.886   7.866  70.023  1.00  0.00     0.000 HD 
HETATM   33  O   UNL     1      -9.327   5.270  70.890  1.00  0.00    -0.145 OA 
BRANCH  31  34
HETATM   34  O   UNL     1     -11.294   6.127  71.664  1.00  0.00    -0.278 OA 
BRANCH  34  35
HETATM   35  C   UNL     1     -11.278   7.205  72.622  1.00  0.00    -0.293 C  
BRANCH  35  36
HETATM   36  C   UNL     1     -11.917   8.437  72.070  1.00  0.00    -0.357 A  
HETATM   37  N   UNL     1     -12.133  10.558  71.095  1.00  0.00    -0.370 NA 
HETATM   38  C   UNL     1     -11.297   9.569  71.574  1.00  0.00    -0.385 A  
HETATM   39  C   UNL     1     -13.381  10.171  71.240  1.00  0.00    -0.311 A  
HETATM   40  S   UNL     1     -13.614   8.601  71.892  1.00  0.00    -0.431 SA 
ENDBRANCH  35  36
ENDBRANCH  34  35
ENDBRANCH  31  34
ENDBRANCH  29  30
BRANCH  29  41
HETATM   41  C   UNL     1     -10.592   5.733  67.692  1.00  0.00    -0.313 C  
BRANCH  41  42
HETATM   42  C   UNL     1      -9.801   4.637  67.008  1.00  0.00    -0.232 A  
HETATM   43  C   UNL     1      -8.734   3.721  65.018  1.00  0.00    -0.115 A  
HETATM   44  C   UNL     1      -9.583   4.638  65.625  1.00  0.00    -0.189 A  
HETATM   45  C   UNL     1      -9.230   3.604  67.757  1.00  0.00    -0.228 A  
HETATM   46  C   UNL     1      -8.392   2.661  67.147  1.00  0.00    -0.096 A  
HETATM   47  C   UNL     1      -8.130   2.732  65.779  1.00  0.00    -0.087 A  
ENDBRANCH  41  42
ENDBRANCH  29  41
ENDBRANCH  26  29
ENDBRANCH  25  26
ENDBRANCH  24  25
BRANCH  24  48
HETATM   48  C   UNL     1      -8.473  11.045  66.804  1.00  0.00    -0.148 C  
BRANCH  48  49
HETATM   49  C   UNL     1      -8.862  10.831  65.360  1.00  0.00    -0.202 A  
HETATM   50  C   UNL     1      -8.394   9.865  63.180  1.00  0.00    -0.166 A  
HETATM   51  C   UNL     1      -8.059  10.047  64.521  1.00  0.00    -0.156 A  
HETATM   52  C   UNL     1      -9.535  10.470  62.659  1.00  0.00    -0.326 A  
HETATM   53  C   UNL     1     -10.341  11.257  63.480  1.00  0.00    -0.463 A  
HETATM   54  C   UNL     1     -10.003  11.445  64.821  1.00  0.00    -0.313 A  
ENDBRANCH  48  49
ENDBRANCH  24  48
ENDBRANCH  22  24
ENDBRANCH   3  20
TORSDOF 18
ENDMDL
MODEL       46
REMARK 921   NORMALIZED FREE ENERGY PREDICTED BY IDOCK:   -4.75 KCAL/MOL
REMARK 922        TOTAL FREE ENERGY PREDICTED BY IDOCK:  -14.36 KCAL/MOL
REMARK 923 INTER-LIGAND FREE ENERGY PREDICTED BY IDOCK:  -11.78 KCAL/MOL
REMARK 924 INTRA-LIGAND FREE ENERGY PREDICTED BY IDOCK:   -2.58 KCAL/MOL
REMARK 927      BINDING AFFINITY PREDICTED BY RF-SCORE:    0.00 PKD
ROOT
HETATM    1  C   UNL     1     -12.587  12.272  64.167  1.00  0.00    -0.493 C  
HETATM    2  C   UNL     1     -11.077  12.426  64.307  1.00  0.00    -0.399 C  
HETATM    3  C   UNL     1     -10.586  12.746  65.740  1.00  0.00    -0.273 C  
HETATM    4  C   UNL     1     -10.384  11.205  63.689  1.00  0.00    -0.449 C  
ENDROOT
BRANCH   3   5
HETATM    5  N   UNL     1     -10.842  11.727  66.771  1.00  0.00    -0.257 N  
HETATM    6  H   UNL     1     -11.772  11.681  67.187  1.00  0.00     0.000 HD 
BRANCH   5   7
HETATM    7  C   UNL     1      -9.893  10.839  67.198  1.00  0.00    -0.185 C  
HETATM    8  O   UNL     1      -8.801  10.745  66.643  1.00  0.00    -0.140 OA 
BRANCH   7   9
HETATM    9  N   UNL     1     -10.250   9.999  68.233  1.00  0.00    -0.165 N  
HETATM   10  C   UNL     1     -10.499   8.567  68.162  1.00  0.00    -0.182 C  
BRANCH   9  11
HETATM   11  C   UNL     1     -10.349  10.589  69.574  1.00  0.00    -0.221 C  
BRANCH  11  12
HETATM   12  C   UNL     1     -11.077   9.679  70.529  1.00  0.00    -0.308 A  
HETATM   13  C   UNL     1     -12.443   9.651  70.744  1.00  0.00    -0.169 A  
HETATM   14  N   UNL     1     -10.370   8.703  71.239  1.00  0.00    -0.219 NA 
HETATM   15  S   UNL     1     -12.856   8.400  71.832  1.00  0.00    -0.365 SA 
HETATM   16  C   UNL     1      -9.902   7.193  73.949  1.00  0.00    -0.346 C  
HETATM   17  C   UNL     1     -11.196   7.954  71.942  1.00  0.00    -0.271 A  
HETATM   18  C   UNL     1     -10.788   6.764  72.781  1.00  0.00    -0.294 C  
HETATM   19  C   UNL     1     -10.074   5.718  71.922  1.00  0.00    -0.228 C  
ENDBRANCH  11  12
ENDBRANCH   9  11
ENDBRANCH   7   9
ENDBRANCH   5   7
ENDBRANCH   3   5
BRANCH   3  20
HETATM   20  C   UNL     1     -10.928  14.208  66.170  1.00  0.00    -0.309 C  
HETATM   21  O   UNL     1     -11.248  15.092  65.377  1.00  0.00    -0.345 OA 
HETATM   22  N   UNL     1     -10.790  14.453  67.522  1.00  0.00    -0.278 N  
HETATM   23  H   UNL     1     -10.397  13.724  68.117  1.00  0.00     0.000 HD 
BRANCH  22  24
HETATM   24  C   UNL     1     -11.188  15.720  68.129  1.00  0.00    -0.344 C  
BRANCH  24  25
HETATM   25  C   UNL     1     -10.139  16.303  69.098  1.00  0.00    -0.264 C  
BRANCH  25  26
HETATM   26  C   UNL     1      -9.770  17.790  68.991  1.00  0.00    -0.186 C  
HETATM   27  H   UNL     1     -10.608  19.381  68.237  1.00  0.00     0.000 HD 
HETATM   28  O   UNL     1     -10.836  18.461  68.303  1.00  0.00    -0.194 OA 
BRANCH  26  29
HETATM   29  C   UNL     1      -8.412  18.124  68.302  1.00  0.00    -0.284 C  
BRANCH  29  30
HETATM   30  N   UNL     1      -7.492  16.987  68.261  1.00  0.00    -0.198 N  
HETATM   31  C   UNL     1      -6.354  16.972  69.020  1.00  0.00    -0.198 C  
HETATM   32  H   UNL     1      -7.704  16.192  67.657  1.00  0.00     0.000 HD 
HETATM   33  O   UNL     1      -6.219  17.583  70.062  1.00  0.00    -0.196 OA 
BRANCH  31  34
HETATM   34  O   UNL     1      -5.401  16.229  68.419  1.00  0.00    -0.099 OA 
BRANCH  34  35
HETATM   35  C   UNL     1      -5.813  14.927  67.953  1.00  0.00    -0.136 C  
BRANCH  35  36
HETATM   36  C   UNL     1      -5.654  13.890  69.016  1.00  0.00    -0.080 A  
HETATM   37  N   UNL     1      -5.187  12.929  71.102  1.00  0.00    -0.163 NA 
HETATM   38  C   UNL     1      -5.208  14.062  70.314  1.00  0.00    -0.099 A  
HETATM   39  C   UNL     1      -5.608  11.905  70.393  1.00  0.00    -0.155 A  
HETATM   40  S   UNL     1      -6.103  12.252  68.787  1.00  0.00    -0.073 SA 
ENDBRANCH  35  36
ENDBRANCH  34  35
ENDBRANCH  31  34
ENDBRANCH  29  30
BRANCH  29  41
HETATM   41  C   UNL     1      -8.596  18.759  66.883  1.00  0.00    -0.290 C  
BRANCH  41  42
HETATM   42  C   UNL     1      -7.340  19.143  66.129  1.00  0.00    -0.291 A  
HETATM   43  C   UNL     1      -5.581  18.606  64.529  1.00  0.00    -0.213 A  
HETATM   44  C   UNL     1      -6.642  18.220  65.341  1.00  0.00    -0.173 A  
HETATM   45  C   UNL     1      -6.864  20.457  66.170  1.00  0.00    -0.277 A  
HETATM   46  C   UNL     1      -5.779  20.847  65.374  1.00  0.00    -0.268 A  
HETATM   47  C   UNL     1      -5.150  19.924  64.539  1.00  0.00    -0.191 A  
ENDBRANCH  41  42
ENDBRANCH  29  41
ENDBRANCH  26  29
ENDBRANCH  25  26
ENDBRANCH  24  25
BRANCH  24  48
HETATM   48  C   UNL     1     -12.596  15.575  68.742  1.00  0.00     0.555 C  
BRANCH  48  49
HETATM   49  C   UNL     1     -12.640  15.099  70.174  1.00  0.00    -0.319 A  
HETATM   50  C   UNL     1     -12.877  13.292  71.781  1.00  0.00    -0.367 A  
HETATM   51  C   UNL     1     -12.808  13.738  70.462  1.00  0.00    -0.209 A  
HETATM   52  C   UNL     1     -12.786  14.202  72.831  1.00  0.00    -0.433 A  
HETATM   53  C   UNL     1     -12.625  15.560  72.561  1.00  0.00    -0.497 A  
HETATM   54  C   UNL     1     -12.560  16.009  71.240  1.00  0.00    -0.239 A  
ENDBRANCH  48  49
ENDBRANCH  24  48
ENDBRANCH  22  24
ENDBRANCH   3  20
TORSDOF 18
ENDMDL
MODEL       47
REMARK 921   NORMALIZED FREE ENERGY PREDICTED BY IDOCK:   -4.74 KCAL/MOL
REMARK 922        TOTAL FREE ENERGY PREDICTED BY IDOCK:  -14.33 KCAL/MOL
REMARK 923 INTER-LIGAND FREE ENERGY PREDICTED BY IDOCK:  -12.32 KCAL/MOL
REMARK 924 INTRA-LIGAND FREE ENERGY PREDICTED BY IDOCK:   -2.02 KCAL/MOL
REMARK 927      BINDING AFFINITY PREDICTED BY RF-SCORE:    0.00 PKD
ROOT
HETATM    1  C   UNL     1     -10.009   5.146  71.822  1.00  0.00    -0.244 C  
HETATM    2  C   UNL     1      -9.490   6.143  72.851  1.00  0.00    -0.150 C  
HETATM    3  C   UNL     1      -9.989   7.596  72.658  1.00  0.00    -0.223 C  
HETATM    4  C   UNL     1      -9.751   5.597  74.261  1.00  0.00    -0.189 C  
ENDROOT
BRANCH   3   5
HETATM    5  N   UNL     1     -11.439   7.821  72.782  1.00  0.00    -0.518 N  
HETATM    6  H   UNL     1     -11.835   7.923  73.716  1.00  0.00     0.000 HD 
BRANCH   5   7
HETATM    7  C   UNL     1     -12.279   7.901  71.706  1.00  0.00    -0.310 C  
HETATM    8  O   UNL     1     -12.395   6.973  70.908  1.00  0.00    -0.369 OA 
BRANCH   7   9
HETATM    9  N   UNL     1     -12.932   9.102  71.516  1.00  0.00    -0.337 N  
HETATM   10  C   UNL     1     -14.213   9.508  72.072  1.00  0.00    -0.009 C  
BRANCH   9  11
HETATM   11  C   UNL     1     -12.250  10.116  70.700  1.00  0.00    -0.302 C  
BRANCH  11  12
HETATM   12  C   UNL     1     -12.650  11.511  71.102  1.00  0.00    -0.359 A  
HETATM   13  C   UNL     1     -13.464  11.849  72.168  1.00  0.00    -0.195 A  
HETATM   14  N   UNL     1     -12.127  12.612  70.416  1.00  0.00    -0.352 NA 
HETATM   15  S   UNL     1     -13.576  13.546  72.326  1.00  0.00    -0.612 SA 
HETATM   16  C   UNL     1     -12.617  15.434  69.136  1.00  0.00     0.201 C  
HETATM   17  C   UNL     1     -12.523  13.737  70.977  1.00  0.00    -0.380 A  
HETATM   18  C   UNL     1     -12.101  15.121  70.539  1.00  0.00    -0.390 C  
HETATM   19  C   UNL     1     -10.578  15.264  70.595  1.00  0.00    -0.135 C  
ENDBRANCH  11  12
ENDBRANCH   9  11
ENDBRANCH   7   9
ENDBRANCH   5   7
ENDBRANCH   3   5
BRANCH   3  20
HETATM   20  C   UNL     1      -9.325   8.290  71.427  1.00  0.00    -0.172 C  
HETATM   21  O   UNL     1      -8.570   9.257  71.517  1.00  0.00    -0.320 OA 
HETATM   22  N   UNL     1      -9.696   7.764  70.205  1.00  0.00    -0.179 N  
HETATM   23  H   UNL     1     -10.424   7.050  70.177  1.00  0.00     0.000 HD 
BRANCH  22  24
HETATM   24  C   UNL     1      -9.083   8.195  68.952  1.00  0.00    -0.147 C  
BRANCH  24  25
HETATM   25  C   UNL     1     -10.101   8.607  67.869  1.00  0.00    -0.254 C  
BRANCH  25  26
HETATM   26  C   UNL     1     -10.167  10.076  67.428  1.00  0.00    -0.219 C  
HETATM   27  H   UNL     1     -11.545  11.454  67.377  1.00  0.00     0.000 HD 
HETATM   28  O   UNL     1     -11.504  10.545  67.650  1.00  0.00    -0.444 OA 
BRANCH  26  29
HETATM   29  C   UNL     1      -9.743  10.383  65.959  1.00  0.00    -0.211 C  
BRANCH  29  30
HETATM   30  N   UNL     1     -10.700  11.234  65.250  1.00  0.00    -0.266 N  
HETATM   31  C   UNL     1     -10.537  11.527  63.924  1.00  0.00    -0.391 C  
HETATM   32  H   UNL     1     -11.502  11.614  65.754  1.00  0.00     0.000 HD 
HETATM   33  O   UNL     1      -9.942  10.818  63.135  1.00  0.00    -0.330 OA 
BRANCH  31  34
HETATM   34  O   UNL     1     -11.084  12.727  63.639  1.00  0.00    -0.432 OA 
BRANCH  34  35
HETATM   35  C   UNL     1     -11.849  13.340  64.697  1.00  0.00    -0.378 C  
BRANCH  35  36
HETATM   36  C   UNL     1     -11.410  14.745  64.948  1.00  0.00    -0.410 A  
HETATM   37  N   UNL     1     -11.199  17.065  64.691  1.00  0.00    -0.972 NA 
HETATM   38  C   UNL     1     -11.719  15.878  64.217  1.00  0.00    -0.132 A  
HETATM   39  C   UNL     1     -10.492  16.823  65.772  1.00  0.00    -0.292 A  
HETATM   40  S   UNL     1     -10.464  15.192  66.306  1.00  0.00    -0.320 SA 
ENDBRANCH  35  36
ENDBRANCH  34  35
ENDBRANCH  31  34
ENDBRANCH  29  30
BRANCH  29  41
HETATM   41  C   UNL     1      -8.290  10.955  65.858  1.00  0.00    -0.149 C  
BRANCH  41  42
HETATM   42  C   UNL     1      -7.164   9.958  65.677  1.00  0.00    -0.113 A  
HETATM   43  C   UNL     1      -5.308   8.669  66.591  1.00  0.00    -0.035 A  
HETATM   44  C   UNL     1      -6.246   9.690  66.700  1.00  0.00    -0.065 A  
HETATM   45  C   UNL     1      -7.036   9.244  64.482  1.00  0.00    -0.093 A  
HETATM   46  C   UNL     1      -6.077   8.231  64.357  1.00  0.00    -0.065 A  
HETATM   47  C   UNL     1      -5.225   7.932  65.420  1.00  0.00    -0.029 A  
ENDBRANCH  41  42
ENDBRANCH  29  41
ENDBRANCH  26  29
ENDBRANCH  25  26
ENDBRANCH  24  25
BRANCH  24  48
HETATM   48  C   UNL     1      -8.067   7.131  68.487  1.00  0.00    -0.125 C  
BRANCH  48  49
HETATM   49  C   UNL     1      -8.605   6.081  67.545  1.00  0.00    -0.106 A  
HETATM   50  C   UNL     1      -9.487   3.847  67.172  1.00  0.00    -0.231 A  
HETATM   51  C   UNL     1      -9.014   4.834  68.036  1.00  0.00    -0.126 A  
HETATM   52  C   UNL     1      -9.551   4.093  65.803  1.00  0.00    -0.190 A  
HETATM   53  C   UNL     1      -9.143   5.326  65.298  1.00  0.00    -0.097 A  
HETATM   54  C   UNL     1      -8.664   6.313  66.162  1.00  0.00    -0.148 A  
ENDBRANCH  48  49
ENDBRANCH  24  48
ENDBRANCH  22  24
ENDBRANCH   3  20
TORSDOF 18
ENDMDL
MODEL       48
REMARK 921   NORMALIZED FREE ENERGY PREDICTED BY IDOCK:   -4.73 KCAL/MOL
REMARK 922        TOTAL FREE ENERGY PREDICTED BY IDOCK:  -14.33 KCAL/MOL
REMARK 923 INTER-LIGAND FREE ENERGY PREDICTED BY IDOCK:  -12.57 KCAL/MOL
REMARK 924 INTRA-LIGAND FREE ENERGY PREDICTED BY IDOCK:   -1.76 KCAL/MOL
REMARK 927      BINDING AFFINITY PREDICTED BY RF-SCORE:    0.00 PKD
ROOT
HETATM    1  C   UNL     1     -10.181  12.165  63.351  1.00  0.00    -0.422 C  
HETATM    2  C   UNL     1     -11.348  11.851  64.279  1.00  0.00    -0.425 C  
HETATM    3  C   UNL     1     -11.288  12.552  65.659  1.00  0.00    -0.335 C  
HETATM    4  C   UNL     1     -12.666  12.095  63.534  1.00  0.00    -0.553 C  
ENDROOT
BRANCH   3   5
HETATM    5  N   UNL     1     -11.342  14.024  65.657  1.00  0.00    -0.309 N  
HETATM    6  H   UNL     1     -11.525  14.501  64.775  1.00  0.00     0.000 HD 
BRANCH   5   7
HETATM    7  C   UNL     1     -11.158  14.780  66.782  1.00  0.00    -0.338 C  
HETATM    8  O   UNL     1     -11.765  14.546  67.824  1.00  0.00    -0.349 OA 
BRANCH   7   9
HETATM    9  N   UNL     1     -10.315  15.867  66.668  1.00  0.00    -0.294 N  
HETATM   10  C   UNL     1     -10.324  16.886  65.629  1.00  0.00    -0.237 C  
BRANCH   9  11
HETATM   11  C   UNL     1      -9.320  16.062  67.731  1.00  0.00    -0.211 C  
BRANCH  11  12
HETATM   12  C   UNL     1      -9.144  17.519  68.066  1.00  0.00    -0.269 A  
HETATM   13  C   UNL     1     -10.145  18.389  68.462  1.00  0.00    -0.384 A  
HETATM   14  N   UNL     1      -7.866  18.087  68.063  1.00  0.00    -0.249 NA 
HETATM   15  S   UNL     1      -9.494  19.923  68.841  1.00  0.00    -0.051 SA 
HETATM   16  C   UNL     1      -6.032  20.520  67.318  1.00  0.00    -0.240 C  
HETATM   17  C   UNL     1      -7.916  19.339  68.473  1.00  0.00    -0.361 A  
HETATM   18  C   UNL     1      -6.716  20.241  68.655  1.00  0.00    -0.294 C  
HETATM   19  C   UNL     1      -5.725  19.628  69.647  1.00  0.00    -0.289 C  
ENDBRANCH  11  12
ENDBRANCH   9  11
ENDBRANCH   7   9
ENDBRANCH   5   7
ENDBRANCH   3   5
BRANCH   3  20
HETATM   20  C   UNL     1     -10.190  11.941  66.585  1.00  0.00    -0.208 C  
HETATM   21  O   UNL     1      -9.016  12.308  66.582  1.00  0.00    -0.204 OA 
HETATM   22  N   UNL     1     -10.629  10.903  67.384  1.00  0.00    -0.227 N  
HETATM   23  H   UNL     1     -11.577  10.551  67.256  1.00  0.00     0.000 HD 
BRANCH  22  24
HETATM   24  C   UNL     1      -9.783  10.294  68.406  1.00  0.00    -0.156 C  
BRANCH  24  25
HETATM   25  C   UNL     1      -8.627   9.448  67.835  1.00  0.00    -0.120 C  
BRANCH  25  26
HETATM   26  C   UNL     1      -8.946   8.332  66.829  1.00  0.00    -0.147 C  
HETATM   27  H   UNL     1     -10.480   7.848  65.728  1.00  0.00     0.000 HD 
HETATM   28  O   UNL     1     -10.283   8.538  66.350  1.00  0.00    -0.273 OA 
BRANCH  26  29
HETATM   29  C   UNL     1      -8.794   6.867  67.340  1.00  0.00    -0.118 C  
BRANCH  29  30
HETATM   30  N   UNL     1      -8.558   6.783  68.782  1.00  0.00    -0.123 N  
HETATM   31  C   UNL     1      -7.376   6.304  69.278  1.00  0.00    -0.092 C  
HETATM   32  H   UNL     1      -9.288   7.085  69.428  1.00  0.00     0.000 HD 
HETATM   33  O   UNL     1      -6.317   6.349  68.682  1.00  0.00    -0.034 OA 
BRANCH  31  34
HETATM   34  O   UNL     1      -7.571   5.738  70.488  1.00  0.00    -0.085 OA 
BRANCH  34  35
HETATM   35  C   UNL     1      -8.095   6.605  71.515  1.00  0.00    -0.111 C  
BRANCH  35  36
HETATM   36  C   UNL     1      -9.307   6.019  72.160  1.00  0.00    -0.148 A  
HETATM   37  N   UNL     1     -10.634   4.831  73.683  1.00  0.00    -0.233 NA 
HETATM   38  C   UNL     1      -9.370   5.212  73.281  1.00  0.00    -0.134 A  
HETATM   39  C   UNL     1     -11.520   5.344  72.859  1.00  0.00    -0.275 A  
HETATM   40  S   UNL     1     -10.899   6.346  71.612  1.00  0.00    -0.257 SA 
ENDBRANCH  35  36
ENDBRANCH  34  35
ENDBRANCH  31  34
ENDBRANCH  29  30
BRANCH  29  41
HETATM   41  C   UNL     1      -9.984   5.950  66.904  1.00  0.00    -0.205 C  
BRANCH  41  42
HETATM   42  C   UNL     1      -9.686   4.478  66.701  1.00  0.00    -0.222 A  
HETATM   43  C   UNL     1      -9.077   2.620  65.246  1.00  0.00    -0.138 A  
HETATM   44  C   UNL     1      -9.499   3.933  65.425  1.00  0.00    -0.170 A  
HETATM   45  C   UNL     1      -9.551   3.626  67.801  1.00  0.00    -0.189 A  
HETATM   46  C   UNL     1      -9.150   2.295  67.626  1.00  0.00    -0.208 A  
HETATM   47  C   UNL     1      -8.896   1.799  66.348  1.00  0.00    -0.121 A  
ENDBRANCH  41  42
ENDBRANCH  29  41
ENDBRANCH  26  29
ENDBRANCH  25  26
ENDBRANCH  24  25
BRANCH  24  48
HETATM   48  C   UNL     1     -10.667   9.544  69.423  1.00  0.00    -0.244 C  
BRANCH  48  49
HETATM   49  C   UNL     1     -11.578  10.409  70.262  1.00  0.00    -0.410 A  
HETATM   50  C   UNL     1     -12.436  12.605  70.846  1.00  0.00    -0.368 A  
HETATM   51  C   UNL     1     -11.619  11.794  70.059  1.00  0.00    -0.318 A  
HETATM   52  C   UNL     1     -13.217  12.042  71.852  1.00  0.00    -0.469 A  
HETATM   53  C   UNL     1     -13.182  10.665  72.070  1.00  0.00    -0.473 A  
HETATM   54  C   UNL     1     -12.361   9.852  71.286  1.00  0.00    -0.478 A  
ENDBRANCH  48  49
ENDBRANCH  24  48
ENDBRANCH  22  24
ENDBRANCH   3  20
TORSDOF 18
ENDMDL
MODEL       49
REMARK 921   NORMALIZED FREE ENERGY PREDICTED BY IDOCK:   -4.72 KCAL/MOL
REMARK 922        TOTAL FREE ENERGY PREDICTED BY IDOCK:  -14.31 KCAL/MOL
REMARK 923 INTER-LIGAND FREE ENERGY PREDICTED BY IDOCK:   -9.67 KCAL/MOL
REMARK 924 INTRA-LIGAND FREE ENERGY PREDICTED BY IDOCK:   -4.64 KCAL/MOL
REMARK 927      BINDING AFFINITY PREDICTED BY RF-SCORE:    0.00 PKD
ROOT
HETATM    1  C   UNL     1     -10.124   4.948  71.141  1.00  0.00    -0.277 C  
HETATM    2  C   UNL     1     -10.257   5.511  72.551  1.00  0.00    -0.229 C  
HETATM    3  C   UNL     1     -10.485   7.041  72.621  1.00  0.00    -0.226 C  
HETATM    4  C   UNL     1     -11.313   4.707  73.319  1.00  0.00    -0.393 C  
ENDROOT
BRANCH   3   5
HETATM    5  N   UNL     1     -11.725   7.555  72.015  1.00  0.00    -0.284 N  
HETATM    6  H   UNL     1     -12.596   7.456  72.535  1.00  0.00     0.000 HD 
BRANCH   5   7
HETATM    7  C   UNL     1     -11.763   8.160  70.789  1.00  0.00    -0.201 C  
HETATM    8  O   UNL     1     -11.510   7.544  69.757  1.00  0.00    -0.061 OA 
BRANCH   7   9
HETATM    9  N   UNL     1     -12.025   9.515  70.774  1.00  0.00    -0.273 N  
HETATM   10  C   UNL     1     -13.283  10.175  71.090  1.00  0.00    -0.355 C  
BRANCH   9  11
HETATM   11  C   UNL     1     -10.908  10.412  70.449  1.00  0.00    -0.189 C  
BRANCH  11  12
HETATM   12  C   UNL     1     -11.379  11.643  69.720  1.00  0.00    -0.200 A  
HETATM   13  C   UNL     1     -11.967  12.755  70.296  1.00  0.00    -0.280 A  
HETATM   14  N   UNL     1     -11.167  11.762  68.342  1.00  0.00    -0.229 NA 
HETATM   15  S   UNL     1     -12.253  13.962  69.121  1.00  0.00    -0.153 SA 
HETATM   16  C   UNL     1     -12.284  12.613  65.537  1.00  0.00    -0.501 C  
HETATM   17  C   UNL     1     -11.564  12.944  67.914  1.00  0.00    -0.345 A  
HETATM   18  C   UNL     1     -11.429  13.442  66.493  1.00  0.00    -0.372 C  
HETATM   19  C   UNL     1      -9.964  13.428  66.053  1.00  0.00    -0.300 C  
ENDBRANCH  11  12
ENDBRANCH   9  11
ENDBRANCH   7   9
ENDBRANCH   5   7
ENDBRANCH   3   5
BRANCH   3  20
HETATM   20  C   UNL     1      -9.199   7.848  72.257  1.00  0.00    -0.165 C  
HETATM   21  O   UNL     1      -8.563   8.517  73.070  1.00  0.00    -0.355 OA 
HETATM   22  N   UNL     1      -8.852   7.798  70.921  1.00  0.00    -0.141 N  
HETATM   23  H   UNL     1      -9.483   7.338  70.266  1.00  0.00     0.000 HD 
BRANCH  22  24
HETATM   24  C   UNL     1      -7.612   8.381  70.415  1.00  0.00    -0.072 C  
BRANCH  24  25
HETATM   25  C   UNL     1      -7.826   9.605  69.502  1.00  0.00    -0.117 C  
BRANCH  25  26
HETATM   26  C   UNL     1      -6.646  10.548  69.229  1.00  0.00    -0.060 C  
HETATM   27  H   UNL     1      -5.591  11.801  70.287  1.00  0.00     0.000 HD 
HETATM   28  O   UNL     1      -6.322  11.218  70.456  1.00  0.00    -0.306 OA 
BRANCH  26  29
HETATM   29  C   UNL     1      -6.839  11.599  68.095  1.00  0.00    -0.068 C  
BRANCH  29  30
HETATM   30  N   UNL     1      -6.382  12.938  68.468  1.00  0.00    -0.073 N  
HETATM   31  C   UNL     1      -7.271  13.961  68.660  1.00  0.00    -0.108 C  
HETATM   32  H   UNL     1      -5.383  13.112  68.586  1.00  0.00     0.000 HD 
HETATM   33  O   UNL     1      -8.429  13.805  68.995  1.00  0.00     0.061 OA 
BRANCH  31  34
HETATM   34  O   UNL     1      -6.690  15.145  68.376  1.00  0.00    -0.101 OA 
BRANCH  34  35
HETATM   35  C   UNL     1      -7.204  15.842  67.222  1.00  0.00    -0.219 C  
BRANCH  35  36
HETATM   36  C   UNL     1      -8.001  17.041  67.616  1.00  0.00    -0.176 A  
HETATM   37  N   UNL     1      -8.574  19.057  68.666  1.00  0.00    -0.357 NA 
HETATM   38  C   UNL     1      -7.654  18.040  68.507  1.00  0.00    -0.291 A  
HETATM   39  C   UNL     1      -9.615  18.816  67.900  1.00  0.00    -0.308 A  
HETATM   40  S   UNL     1      -9.523  17.412  66.919  1.00  0.00    -0.280 SA 
ENDBRANCH  35  36
ENDBRANCH  34  35
ENDBRANCH  31  34
ENDBRANCH  29  30
BRANCH  29  41
HETATM   41  C   UNL     1      -6.213  11.142  66.735  1.00  0.00    -0.122 C  
BRANCH  41  42
HETATM   42  C   UNL     1      -7.154  10.563  65.699  1.00  0.00    -0.119 A  
HETATM   43  C   UNL     1      -9.398   9.917  65.001  1.00  0.00    -0.323 A  
HETATM   44  C   UNL     1      -8.500  10.304  65.989  1.00  0.00    -0.144 A  
HETATM   45  C   UNL     1      -6.705  10.306  64.401  1.00  0.00    -0.066 A  
HETATM   46  C   UNL     1      -7.601   9.891  63.406  1.00  0.00    -0.139 A  
HETATM   47  C   UNL     1      -8.951   9.715  63.704  1.00  0.00    -0.248 A  
ENDBRANCH  41  42
ENDBRANCH  29  41
ENDBRANCH  26  29
ENDBRANCH  25  26
ENDBRANCH  24  25
BRANCH  24  48
HETATM   48  C   UNL     1      -6.744   7.272  69.785  1.00  0.00    -0.044 C  
BRANCH  48  49
HETATM   49  C   UNL     1      -6.925   7.065  68.300  1.00  0.00    -0.080 A  
HETATM   50  C   UNL     1      -6.007   7.087  66.050  1.00  0.00    -0.036 A  
HETATM   51  C   UNL     1      -5.845   7.248  67.425  1.00  0.00    -0.030 A  
HETATM   52  C   UNL     1      -7.253   6.747  65.530  1.00  0.00    -0.077 A  
HETATM   53  C   UNL     1      -8.338   6.567  66.387  1.00  0.00    -0.120 A  
HETATM   54  C   UNL     1      -8.178   6.733  67.764  1.00  0.00    -0.120 A  
ENDBRANCH  48  49
ENDBRANCH  24  48
ENDBRANCH  22  24
ENDBRANCH   3  20
TORSDOF 18
ENDMDL
MODEL       50
REMARK 921   NORMALIZED FREE ENERGY PREDICTED BY IDOCK:   -4.65 KCAL/MOL
REMARK 922        TOTAL FREE ENERGY PREDICTED BY IDOCK:  -14.15 KCAL/MOL
REMARK 923 INTER-LIGAND FREE ENERGY PREDICTED BY IDOCK:   -9.71 KCAL/MOL
REMARK 924 INTRA-LIGAND FREE ENERGY PREDICTED BY IDOCK:   -4.43 KCAL/MOL
REMARK 927      BINDING AFFINITY PREDICTED BY RF-SCORE:    0.00 PKD
ROOT
HETATM    1  C   UNL     1     -10.382   9.854  70.580  1.00  0.00    -0.298 C  
HETATM    2  C   UNL     1     -10.037   9.945  69.098  1.00  0.00    -0.210 C  
HETATM    3  C   UNL     1      -8.522  10.023  68.787  1.00  0.00    -0.126 C  
HETATM    4  C   UNL     1     -10.753   8.819  68.342  1.00  0.00    -0.112 C  
ENDROOT
BRANCH   3   5
HETATM    5  N   UNL     1      -7.706   8.861  69.175  1.00  0.00    -0.090 N  
HETATM    6  H   UNL     1      -8.008   8.300  69.971  1.00  0.00     0.000 HD 
BRANCH   5   7
HETATM    7  C   UNL     1      -6.562   8.497  68.518  1.00  0.00    -0.059 C  
HETATM    8  O   UNL     1      -6.296   8.927  67.399  1.00  0.00    -0.055 OA 
BRANCH   7   9
HETATM    9  N   UNL     1      -5.759   7.563  69.142  1.00  0.00    -0.025 N  
HETATM   10  C   UNL     1      -5.152   7.661  70.460  1.00  0.00    -0.023 C  
BRANCH   9  11
HETATM   11  C   UNL     1      -5.518   6.301  68.430  1.00  0.00    -0.008 C  
BRANCH  11  12
HETATM   12  C   UNL     1      -6.700   5.373  68.528  1.00  0.00    -0.054 A  
HETATM   13  C   UNL     1      -7.062   4.633  69.639  1.00  0.00    -0.050 A  
HETATM   14  N   UNL     1      -7.590   5.260  67.455  1.00  0.00    -0.087 NA 
HETATM   15  S   UNL     1      -8.524   3.794  69.354  1.00  0.00    -0.067 SA 
HETATM   16  C   UNL     1      -9.349   3.407  65.635  1.00  0.00    -0.147 C  
HETATM   17  C   UNL     1      -8.601   4.476  67.774  1.00  0.00    -0.103 A  
HETATM   18  C   UNL     1      -9.783   4.178  66.880  1.00  0.00    -0.232 C  
HETATM   19  C   UNL     1     -10.503   5.469  66.488  1.00  0.00    -0.331 C  
ENDBRANCH  11  12
ENDBRANCH   9  11
ENDBRANCH   7   9
ENDBRANCH   5   7
ENDBRANCH   3   5
BRANCH   3  20
HETATM   20  C   UNL     1      -7.910  11.407  69.170  1.00  0.00     0.027 C  
HETATM   21  O   UNL     1      -7.009  11.546  69.995  1.00  0.00     0.008 OA 
HETATM   22  N   UNL     1      -8.501  12.486  68.544  1.00  0.00    -0.327 N  
HETATM   23  H   UNL     1      -9.329  12.329  67.969  1.00  0.00     0.000 HD 
BRANCH  22  24
HETATM   24  C   UNL     1      -7.982  13.845  68.676  1.00  0.00    -0.109 C  
BRANCH  24  25
HETATM   25  C   UNL     1      -8.833  14.751  69.589  1.00  0.00     0.209 C  
BRANCH  25  26
HETATM   26  C   UNL     1     -10.319  14.953  69.263  1.00  0.00    -0.234 C  
HETATM   27  H   UNL     1     -11.871  13.790  69.061  1.00  0.00     0.000 HD 
HETATM   28  O   UNL     1     -10.951  13.665  69.263  1.00  0.00    -0.228 OA 
BRANCH  26  29
HETATM   29  C   UNL     1     -10.647  15.696  67.932  1.00  0.00    -0.278 C  
BRANCH  29  30
HETATM   30  N   UNL     1     -11.361  14.859  66.967  1.00  0.00    -0.349 N  
HETATM   31  C   UNL     1     -11.218  15.055  65.620  1.00  0.00    -0.327 C  
HETATM   32  H   UNL     1     -11.976  14.117  67.304  1.00  0.00     0.000 HD 
HETATM   33  O   UNL     1     -10.235  15.547  65.102  1.00  0.00    -0.359 OA 
BRANCH  31  34
HETATM   34  O   UNL     1     -12.338  14.673  64.971  1.00  0.00    -0.370 OA 
BRANCH  34  35
HETATM   35  C   UNL     1     -12.700  13.282  65.098  1.00  0.00    -0.402 C  
BRANCH  35  36
HETATM   36  C   UNL     1     -11.607  12.386  64.619  1.00  0.00    -0.343 A  
HETATM   37  N   UNL     1     -10.083  11.353  63.168  1.00  0.00    -0.361 NA 
HETATM   38  C   UNL     1     -11.130  12.237  63.329  1.00  0.00    -0.319 A  
HETATM   39  C   UNL     1      -9.779  10.831  64.335  1.00  0.00    -0.301 A  
HETATM   40  S   UNL     1     -10.678  11.408  65.678  1.00  0.00    -0.210 SA 
ENDBRANCH  35  36
ENDBRANCH  34  35
ENDBRANCH  31  34
ENDBRANCH  29  30
BRANCH  29  41
HETATM   41  C   UNL     1     -11.390  17.053  68.167  1.00  0.00     0.119 C  
BRANCH  41  42
HETATM   42  C   UNL     1     -10.742  18.303  67.608  1.00  0.00    -0.373 A  
HETATM   43  C   UNL     1      -9.254  20.216  67.870  1.00  0.00    -0.380 A  
HETATM   44  C   UNL     1      -9.972  19.155  68.410  1.00  0.00    -0.493 A  
HETATM   45  C   UNL     1     -10.866  18.619  66.252  1.00  0.00    -0.107 A  
HETATM   46  C   UNL     1     -10.164  19.702  65.706  1.00  0.00    -0.446 A  
HETATM   47  C   UNL     1      -9.343  20.489  66.513  1.00  0.00    -0.278 A  
ENDBRANCH  41  42
ENDBRANCH  29  41
ENDBRANCH  26  29
ENDBRANCH  25  26
ENDBRANCH  24  25
BRANCH  24  48
HETATM   48  C   UNL     1      -7.723  14.433  67.273  1.00  0.00    -0.164 C  
BRANCH  48  49
HETATM   49  C   UNL     1      -7.125  15.819  67.246  1.00  0.00    -0.245 A  
HETATM   50  C   UNL     1      -6.912  17.994  66.183  1.00  0.00    -0.324 A  
HETATM   51  C   UNL     1      -7.478  16.721  66.233  1.00  0.00    -0.238 A  
HETATM   52  C   UNL     1      -5.978  18.380  67.141  1.00  0.00    -0.166 A  
HETATM   53  C   UNL     1      -5.612  17.492  68.151  1.00  0.00    -0.145 A  
HETATM   54  C   UNL     1      -6.175  16.215  68.200  1.00  0.00    -0.124 A  
ENDBRANCH  48  49
ENDBRANCH  24  48
ENDBRANCH  22  24
ENDBRANCH   3  20
TORSDOF 18
ENDMDL
MODEL       51
REMARK 921   NORMALIZED FREE ENERGY PREDICTED BY IDOCK:   -4.59 KCAL/MOL
REMARK 922        TOTAL FREE ENERGY PREDICTED BY IDOCK:  -14.04 KCAL/MOL
REMARK 923 INTER-LIGAND FREE ENERGY PREDICTED BY IDOCK:   -9.88 KCAL/MOL
REMARK 924 INTRA-LIGAND FREE ENERGY PREDICTED BY IDOCK:   -4.16 KCAL/MOL
REMARK 927      BINDING AFFINITY PREDICTED BY RF-SCORE:    0.00 PKD
ROOT
HETATM    1  C   UNL     1     -13.427  10.464  70.253  1.00  0.00     0.440 C  
HETATM    2  C   UNL     1     -12.272  11.245  70.869  1.00  0.00    -0.460 C  
HETATM    3  C   UNL     1     -11.457  12.100  69.867  1.00  0.00    -0.133 C  
HETATM    4  C   UNL     1     -12.787  12.048  72.069  1.00  0.00    -0.251 C  
ENDROOT
BRANCH   3   5
HETATM    5  N   UNL     1     -12.177  13.189  69.187  1.00  0.00    -0.186 N  
HETATM    6  H   UNL     1     -13.042  12.966  68.697  1.00  0.00     0.000 HD 
BRANCH   5   7
HETATM    7  C   UNL     1     -11.740  14.485  69.182  1.00  0.00    -0.314 C  
HETATM    8  O   UNL     1     -12.382  15.385  69.718  1.00  0.00    -0.324 OA 
BRANCH   7   9
HETATM    9  N   UNL     1     -10.582  14.747  68.478  1.00  0.00    -0.242 N  
HETATM   10  C   UNL     1     -10.366  14.596  67.047  1.00  0.00    -0.263 C  
BRANCH   9  11
HETATM   11  C   UNL     1      -9.443  15.285  69.233  1.00  0.00    -0.242 C  
BRANCH  11  12
HETATM   12  C   UNL     1      -9.162  16.718  68.867  1.00  0.00    -0.234 A  
HETATM   13  C   UNL     1     -10.108  17.688  68.588  1.00  0.00    -0.377 A  
HETATM   14  N   UNL     1      -7.845  17.191  68.859  1.00  0.00    -0.246 NA 
HETATM   15  S   UNL     1      -9.361  19.201  68.320  1.00  0.00    -0.362 SA 
HETATM   16  C   UNL     1      -5.643  18.923  67.446  1.00  0.00    -0.161 C  
HETATM   17  C   UNL     1      -7.820  18.485  68.606  1.00  0.00    -0.314 A  
HETATM   18  C   UNL     1      -6.574  19.341  68.582  1.00  0.00    -0.302 C  
HETATM   19  C   UNL     1      -5.846  19.272  69.926  1.00  0.00    -0.282 C  
ENDBRANCH  11  12
ENDBRANCH   9  11
ENDBRANCH   7   9
ENDBRANCH   5   7
ENDBRANCH   3   5
BRANCH   3  20
HETATM   20  C   UNL     1     -10.565  11.224  68.932  1.00  0.00    -0.207 C  
HETATM   21  O   UNL     1     -11.016  10.395  68.143  1.00  0.00    -0.243 OA 
HETATM   22  N   UNL     1      -9.207  11.413  69.096  1.00  0.00    -0.404 N  
HETATM   23  H   UNL     1      -8.881  12.014  69.852  1.00  0.00     0.000 HD 
BRANCH  22  24
HETATM   24  C   UNL     1      -8.221  10.781  68.224  1.00  0.00    -0.124 C  
BRANCH  24  25
HETATM   25  C   UNL     1      -6.917  10.380  68.945  1.00  0.00    -0.067 C  
BRANCH  25  26
HETATM   26  C   UNL     1      -6.654   8.897  69.239  1.00  0.00    -0.049 C  
HETATM   27  H   UNL     1      -5.889   7.397  68.255  1.00  0.00     0.000 HD 
HETATM   28  O   UNL     1      -6.052   8.315  68.073  1.00  0.00    -0.045 OA 
BRANCH  26  29
HETATM   29  C   UNL     1      -7.883   8.042  69.674  1.00  0.00    -0.104 C  
BRANCH  29  30
HETATM   30  N   UNL     1      -7.557   6.630  69.882  1.00  0.00    -0.098 N  
HETATM   31  C   UNL     1      -8.196   5.647  69.176  1.00  0.00    -0.100 C  
HETATM   32  H   UNL     1      -6.842   6.376  70.564  1.00  0.00     0.000 HD 
HETATM   33  O   UNL     1      -8.690   5.805  68.077  1.00  0.00    -0.105 OA 
BRANCH  31  34
HETATM   34  O   UNL     1      -8.237   4.506  69.897  1.00  0.00    -0.066 OA 
BRANCH  34  35
HETATM   35  C   UNL     1      -9.380   4.346  70.762  1.00  0.00    -0.154 C  
BRANCH  35  36
HETATM   36  C   UNL     1      -8.967   4.140  72.182  1.00  0.00    -0.115 A  
HETATM   37  N   UNL     1      -7.671   4.226  74.133  1.00  0.00    -0.083 NA 
HETATM   38  C   UNL     1      -7.782   4.516  72.788  1.00  0.00    -0.087 A  
HETATM   39  C   UNL     1      -8.768   3.624  74.534  1.00  0.00    -0.090 A  
HETATM   40  S   UNL     1      -9.998   3.430  73.354  1.00  0.00    -0.123 SA 
ENDBRANCH  35  36
ENDBRANCH  34  35
ENDBRANCH  31  34
ENDBRANCH  29  30
BRANCH  29  41
HETATM   41  C   UNL     1      -8.626   8.643  70.913  1.00  0.00    -0.204 C  
BRANCH  41  42
HETATM   42  C   UNL     1      -9.951   8.016  71.297  1.00  0.00    -0.211 A  
HETATM   43  C   UNL     1     -12.079   7.008  70.668  1.00  0.00    -0.332 A  
HETATM   44  C   UNL     1     -10.930   7.719  70.341  1.00  0.00    -0.255 A  
HETATM   45  C   UNL     1     -10.214   7.678  72.627  1.00  0.00    -0.321 A  
HETATM   46  C   UNL     1     -11.383   6.983  72.968  1.00  0.00    -0.173 A  
HETATM   47  C   UNL     1     -12.306   6.633  71.984  1.00  0.00    -0.316 A  
ENDBRANCH  41  42
ENDBRANCH  29  41
ENDBRANCH  26  29
ENDBRANCH  25  26
ENDBRANCH  24  25
BRANCH  24  48
HETATM   48  C   UNL     1      -8.003  11.660  66.975  1.00  0.00    -0.164 C  
BRANCH  48  49
HETATM   49  C   UNL     1      -8.486  11.074  65.670  1.00  0.00    -0.099 A  
HETATM   50  C   UNL     1      -8.090   9.677  63.721  1.00  0.00    -0.148 A  
HETATM   51  C   UNL     1      -7.665  10.203  64.941  1.00  0.00    -0.143 A  
HETATM   52  C   UNL     1      -9.339  10.021  63.211  1.00  0.00    -0.296 A  
HETATM   53  C   UNL     1     -10.164  10.891  63.922  1.00  0.00    -0.418 A  
HETATM   54  C   UNL     1      -9.738  11.422  65.141  1.00  0.00    -0.280 A  
ENDBRANCH  48  49
ENDBRANCH  24  48
ENDBRANCH  22  24
ENDBRANCH   3  20
TORSDOF 18
ENDMDL
MODEL       52
REMARK 921   NORMALIZED FREE ENERGY PREDICTED BY IDOCK:   -4.55 KCAL/MOL
REMARK 922        TOTAL FREE ENERGY PREDICTED BY IDOCK:  -13.95 KCAL/MOL
REMARK 923 INTER-LIGAND FREE ENERGY PREDICTED BY IDOCK:  -12.64 KCAL/MOL
REMARK 924 INTRA-LIGAND FREE ENERGY PREDICTED BY IDOCK:   -1.31 KCAL/MOL
REMARK 927      BINDING AFFINITY PREDICTED BY RF-SCORE:    0.00 PKD
ROOT
HETATM    1  C   UNL     1      -6.623  13.330  69.705  1.00  0.00     0.002 C  
HETATM    2  C   UNL     1      -6.858  12.474  68.465  1.00  0.00    -0.083 C  
HETATM    3  C   UNL     1      -8.344  12.168  68.159  1.00  0.00    -0.170 C  
HETATM    4  C   UNL     1      -6.110  13.091  67.277  1.00  0.00     0.068 C  
ENDROOT
BRANCH   3   5
HETATM    5  N   UNL     1      -9.208  13.320  67.850  1.00  0.00    -0.205 N  
HETATM    6  H   UNL     1      -9.301  14.057  68.548  1.00  0.00     0.000 HD 
BRANCH   5   7
HETATM    7  C   UNL     1      -9.892  13.448  66.673  1.00  0.00    -0.278 C  
HETATM    8  O   UNL     1      -9.971  12.523  65.867  1.00  0.00    -0.253 OA 
BRANCH   7   9
HETATM    9  N   UNL     1     -10.426  14.691  66.397  1.00  0.00    -0.288 N  
HETATM   10  C   UNL     1     -10.630  15.294  65.089  1.00  0.00    -0.430 C  
BRANCH   9  11
HETATM   11  C   UNL     1     -10.888  15.492  67.538  1.00  0.00    -0.306 C  
BRANCH  11  12
HETATM   12  C   UNL     1      -9.990  16.675  67.787  1.00  0.00    -0.262 A  
HETATM   13  C   UNL     1     -10.399  17.986  67.953  1.00  0.00    -0.392 A  
HETATM   14  N   UNL     1      -8.613  16.485  67.944  1.00  0.00    -0.181 NA 
HETATM   15  S   UNL     1      -9.065  18.991  68.314  1.00  0.00    -0.340 SA 
HETATM   16  C   UNL     1      -5.699  17.463  67.318  1.00  0.00    -0.163 C  
HETATM   17  C   UNL     1      -8.021  17.623  68.245  1.00  0.00    -0.272 A  
HETATM   18  C   UNL     1      -6.548  17.783  68.546  1.00  0.00    -0.213 C  
HETATM   19  C   UNL     1      -6.140  16.898  69.726  1.00  0.00    -0.229 C  
ENDBRANCH  11  12
ENDBRANCH   9  11
ENDBRANCH   7   9
ENDBRANCH   5   7
ENDBRANCH   3   5
BRANCH   3  20
HETATM   20  C   UNL     1      -8.957  11.145  69.166  1.00  0.00     0.074 C  
HETATM   21  O   UNL     1      -8.293  10.306  69.772  1.00  0.00    -0.165 OA 
HETATM   22  N   UNL     1     -10.331  11.217  69.289  1.00  0.00    -0.407 N  
HETATM   23  H   UNL     1     -10.849  11.840  68.669  1.00  0.00     0.000 HD 
BRANCH  22  24
HETATM   24  C   UNL     1     -11.068  10.432  70.275  1.00  0.00    -0.307 C  
BRANCH  24  25
HETATM   25  C   UNL     1     -10.921   8.907  70.093  1.00  0.00    -0.245 C  
BRANCH  25  26
HETATM   26  C   UNL     1     -11.726   7.967  71.003  1.00  0.00    -0.277 C  
HETATM   27  H   UNL     1     -12.006   7.792  72.924  1.00  0.00     0.000 HD 
HETATM   28  O   UNL     1     -11.509   8.374  72.361  1.00  0.00    -0.367 OA 
BRANCH  26  29
HETATM   29  C   UNL     1     -11.435   6.442  70.861  1.00  0.00    -0.344 C  
BRANCH  29  30
HETATM   30  N   UNL     1     -11.179   6.031  69.481  1.00  0.00    -0.403 N  
HETATM   31  C   UNL     1      -9.950   6.213  68.907  1.00  0.00    -0.152 C  
HETATM   32  H   UNL     1     -11.928   5.601  68.937  1.00  0.00     0.000 HD 
HETATM   33  O   UNL     1      -8.907   6.270  69.528  1.00  0.00    -0.133 OA 
BRANCH  31  34
HETATM   34  O   UNL     1     -10.076   6.369  67.572  1.00  0.00    -0.133 OA 
BRANCH  34  35
HETATM   35  C   UNL     1     -10.583   5.230  66.846  1.00  0.00    -0.214 C  
BRANCH  35  36
HETATM   36  C   UNL     1      -9.736   4.917  65.657  1.00  0.00    -0.145 A  
HETATM   37  N   UNL     1      -9.039   3.930  63.649  1.00  0.00    -0.117 NA 
HETATM   38  C   UNL     1      -9.982   3.998  64.654  1.00  0.00    -0.199 A  
HETATM   39  C   UNL     1      -8.080   4.793  63.902  1.00  0.00    -0.108 A  
HETATM   40  S   UNL     1      -8.285   5.760  65.305  1.00  0.00    -0.143 SA 
ENDBRANCH  35  36
ENDBRANCH  34  35
ENDBRANCH  31  34
ENDBRANCH  29  30
BRANCH  29  41
HETATM   41  C   UNL     1     -10.300   5.953  71.821  1.00  0.00    -0.263 C  
BRANCH  41  42
HETATM   42  C   UNL     1     -10.345   4.506  72.266  1.00  0.00    -0.243 A  
HETATM   43  C   UNL     1     -11.187   2.773  73.760  1.00  0.00    -0.272 A  
HETATM   44  C   UNL     1     -11.016   4.113  73.431  1.00  0.00    -0.350 A  
HETATM   45  C   UNL     1      -9.743   3.509  71.493  1.00  0.00    -0.237 A  
HETATM   46  C   UNL     1      -9.891   2.157  71.833  1.00  0.00    -0.221 A  
HETATM   47  C   UNL     1     -10.629   1.790  72.957  1.00  0.00    -0.226 A  
ENDBRANCH  41  42
ENDBRANCH  29  41
ENDBRANCH  26  29
ENDBRANCH  25  26
ENDBRANCH  24  25
BRANCH  24  48
HETATM   48  C   UNL     1     -12.530  10.920  70.330  1.00  0.00    -0.383 C  
BRANCH  48  49
HETATM   49  C   UNL     1     -12.735  12.313  70.875  1.00  0.00    -0.277 A  
HETATM   50  C   UNL     1     -12.343  14.707  70.724  1.00  0.00    -0.398 A  
HETATM   51  C   UNL     1     -12.183  13.419  70.214  1.00  0.00    -0.405 A  
HETATM   52  C   UNL     1     -13.051  14.905  71.906  1.00  0.00    -0.425 A  
HETATM   53  C   UNL     1     -13.601  13.815  72.578  1.00  0.00    -0.680 A  
HETATM   54  C   UNL     1     -13.438  12.525  72.072  1.00  0.00    -0.486 A  
ENDBRANCH  48  49
ENDBRANCH  24  48
ENDBRANCH  22  24
ENDBRANCH   3  20
TORSDOF 18
ENDMDL
MODEL       53
REMARK 921   NORMALIZED FREE ENERGY PREDICTED BY IDOCK:   -4.52 KCAL/MOL
REMARK 922        TOTAL FREE ENERGY PREDICTED BY IDOCK:  -13.88 KCAL/MOL
REMARK 923 INTER-LIGAND FREE ENERGY PREDICTED BY IDOCK:  -10.37 KCAL/MOL
REMARK 924 INTRA-LIGAND FREE ENERGY PREDICTED BY IDOCK:   -3.51 KCAL/MOL
REMARK 927      BINDING AFFINITY PREDICTED BY RF-SCORE:    0.00 PKD
ROOT
HETATM    1  C   UNL     1     -13.762  10.753  70.252  1.00  0.00     1.322 C  
HETATM    2  C   UNL     1     -12.590  11.463  70.920  1.00  0.00    -0.453 C  
HETATM    3  C   UNL     1     -11.744  12.352  69.975  1.00  0.00    -0.230 C  
HETATM    4  C   UNL     1     -13.092  12.209  72.163  1.00  0.00    -0.380 C  
ENDROOT
BRANCH   3   5
HETATM    5  N   UNL     1     -12.428  13.500  69.356  1.00  0.00    -0.160 N  
HETATM    6  H   UNL     1     -13.223  13.318  68.745  1.00  0.00     0.000 HD 
BRANCH   5   7
HETATM    7  C   UNL     1     -12.048  14.797  69.563  1.00  0.00    -0.290 C  
HETATM    8  O   UNL     1     -12.605  15.509  70.395  1.00  0.00    -0.419 OA 
BRANCH   7   9
HETATM    9  N   UNL     1     -11.059  15.293  68.737  1.00  0.00    -0.255 N  
HETATM   10  C   UNL     1     -11.153  15.564  67.311  1.00  0.00    -0.271 C  
BRANCH   9  11
HETATM   11  C   UNL     1      -9.773  15.635  69.359  1.00  0.00    -0.292 C  
BRANCH  11  12
HETATM   12  C   UNL     1      -9.249  16.955  68.860  1.00  0.00    -0.229 A  
HETATM   13  C   UNL     1      -9.928  18.160  68.882  1.00  0.00    -0.338 A  
HETATM   14  N   UNL     1      -7.937  17.052  68.384  1.00  0.00    -0.229 NA 
HETATM   15  S   UNL     1      -8.930  19.425  68.314  1.00  0.00    -0.342 SA 
HETATM   16  C   UNL     1      -5.959  18.196  66.235  1.00  0.00    -0.219 C  
HETATM   17  C   UNL     1      -7.644  18.302  68.086  1.00  0.00    -0.269 A  
HETATM   18  C   UNL     1      -6.296  18.786  67.603  1.00  0.00    -0.206 C  
HETATM   19  C   UNL     1      -5.204  18.445  68.618  1.00  0.00    -0.177 C  
ENDBRANCH  11  12
ENDBRANCH   9  11
ENDBRANCH   7   9
ENDBRANCH   5   7
ENDBRANCH   3   5
BRANCH   3  20
HETATM   20  C   UNL     1     -10.870  11.508  68.995  1.00  0.00    -0.212 C  
HETATM   21  O   UNL     1     -11.164  10.371  68.629  1.00  0.00    -0.256 OA 
HETATM   22  N   UNL     1      -9.696  12.120  68.604  1.00  0.00    -0.380 N  
HETATM   23  H   UNL     1      -9.435  13.006  69.036  1.00  0.00     0.000 HD 
BRANCH  22  24
HETATM   24  C   UNL     1      -8.815  11.543  67.592  1.00  0.00    -0.152 C  
BRANCH  24  25
HETATM   25  C   UNL     1      -7.417  11.168  68.125  1.00  0.00    -0.093 C  
BRANCH  25  26
HETATM   26  C   UNL     1      -6.958   9.705  68.048  1.00  0.00    -0.078 C  
HETATM   27  H   UNL     1      -6.023   8.606  66.737  1.00  0.00     0.000 HD 
HETATM   28  O   UNL     1      -6.307   9.511  66.785  1.00  0.00    -0.064 OA 
BRANCH  26  29
HETATM   29  C   UNL     1      -8.058   8.617  68.241  1.00  0.00    -0.118 C  
BRANCH  29  30
HETATM   30  N   UNL     1      -7.967   7.528  67.269  1.00  0.00    -0.117 N  
HETATM   31  C   UNL     1      -9.081   7.057  66.628  1.00  0.00    -0.152 C  
HETATM   32  H   UNL     1      -7.057   7.112  67.065  1.00  0.00     0.000 HD 
HETATM   33  O   UNL     1     -10.083   7.715  66.428  1.00  0.00    -0.170 OA 
BRANCH  31  34
HETATM   34  O   UNL     1      -8.920   5.756  66.305  1.00  0.00    -0.137 OA 
BRANCH  34  35
HETATM   35  C   UNL     1      -9.670   4.810  67.094  1.00  0.00    -0.184 C  
BRANCH  35  36
HETATM   36  C   UNL     1      -8.825   4.193  68.159  1.00  0.00    -0.109 A  
HETATM   37  N   UNL     1      -6.917   3.497  69.328  1.00  0.00    -0.044 NA 
HETATM   38  C   UNL     1      -7.446   4.095  68.202  1.00  0.00    -0.067 A  
HETATM   39  C   UNL     1      -7.898   3.137  70.125  1.00  0.00    -0.043 A  
HETATM   40  S   UNL     1      -9.481   3.546  69.604  1.00  0.00    -0.125 SA 
ENDBRANCH  35  36
ENDBRANCH  34  35
ENDBRANCH  31  34
ENDBRANCH  29  30
BRANCH  29  41
HETATM   41  C   UNL     1      -8.113   8.069  69.706  1.00  0.00    -0.115 C  
BRANCH  41  42
HETATM   42  C   UNL     1      -9.472   8.010  70.373  1.00  0.00    -0.166 A  
HETATM   43  C   UNL     1     -11.642   6.940  70.671  1.00  0.00    -0.402 A  
HETATM   44  C   UNL     1     -10.454   7.099  69.965  1.00  0.00    -0.235 A  
HETATM   45  C   UNL     1      -9.767   8.848  71.452  1.00  0.00    -0.370 A  
HETATM   46  C   UNL     1     -10.973   8.710  72.153  1.00  0.00    -0.434 A  
HETATM   47  C   UNL     1     -11.901   7.742  71.772  1.00  0.00    -0.328 A  
ENDBRANCH  41  42
ENDBRANCH  29  41
ENDBRANCH  26  29
ENDBRANCH  25  26
ENDBRANCH  24  25
BRANCH  24  48
HETATM   48  C   UNL     1      -8.788  12.461  66.352  1.00  0.00    -0.048 C  
BRANCH  48  49
HETATM   49  C   UNL     1      -9.965  12.327  65.415  1.00  0.00    -0.264 A  
HETATM   50  C   UNL     1     -10.940  11.412  63.386  1.00  0.00    -0.342 A  
HETATM   51  C   UNL     1      -9.870  11.521  64.272  1.00  0.00    -0.279 A  
HETATM   52  C   UNL     1     -12.119  12.114  63.627  1.00  0.00    -0.648 A  
HETATM   53  C   UNL     1     -12.227  12.924  64.756  1.00  0.00    -0.499 A  
HETATM   54  C   UNL     1     -11.154  13.038  65.642  1.00  0.00    -0.301 A  
ENDBRANCH  48  49
ENDBRANCH  24  48
ENDBRANCH  22  24
ENDBRANCH   3  20
TORSDOF 18
ENDMDL
MODEL       54
REMARK 921   NORMALIZED FREE ENERGY PREDICTED BY IDOCK:   -4.51 KCAL/MOL
REMARK 922        TOTAL FREE ENERGY PREDICTED BY IDOCK:  -13.88 KCAL/MOL
REMARK 923 INTER-LIGAND FREE ENERGY PREDICTED BY IDOCK:  -10.15 KCAL/MOL
REMARK 924 INTRA-LIGAND FREE ENERGY PREDICTED BY IDOCK:   -3.73 KCAL/MOL
REMARK 927      BINDING AFFINITY PREDICTED BY RF-SCORE:    0.00 PKD
ROOT
HETATM    1  C   UNL     1     -12.028   8.234  70.656  1.00  0.00    -0.028 C  
HETATM    2  C   UNL     1     -10.523   8.455  70.756  1.00  0.00    -0.230 C  
HETATM    3  C   UNL     1      -9.941   9.446  69.718  1.00  0.00    -0.200 C  
HETATM    4  C   UNL     1     -10.160   8.812  72.202  1.00  0.00    -0.362 C  
ENDROOT
BRANCH   3   5
HETATM    5  N   UNL     1     -10.416  10.838  69.792  1.00  0.00    -0.436 N  
HETATM    6  H   UNL     1      -9.989  11.461  70.476  1.00  0.00     0.000 HD 
BRANCH   5   7
HETATM    7  C   UNL     1     -11.403  11.336  68.985  1.00  0.00    -0.278 C  
HETATM    8  O   UNL     1     -12.582  11.030  69.144  1.00  0.00    -0.378 OA 
BRANCH   7   9
HETATM    9  N   UNL     1     -11.001  12.137  67.936  1.00  0.00    -0.217 N  
HETATM   10  C   UNL     1     -11.587  12.211  66.607  1.00  0.00    -0.350 C  
BRANCH   9  11
HETATM   11  C   UNL     1      -9.887  13.062  68.185  1.00  0.00    -0.228 C  
BRANCH  11  12
HETATM   12  C   UNL     1     -10.371  14.379  68.734  1.00  0.00    -0.241 A  
HETATM   13  C   UNL     1     -11.181  14.549  69.843  1.00  0.00    -0.203 A  
HETATM   14  N   UNL     1      -9.941  15.577  68.156  1.00  0.00    -0.216 NA 
HETATM   15  S   UNL     1     -11.404  16.210  70.176  1.00  0.00    -0.292 SA 
HETATM   16  C   UNL     1     -10.652  18.472  67.180  1.00  0.00    -0.439 C  
HETATM   17  C   UNL     1     -10.399  16.609  68.836  1.00  0.00    -0.300 A  
HETATM   18  C   UNL     1     -10.082  18.057  68.535  1.00  0.00    -0.399 C  
HETATM   19  C   UNL     1      -8.572  18.300  68.579  1.00  0.00    -0.323 C  
ENDBRANCH  11  12
ENDBRANCH   9  11
ENDBRANCH   7   9
ENDBRANCH   5   7
ENDBRANCH   3   5
BRANCH   3  20
HETATM   20  C   UNL     1      -9.910   8.844  68.278  1.00  0.00    -0.167 C  
HETATM   21  O   UNL     1     -10.898   8.773  67.549  1.00  0.00    -0.206 OA 
HETATM   22  N   UNL     1      -8.683   8.338  67.897  1.00  0.00    -0.134 N  
HETATM   23  H   UNL     1      -7.930   8.302  68.584  1.00  0.00     0.000 HD 
BRANCH  22  24
HETATM   24  C   UNL     1      -8.426   7.853  66.543  1.00  0.00    -0.134 C  
BRANCH  24  25
HETATM   25  C   UNL     1      -7.984   6.376  66.484  1.00  0.00    -0.109 C  
BRANCH  25  26
HETATM   26  C   UNL     1      -8.904   5.299  67.074  1.00  0.00    -0.109 C  
HETATM   27  H   UNL     1     -10.831   5.055  67.245  1.00  0.00     0.000 HD 
HETATM   28  O   UNL     1     -10.262   5.721  66.880  1.00  0.00    -0.172 OA 
BRANCH  26  29
HETATM   29  C   UNL     1      -8.680   4.933  68.573  1.00  0.00    -0.097 C  
BRANCH  29  30
HETATM   30  N   UNL     1      -7.500   5.576  69.151  1.00  0.00    -0.077 N  
HETATM   31  C   UNL     1      -6.412   4.839  69.536  1.00  0.00    -0.035 C  
HETATM   32  H   UNL     1      -7.487   6.589  69.270  1.00  0.00     0.000 HD 
HETATM   33  O   UNL     1      -6.112   3.763  69.058  1.00  0.00    -0.026 OA 
BRANCH  31  34
HETATM   34  O   UNL     1      -5.764   5.456  70.547  1.00  0.00    -0.018 OA 
BRANCH  34  35
HETATM   35  C   UNL     1      -6.304   5.245  71.867  1.00  0.00    -0.038 C  
BRANCH  35  36
HETATM   36  C   UNL     1      -6.432   6.530  72.618  1.00  0.00    -0.059 A  
HETATM   37  N   UNL     1      -6.187   8.797  73.161  1.00  0.00    -0.235 NA 
HETATM   38  C   UNL     1      -5.883   7.759  72.303  1.00  0.00    -0.039 A  
HETATM   39  C   UNL     1      -6.956   8.344  74.126  1.00  0.00    -0.134 A  
HETATM   40  S   UNL     1      -7.400   6.690  74.024  1.00  0.00    -0.086 SA 
ENDBRANCH  35  36
ENDBRANCH  34  35
ENDBRANCH  31  34
ENDBRANCH  29  30
BRANCH  29  41
HETATM   41  C   UNL     1      -9.951   5.184  69.451  1.00  0.00    -0.292 C  
BRANCH  41  42
HETATM   42  C   UNL     1     -10.076   4.387  70.733  1.00  0.00    -0.199 A  
HETATM   43  C   UNL     1      -9.630   2.369  72.025  1.00  0.00    -0.200 A  
HETATM   44  C   UNL     1      -9.658   3.053  70.815  1.00  0.00    -0.203 A  
HETATM   45  C   UNL     1     -10.583   4.984  71.891  1.00  0.00    -0.224 A  
HETATM   46  C   UNL     1     -10.581   4.291  73.109  1.00  0.00    -0.270 A  
HETATM   47  C   UNL     1     -10.087   2.989  73.178  1.00  0.00    -0.208 A  
ENDBRANCH  41  42
ENDBRANCH  29  41
ENDBRANCH  26  29
ENDBRANCH  25  26
ENDBRANCH  24  25
BRANCH  24  48
HETATM   48  C   UNL     1      -7.467   8.825  65.825  1.00  0.00    -0.085 C  
BRANCH  48  49
HETATM   49  C   UNL     1      -8.056   9.581  64.658  1.00  0.00    -0.136 A  
HETATM   50  C   UNL     1      -7.773  10.680  62.509  1.00  0.00    -0.159 A  
HETATM   51  C   UNL     1      -7.245   9.958  63.579  1.00  0.00    -0.126 A  
HETATM   52  C   UNL     1      -9.117  11.042  62.508  1.00  0.00    -0.362 A  
HETATM   53  C   UNL     1      -9.935  10.680  63.577  1.00  0.00    -0.347 A  
HETATM   54  C   UNL     1      -9.407   9.960  64.651  1.00  0.00    -0.338 A  
ENDBRANCH  48  49
ENDBRANCH  24  48
ENDBRANCH  22  24
ENDBRANCH   3  20
TORSDOF 18
ENDMDL
MODEL       55
REMARK 921   NORMALIZED FREE ENERGY PREDICTED BY IDOCK:   -4.50 KCAL/MOL
REMARK 922        TOTAL FREE ENERGY PREDICTED BY IDOCK:  -13.85 KCAL/MOL
REMARK 923 INTER-LIGAND FREE ENERGY PREDICTED BY IDOCK:  -11.74 KCAL/MOL
REMARK 924 INTRA-LIGAND FREE ENERGY PREDICTED BY IDOCK:   -2.11 KCAL/MOL
REMARK 927      BINDING AFFINITY PREDICTED BY RF-SCORE:    0.00 PKD
ROOT
HETATM    1  C   UNL     1      -9.367  14.369  68.660  1.00  0.00    -0.188 C  
HETATM    2  C   UNL     1      -8.875  13.131  67.921  1.00  0.00    -0.196 C  
HETATM    3  C   UNL     1      -9.957  12.396  67.092  1.00  0.00    -0.207 C  
HETATM    4  C   UNL     1      -7.629  13.493  67.102  1.00  0.00     0.041 C  
ENDROOT
BRANCH   3   5
HETATM    5  N   UNL     1     -10.561  13.145  65.977  1.00  0.00    -0.277 N  
HETATM    6  H   UNL     1     -10.392  12.819  65.026  1.00  0.00     0.000 HD 
BRANCH   5   7
HETATM    7  C   UNL     1     -11.339  14.256  66.156  1.00  0.00    -0.342 C  
HETATM    8  O   UNL     1     -12.239  14.286  66.992  1.00  0.00    -0.424 OA 
BRANCH   7   9
HETATM    9  N   UNL     1     -11.115  15.314  65.299  1.00  0.00    -0.371 N  
HETATM   10  C   UNL     1     -12.063  15.919  64.377  1.00  0.00     0.084 C  
BRANCH   9  11
HETATM   11  C   UNL     1      -9.789  15.945  65.342  1.00  0.00    -0.128 C  
BRANCH  11  12
HETATM   12  C   UNL     1      -9.633  16.826  66.554  1.00  0.00    -0.266 A  
HETATM   13  C   UNL     1     -10.661  17.350  67.317  1.00  0.00    -0.219 A  
HETATM   14  N   UNL     1      -8.356  17.119  67.044  1.00  0.00    -0.198 NA 
HETATM   15  S   UNL     1     -10.040  18.208  68.657  1.00  0.00    -0.369 SA 
HETATM   16  C   UNL     1      -6.380  19.248  68.229  1.00  0.00    -0.254 C  
HETATM   17  C   UNL     1      -8.438  17.821  68.157  1.00  0.00    -0.262 A  
HETATM   18  C   UNL     1      -7.259  18.261  68.994  1.00  0.00    -0.237 C  
HETATM   19  C   UNL     1      -6.438  17.052  69.448  1.00  0.00    -0.236 C  
ENDBRANCH  11  12
ENDBRANCH   9  11
ENDBRANCH   7   9
ENDBRANCH   5   7
ENDBRANCH   3   5
BRANCH   3  20
HETATM   20  C   UNL     1     -10.979  11.636  67.996  1.00  0.00    -0.224 C  
HETATM   21  O   UNL     1     -12.033  11.159  67.578  1.00  0.00    -0.580 OA 
HETATM   22  N   UNL     1     -10.632  11.585  69.332  1.00  0.00    -0.436 N  
HETATM   23  H   UNL     1      -9.815  12.106  69.649  1.00  0.00     0.000 HD 
BRANCH  22  24
HETATM   24  C   UNL     1     -11.394  10.808  70.306  1.00  0.00    -0.290 C  
BRANCH  24  25
HETATM   25  C   UNL     1     -11.392   9.290  70.031  1.00  0.00    -0.137 C  
BRANCH  25  26
HETATM   26  C   UNL     1     -10.143   8.470  70.384  1.00  0.00    -0.189 C  
HETATM   27  H   UNL     1      -8.437   8.837  71.253  1.00  0.00     0.000 HD 
HETATM   28  O   UNL     1      -9.210   9.344  71.035  1.00  0.00    -0.229 OA 
BRANCH  26  29
HETATM   29  C   UNL     1      -9.435   7.735  69.206  1.00  0.00    -0.155 C  
BRANCH  29  30
HETATM   30  N   UNL     1      -9.318   6.291  69.416  1.00  0.00    -0.140 N  
HETATM   31  C   UNL     1     -10.379   5.555  69.867  1.00  0.00    -0.298 C  
HETATM   32  H   UNL     1      -8.430   5.827  69.223  1.00  0.00     0.000 HD 
HETATM   33  O   UNL     1     -11.544   5.861  69.701  1.00  0.00    -0.169 OA 
BRANCH  31  34
HETATM   34  O   UNL     1      -9.943   4.482  70.560  1.00  0.00    -0.217 OA 
BRANCH  34  35
HETATM   35  C   UNL     1     -10.228   4.481  71.973  1.00  0.00    -0.181 C  
BRANCH  35  36
HETATM   36  C   UNL     1      -9.178   3.751  72.744  1.00  0.00    -0.107 A  
HETATM   37  N   UNL     1      -8.199   2.311  74.312  1.00  0.00    -0.058 NA 
HETATM   38  C   UNL     1      -9.350   2.872  73.797  1.00  0.00    -0.084 A  
HETATM   39  C   UNL     1      -7.162   2.775  73.651  1.00  0.00    -0.041 A  
HETATM   40  S   UNL     1      -7.510   3.847  72.357  1.00  0.00    -0.064 SA 
ENDBRANCH  35  36
ENDBRANCH  34  35
ENDBRANCH  31  34
ENDBRANCH  29  30
BRANCH  29  41
HETATM   41  C   UNL     1     -10.083   8.057  67.818  1.00  0.00    -0.250 C  
BRANCH  41  42
HETATM   42  C   UNL     1      -9.262   8.877  66.844  1.00  0.00    -0.185 A  
HETATM   43  C   UNL     1      -7.152   9.910  66.196  1.00  0.00    -0.103 A  
HETATM   44  C   UNL     1      -7.958   9.290  67.144  1.00  0.00    -0.106 A  
HETATM   45  C   UNL     1      -9.781   9.213  65.590  1.00  0.00    -0.247 A  
HETATM   46  C   UNL     1      -8.981   9.860  64.639  1.00  0.00    -0.260 A  
HETATM   47  C   UNL     1      -7.660  10.191  64.937  1.00  0.00    -0.138 A  
ENDBRANCH  41  42
ENDBRANCH  29  41
ENDBRANCH  26  29
ENDBRANCH  25  26
ENDBRANCH  24  25
BRANCH  24  48
HETATM   48  C   UNL     1     -12.804  11.417  70.456  1.00  0.00    -0.123 C  
BRANCH  48  49
HETATM   49  C   UNL     1     -12.858  12.795  71.071  1.00  0.00    -0.262 A  
HETATM   50  C   UNL     1     -12.328  15.164  70.967  1.00  0.00    -0.408 A  
HETATM   51  C   UNL     1     -12.307  13.892  70.396  1.00  0.00    -0.433 A  
HETATM   52  C   UNL     1     -12.895  15.355  72.224  1.00  0.00    -0.469 A  
HETATM   53  C   UNL     1     -13.442  14.272  72.911  1.00  0.00    -0.491 A  
HETATM   54  C   UNL     1     -13.418  12.997  72.343  1.00  0.00    -0.615 A  
ENDBRANCH  48  49
ENDBRANCH  24  48
ENDBRANCH  22  24
ENDBRANCH   3  20
TORSDOF 18
ENDMDL
MODEL       56
REMARK 921   NORMALIZED FREE ENERGY PREDICTED BY IDOCK:   -4.47 KCAL/MOL
REMARK 922        TOTAL FREE ENERGY PREDICTED BY IDOCK:  -13.78 KCAL/MOL
REMARK 923 INTER-LIGAND FREE ENERGY PREDICTED BY IDOCK:  -11.20 KCAL/MOL
REMARK 924 INTRA-LIGAND FREE ENERGY PREDICTED BY IDOCK:   -2.58 KCAL/MOL
REMARK 927      BINDING AFFINITY PREDICTED BY RF-SCORE:    0.00 PKD
ROOT
HETATM    1  C   UNL     1      -9.662  11.284  69.040  1.00  0.00    -0.072 C  
HETATM    2  C   UNL     1      -9.697  11.692  67.572  1.00  0.00    -0.185 C  
HETATM    3  C   UNL     1      -8.307  11.842  66.906  1.00  0.00    -0.170 C  
HETATM    4  C   UNL     1     -10.635  10.749  66.808  1.00  0.00    -0.307 C  
ENDROOT
BRANCH   3   5
HETATM    5  N   UNL     1      -7.478  10.628  66.822  1.00  0.00    -0.114 N  
HETATM    6  H   UNL     1      -6.783  10.464  67.550  1.00  0.00     0.000 HD 
BRANCH   5   7
HETATM    7  C   UNL     1      -7.595   9.710  65.815  1.00  0.00    -0.103 C  
HETATM    8  O   UNL     1      -7.868  10.044  64.665  1.00  0.00    -0.137 OA 
BRANCH   7   9
HETATM    9  N   UNL     1      -7.467   8.382  66.169  1.00  0.00    -0.087 N  
HETATM   10  C   UNL     1      -6.258   7.573  66.143  1.00  0.00    -0.041 C  
BRANCH   9  11
HETATM   11  C   UNL     1      -8.667   7.703  66.677  1.00  0.00    -0.141 C  
BRANCH  11  12
HETATM   12  C   UNL     1      -8.740   7.755  68.180  1.00  0.00    -0.126 A  
HETATM   13  C   UNL     1      -7.666   7.888  69.042  1.00  0.00    -0.101 A  
HETATM   14  N   UNL     1      -9.984   7.743  68.820  1.00  0.00    -0.171 NA 
HETATM   15  S   UNL     1      -8.204   8.006  70.660  1.00  0.00    -0.117 SA 
HETATM   16  C   UNL     1     -11.759   6.681  71.178  1.00  0.00    -0.399 C  
HETATM   17  C   UNL     1      -9.836   7.891  70.121  1.00  0.00    -0.184 A  
HETATM   18  C   UNL     1     -10.968   7.986  71.118  1.00  0.00    -0.271 C  
HETATM   19  C   UNL     1     -11.891   9.157  70.776  1.00  0.00    -0.280 C  
ENDBRANCH  11  12
ENDBRANCH   9  11
ENDBRANCH   7   9
ENDBRANCH   5   7
ENDBRANCH   3   5
BRANCH   3  20
HETATM   20  C   UNL     1      -7.550  13.115  67.399  1.00  0.00    -0.131 C  
HETATM   21  O   UNL     1      -6.430  13.087  67.907  1.00  0.00    -0.096 OA 
HETATM   22  N   UNL     1      -8.264  14.291  67.269  1.00  0.00    -0.227 N  
HETATM   23  H   UNL     1      -9.236  14.245  66.964  1.00  0.00     0.000 HD 
BRANCH  22  24
HETATM   24  C   UNL     1      -7.675  15.596  67.554  1.00  0.00    -0.168 C  
BRANCH  24  25
HETATM   25  C   UNL     1      -8.008  16.136  68.960  1.00  0.00    -0.236 C  
BRANCH  25  26
HETATM   26  C   UNL     1      -9.326  15.717  69.627  1.00  0.00    -0.217 C  
HETATM   27  H   UNL     1     -10.047  14.063  70.367  1.00  0.00     0.000 HD 
HETATM   28  O   UNL     1      -9.232  14.323  69.954  1.00  0.00     0.724 OA 
BRANCH  26  29
HETATM   29  C   UNL     1     -10.632  15.976  68.817  1.00  0.00    -0.262 C  
BRANCH  29  30
HETATM   30  N   UNL     1     -11.087  14.804  68.068  1.00  0.00    -0.275 N  
HETATM   31  C   UNL     1     -11.502  14.913  66.768  1.00  0.00    -0.301 C  
HETATM   32  H   UNL     1     -11.094  13.890  68.522  1.00  0.00     0.000 HD 
HETATM   33  O   UNL     1     -11.130  15.781  66.003  1.00  0.00    -0.229 OA 
BRANCH  31  34
HETATM   34  O   UNL     1     -12.411  13.957  66.486  1.00  0.00    -0.424 OA 
BRANCH  34  35
HETATM   35  C   UNL     1     -12.816  13.855  65.106  1.00  0.00    -0.342 C  
BRANCH  35  36
HETATM   36  C   UNL     1     -11.832  13.069  64.303  1.00  0.00    -0.396 A  
HETATM   37  N   UNL     1      -9.783  12.354  63.418  1.00  0.00    -0.211 NA 
HETATM   38  C   UNL     1     -10.464  13.249  64.218  1.00  0.00    -0.352 A  
HETATM   39  C   UNL     1     -10.642  11.507  62.895  1.00  0.00     0.021 A  
HETATM   40  S   UNL     1     -12.278  11.697  63.376  1.00  0.00     0.003 SA 
ENDBRANCH  35  36
ENDBRANCH  34  35
ENDBRANCH  31  34
ENDBRANCH  29  30
BRANCH  29  41
HETATM   41  C   UNL     1     -11.781  16.569  69.699  1.00  0.00     0.268 C  
BRANCH  41  42
HETATM   42  C   UNL     1     -12.102  15.850  70.993  1.00  0.00    -0.438 A  
HETATM   43  C   UNL     1     -12.283  15.842  73.423  1.00  0.00    -0.625 A  
HETATM   44  C   UNL     1     -11.852  16.433  72.241  1.00  0.00    -0.531 A  
HETATM   45  C   UNL     1     -12.699  14.586  70.971  1.00  0.00    -0.413 A  
HETATM   46  C   UNL     1     -13.114  13.974  72.161  1.00  0.00    -0.501 A  
HETATM   47  C   UNL     1     -12.922  14.612  73.386  1.00  0.00    -0.483 A  
ENDBRANCH  41  42
ENDBRANCH  29  41
ENDBRANCH  26  29
ENDBRANCH  25  26
ENDBRANCH  24  25
BRANCH  24  48
HETATM   48  C   UNL     1      -8.016  16.573  66.409  1.00  0.00    -0.352 C  
BRANCH  48  49
HETATM   49  C   UNL     1      -8.329  17.989  66.830  1.00  0.00    -0.271 A  
HETATM   50  C   UNL     1      -9.959  19.729  67.299  1.00  0.00    -0.530 A  
HETATM   51  C   UNL     1      -9.659  18.416  66.938  1.00  0.00    -0.305 A  
HETATM   52  C   UNL     1      -8.932  20.635  67.549  1.00  0.00    -0.321 A  
HETATM   53  C   UNL     1      -7.604  20.227  67.440  1.00  0.00    -0.349 A  
HETATM   54  C   UNL     1      -7.302  18.914  67.074  1.00  0.00    -0.224 A  
ENDBRANCH  48  49
ENDBRANCH  24  48
ENDBRANCH  22  24
ENDBRANCH   3  20
TORSDOF 18
ENDMDL
MODEL       57
REMARK 921   NORMALIZED FREE ENERGY PREDICTED BY IDOCK:   -4.42 KCAL/MOL
REMARK 922        TOTAL FREE ENERGY PREDICTED BY IDOCK:  -13.69 KCAL/MOL
REMARK 923 INTER-LIGAND FREE ENERGY PREDICTED BY IDOCK:  -11.74 KCAL/MOL
REMARK 924 INTRA-LIGAND FREE ENERGY PREDICTED BY IDOCK:   -1.94 KCAL/MOL
REMARK 927      BINDING AFFINITY PREDICTED BY RF-SCORE:    0.00 PKD
ROOT
HETATM    1  C   UNL     1      -6.374  11.610  69.232  1.00  0.00    -0.098 C  
HETATM    2  C   UNL     1      -6.986  12.102  67.926  1.00  0.00    -0.099 C  
HETATM    3  C   UNL     1      -8.531  12.198  67.928  1.00  0.00    -0.163 C  
HETATM    4  C   UNL     1      -6.299  13.407  67.506  1.00  0.00    -0.112 C  
ENDROOT
BRANCH   3   5
HETATM    5  N   UNL     1      -9.135  13.150  68.875  1.00  0.00    -0.369 N  
HETATM    6  H   UNL     1      -8.977  13.008  69.872  1.00  0.00     0.000 HD 
BRANCH   5   7
HETATM    7  C   UNL     1      -9.897  14.216  68.482  1.00  0.00    -0.230 C  
HETATM    8  O   UNL     1     -10.074  15.188  69.213  1.00  0.00    -0.229 OA 
BRANCH   7   9
HETATM    9  N   UNL     1     -10.521  14.113  67.256  1.00  0.00    -0.271 N  
HETATM   10  C   UNL     1     -11.859  13.609  66.985  1.00  0.00    -0.408 C  
BRANCH   9  11
HETATM   11  C   UNL     1      -9.786  14.607  66.084  1.00  0.00    -0.312 C  
BRANCH  11  12
HETATM   12  C   UNL     1      -9.170  15.956  66.343  1.00  0.00    -0.309 A  
HETATM   13  C   UNL     1      -7.817  16.245  66.348  1.00  0.00    -0.214 A  
HETATM   14  N   UNL     1      -9.990  17.073  66.533  1.00  0.00    -0.297 NA 
HETATM   15  S   UNL     1      -7.558  17.917  66.584  1.00  0.00    -0.250 SA 
HETATM   16  C   UNL     1     -10.569  19.715  68.123  1.00  0.00    -0.403 C  
HETATM   17  C   UNL     1      -9.262  18.166  66.650  1.00  0.00    -0.290 A  
HETATM   18  C   UNL     1      -9.814  19.565  66.804  1.00  0.00    -0.486 C  
HETATM   19  C   UNL     1     -10.721  19.920  65.624  1.00  0.00    -0.377 C  
ENDBRANCH  11  12
ENDBRANCH   9  11
ENDBRANCH   7   9
ENDBRANCH   5   7
ENDBRANCH   3   5
BRANCH   3  20
HETATM   20  C   UNL     1      -9.211  10.794  67.893  1.00  0.00    -0.150 C  
HETATM   21  O   UNL     1     -10.310  10.582  67.383  1.00  0.00    -0.199 OA 
HETATM   22  N   UNL     1      -8.501   9.799  68.537  1.00  0.00    -0.113 N  
HETATM   23  H   UNL     1      -7.661  10.051  69.056  1.00  0.00     0.000 HD 
BRANCH  22  24
HETATM   24  C   UNL     1      -8.912   8.398  68.499  1.00  0.00    -0.136 C  
BRANCH  24  25
HETATM   25  C   UNL     1      -9.397   7.854  69.859  1.00  0.00    -0.156 C  
BRANCH  25  26
HETATM   26  C   UNL     1      -9.593   8.832  71.026  1.00  0.00    -0.229 C  
HETATM   27  H   UNL     1      -8.448   9.610  72.399  1.00  0.00     0.000 HD 
HETATM   28  O   UNL     1      -8.326   9.005  71.676  1.00  0.00    -0.334 OA 
BRANCH  26  29
HETATM   29  C   UNL     1     -10.675   8.451  72.082  1.00  0.00    -0.337 C  
BRANCH  29  30
HETATM   30  N   UNL     1     -11.765   9.424  72.166  1.00  0.00    -0.191 N  
HETATM   31  C   UNL     1     -12.059  10.248  71.113  1.00  0.00    -0.395 C  
HETATM   32  H   UNL     1     -12.314   9.489  73.023  1.00  0.00     0.000 HD 
HETATM   33  O   UNL     1     -11.822   9.983  69.951  1.00  0.00    -0.185 OA 
BRANCH  31  34
HETATM   34  O   UNL     1     -12.595  11.403  71.560  1.00  0.00    -0.348 OA 
BRANCH  34  35
HETATM   35  C   UNL     1     -12.406  12.557  70.716  1.00  0.00    -0.286 C  
BRANCH  35  36
HETATM   36  C   UNL     1     -12.890  13.805  71.377  1.00  0.00    -0.369 A  
HETATM   37  N   UNL     1     -14.060  15.808  71.713  1.00  0.00    -0.405 NA 
HETATM   38  C   UNL     1     -13.754  14.758  70.871  1.00  0.00    -0.159 A  
HETATM   39  C   UNL     1     -13.419  15.647  72.849  1.00  0.00    -0.568 A  
HETATM   40  S   UNL     1     -12.477  14.220  72.989  1.00  0.00    -0.003 SA 
ENDBRANCH  35  36
ENDBRANCH  34  35
ENDBRANCH  31  34
ENDBRANCH  29  30
BRANCH  29  41
HETATM   41  C   UNL     1     -11.224   6.998  71.885  1.00  0.00    -0.282 C  
BRANCH  41  42
HETATM   42  C   UNL     1     -10.736   5.937  72.850  1.00  0.00    -0.281 A  
HETATM   43  C   UNL     1     -10.725   3.629  73.632  1.00  0.00    -0.307 A  
HETATM   44  C   UNL     1     -11.272   4.644  72.855  1.00  0.00    -0.246 A  
HETATM   45  C   UNL     1      -9.699   6.217  73.745  1.00  0.00    -0.194 A  
HETATM   46  C   UNL     1      -9.159   5.204  74.549  1.00  0.00    -0.114 A  
HETATM   47  C   UNL     1      -9.662   3.905  74.478  1.00  0.00    -0.160 A  
ENDBRANCH  41  42
ENDBRANCH  29  41
ENDBRANCH  26  29
ENDBRANCH  25  26
ENDBRANCH  24  25
BRANCH  24  48
HETATM   48  C   UNL     1      -7.798   7.555  67.846  1.00  0.00    -0.117 C  
BRANCH  48  49
HETATM   49  C   UNL     1      -7.944   6.058  67.985  1.00  0.00    -0.109 A  
HETATM   50  C   UNL     1      -7.229   3.961  68.983  1.00  0.00    -0.054 A  
HETATM   51  C   UNL     1      -7.121   5.346  68.868  1.00  0.00    -0.061 A  
HETATM   52  C   UNL     1      -8.158   3.268  68.212  1.00  0.00    -0.080 A  
HETATM   53  C   UNL     1      -8.980   3.961  67.325  1.00  0.00    -0.151 A  
HETATM   54  C   UNL     1      -8.869   5.348  67.204  1.00  0.00    -0.109 A  
ENDBRANCH  48  49
ENDBRANCH  24  48
ENDBRANCH  22  24
ENDBRANCH   3  20
TORSDOF 18
ENDMDL
MODEL       58
REMARK 921   NORMALIZED FREE ENERGY PREDICTED BY IDOCK:   -4.40 KCAL/MOL
REMARK 922        TOTAL FREE ENERGY PREDICTED BY IDOCK:  -13.65 KCAL/MOL
REMARK 923 INTER-LIGAND FREE ENERGY PREDICTED BY IDOCK:  -11.76 KCAL/MOL
REMARK 924 INTRA-LIGAND FREE ENERGY PREDICTED BY IDOCK:   -1.89 KCAL/MOL
REMARK 927      BINDING AFFINITY PREDICTED BY RF-SCORE:    0.00 PKD
ROOT
HETATM    1  C   UNL     1     -10.046  12.197  63.426  1.00  0.00    -0.383 C  
HETATM    2  C   UNL     1     -11.091  11.196  63.904  1.00  0.00    -0.168 C  
HETATM    3  C   UNL     1     -11.030  10.865  65.416  1.00  0.00     0.038 C  
HETATM    4  C   UNL     1     -12.479  11.655  63.442  1.00  0.00    -0.326 C  
ENDROOT
BRANCH   3   5
HETATM    5  N   UNL     1     -11.283  11.975  66.349  1.00  0.00    -0.322 N  
HETATM    6  H   UNL     1     -12.159  11.979  66.871  1.00  0.00     0.000 HD 
BRANCH   5   7
HETATM    7  C   UNL     1     -10.401  13.000  66.550  1.00  0.00    -0.274 C  
HETATM    8  O   UNL     1      -9.196  12.799  66.682  1.00  0.00    -0.226 OA 
BRANCH   7   9
HETATM    9  N   UNL     1     -10.938  14.266  66.673  1.00  0.00    -0.305 N  
HETATM   10  C   UNL     1     -11.881  14.730  67.679  1.00  0.00    -0.292 C  
BRANCH   9  11
HETATM   11  C   UNL     1     -10.482  15.286  65.720  1.00  0.00    -0.349 C  
BRANCH  11  12
HETATM   12  C   UNL     1      -9.575  16.293  66.377  1.00  0.00    -0.291 A  
HETATM   13  C   UNL     1      -8.210  16.163  66.557  1.00  0.00    -0.308 A  
HETATM   14  N   UNL     1     -10.089  17.523  66.802  1.00  0.00    -0.308 NA 
HETATM   15  S   UNL     1      -7.556  17.580  67.252  1.00  0.00    -0.203 SA 
HETATM   16  C   UNL     1     -10.174  19.760  68.999  1.00  0.00    -0.362 C  
HETATM   17  C   UNL     1      -9.123  18.294  67.260  1.00  0.00    -0.256 A  
HETATM   18  C   UNL     1      -9.303  19.714  67.746  1.00  0.00    -0.427 C  
HETATM   19  C   UNL     1      -9.902  20.589  66.643  1.00  0.00    -0.405 C  
ENDBRANCH  11  12
ENDBRANCH   9  11
ENDBRANCH   7   9
ENDBRANCH   5   7
ENDBRANCH   3   5
BRANCH   3  20
HETATM   20  C   UNL     1      -9.796   9.979  65.777  1.00  0.00    -0.278 C  
HETATM   21  O   UNL     1      -8.996   9.554  64.944  1.00  0.00    -0.197 OA 
HETATM   22  N   UNL     1      -9.696   9.657  67.116  1.00  0.00    -0.166 N  
HETATM   23  H   UNL     1     -10.454   9.923  67.744  1.00  0.00     0.000 HD 
BRANCH  22  24
HETATM   24  C   UNL     1      -8.543   8.947  67.664  1.00  0.00    -0.124 C  
BRANCH  24  25
HETATM   25  C   UNL     1      -8.440   7.478  67.206  1.00  0.00    -0.118 C  
BRANCH  25  26
HETATM   26  C   UNL     1      -9.563   6.500  67.581  1.00  0.00    -0.122 C  
HETATM   27  H   UNL     1     -11.480   6.641  67.909  1.00  0.00     0.000 HD 
HETATM   28  O   UNL     1     -10.785   7.246  67.676  1.00  0.00    -0.237 OA 
BRANCH  26  29
HETATM   29  C   UNL     1      -9.357   5.666  68.882  1.00  0.00    -0.120 C  
BRANCH  29  30
HETATM   30  N   UNL     1      -8.189   6.087  69.656  1.00  0.00    -0.113 N  
HETATM   31  C   UNL     1      -7.061   5.313  69.710  1.00  0.00    -0.059 C  
HETATM   32  H   UNL     1      -8.215   6.972  70.163  1.00  0.00     0.000 HD 
HETATM   33  O   UNL     1      -6.730   4.527  68.845  1.00  0.00    -0.044 OA 
BRANCH  31  34
HETATM   34  O   UNL     1      -6.412   5.515  70.876  1.00  0.00    -0.033 OA 
BRANCH  34  35
HETATM   35  C   UNL     1      -5.947   6.859  71.118  1.00  0.00    -0.036 C  
BRANCH  35  36
HETATM   36  C   UNL     1      -6.443   7.383  72.425  1.00  0.00    -0.051 A  
HETATM   37  N   UNL     1      -6.725   8.815  74.259  1.00  0.00    -0.320 NA 
HETATM   38  C   UNL     1      -6.086   8.557  73.063  1.00  0.00    -0.087 A  
HETATM   39  C   UNL     1      -7.556   7.831  74.523  1.00  0.00    -0.182 A  
HETATM   40  S   UNL     1      -7.659   6.593  73.340  1.00  0.00    -0.090 SA 
ENDBRANCH  35  36
ENDBRANCH  34  35
ENDBRANCH  31  34
ENDBRANCH  29  30
BRANCH  29  41
HETATM   41  C   UNL     1     -10.641   5.614  69.774  1.00  0.00    -0.400 C  
BRANCH  41  42
HETATM   42  C   UNL     1     -10.527   4.915  71.113  1.00  0.00    -0.161 A  
HETATM   43  C   UNL     1     -11.097   4.761  73.478  1.00  0.00    -0.412 A  
HETATM   44  C   UNL     1     -11.067   5.467  72.281  1.00  0.00    -0.297 A  
HETATM   45  C   UNL     1      -9.904   3.668  71.210  1.00  0.00    -0.211 A  
HETATM   46  C   UNL     1      -9.908   2.960  72.419  1.00  0.00    -0.228 A  
HETATM   47  C   UNL     1     -10.522   3.501  73.549  1.00  0.00    -0.263 A  
ENDBRANCH  41  42
ENDBRANCH  29  41
ENDBRANCH  26  29
ENDBRANCH  25  26
ENDBRANCH  24  25
BRANCH  24  48
HETATM   48  C   UNL     1      -8.508   9.132  69.195  1.00  0.00    -0.132 C  
BRANCH  48  49
HETATM   49  C   UNL     1      -9.799   9.592  69.828  1.00  0.00    -0.253 A  
HETATM   50  C   UNL     1     -11.612   9.228  71.405  1.00  0.00    -0.437 A  
HETATM   51  C   UNL     1     -10.406   8.826  70.832  1.00  0.00    -0.281 A  
HETATM   52  C   UNL     1     -12.231  10.399  70.975  1.00  0.00    -0.498 A  
HETATM   53  C   UNL     1     -11.643  11.169  69.973  1.00  0.00    -0.421 A  
HETATM   54  C   UNL     1     -10.437  10.765  69.395  1.00  0.00    -0.229 A  
ENDBRANCH  48  49
ENDBRANCH  24  48
ENDBRANCH  22  24
ENDBRANCH   3  20
TORSDOF 18
ENDMDL
MODEL       59
REMARK 921   NORMALIZED FREE ENERGY PREDICTED BY IDOCK:   -4.40 KCAL/MOL
REMARK 922        TOTAL FREE ENERGY PREDICTED BY IDOCK:  -13.64 KCAL/MOL
REMARK 923 INTER-LIGAND FREE ENERGY PREDICTED BY IDOCK:  -12.11 KCAL/MOL
REMARK 924 INTRA-LIGAND FREE ENERGY PREDICTED BY IDOCK:   -1.53 KCAL/MOL
REMARK 927      BINDING AFFINITY PREDICTED BY RF-SCORE:    0.00 PKD
ROOT
HETATM    1  C   UNL     1      -9.458  14.575  68.861  1.00  0.00    -0.144 C  
HETATM    2  C   UNL     1      -8.932  13.278  68.259  1.00  0.00    -0.176 C  
HETATM    3  C   UNL     1      -9.970  12.473  67.439  1.00  0.00    -0.207 C  
HETATM    4  C   UNL     1      -7.641  13.567  67.483  1.00  0.00    -0.176 C  
ENDROOT
BRANCH   3   5
HETATM    5  N   UNL     1     -10.508  13.122  66.232  1.00  0.00    -0.280 N  
HETATM    6  H   UNL     1     -10.349  12.675  65.329  1.00  0.00     0.000 HD 
BRANCH   5   7
HETATM    7  C   UNL     1     -11.210  14.296  66.263  1.00  0.00    -0.337 C  
HETATM    8  O   UNL     1     -12.274  14.396  66.869  1.00  0.00    -0.415 OA 
BRANCH   7   9
HETATM    9  N   UNL     1     -10.705  15.341  65.516  1.00  0.00    -0.347 N  
HETATM   10  C   UNL     1     -11.452  16.419  64.888  1.00  0.00     0.030 C  
BRANCH   9  11
HETATM   11  C   UNL     1      -9.245  15.417  65.366  1.00  0.00     0.393 C  
BRANCH  11  12
HETATM   12  C   UNL     1      -8.675  16.611  66.085  1.00  0.00    -0.287 A  
HETATM   13  C   UNL     1      -7.343  16.986  66.110  1.00  0.00    -0.190 A  
HETATM   14  N   UNL     1      -9.528  17.501  66.746  1.00  0.00    -0.266 NA 
HETATM   15  S   UNL     1      -7.148  18.457  66.956  1.00  0.00    -0.196 SA 
HETATM   16  C   UNL     1     -10.086  19.281  69.268  1.00  0.00    -0.197 C  
HETATM   17  C   UNL     1      -8.847  18.522  67.227  1.00  0.00    -0.270 A  
HETATM   18  C   UNL     1      -9.452  19.707  67.946  1.00  0.00    -0.444 C  
HETATM   19  C   UNL     1     -10.482  20.409  67.058  1.00  0.00    -0.190 C  
ENDBRANCH  11  12
ENDBRANCH   9  11
ENDBRANCH   7   9
ENDBRANCH   5   7
ENDBRANCH   3   5
BRANCH   3  20
HETATM   20  C   UNL     1     -11.044  11.795  68.347  1.00  0.00    -0.237 C  
HETATM   21  O   UNL     1     -12.143  11.423  67.939  1.00  0.00    -0.646 OA 
HETATM   22  N   UNL     1     -10.684  11.689  69.676  1.00  0.00    -0.447 N  
HETATM   23  H   UNL     1      -9.819  12.129  69.988  1.00  0.00     0.000 HD 
BRANCH  22  24
HETATM   24  C   UNL     1     -11.500  10.970  70.650  1.00  0.00    -0.034 C  
BRANCH  24  25
HETATM   25  C   UNL     1     -11.523   9.442  70.436  1.00  0.00    -0.272 C  
BRANCH  25  26
HETATM   26  C   UNL     1     -10.285   8.618  70.818  1.00  0.00    -0.204 C  
HETATM   27  H   UNL     1      -8.647   8.949  71.822  1.00  0.00     0.000 HD 
HETATM   28  O   UNL     1      -9.413   9.459  71.586  1.00  0.00    -0.262 OA 
BRANCH  26  29
HETATM   29  C   UNL     1      -9.487   7.971  69.644  1.00  0.00    -0.163 C  
BRANCH  29  30
HETATM   30  N   UNL     1      -9.417   6.512  69.731  1.00  0.00    -0.150 N  
HETATM   31  C   UNL     1     -10.499   5.775  70.130  1.00  0.00    -0.278 C  
HETATM   32  H   UNL     1      -8.547   6.037  69.491  1.00  0.00     0.000 HD 
HETATM   33  O   UNL     1     -11.654   6.132  70.001  1.00  0.00    -0.392 OA 
BRANCH  31  34
HETATM   34  O   UNL     1     -10.094   4.634  70.725  1.00  0.00    -0.224 OA 
BRANCH  34  35
HETATM   35  C   UNL     1     -10.408   4.505  72.127  1.00  0.00    -0.162 C  
BRANCH  35  36
HETATM   36  C   UNL     1      -9.659   5.500  72.950  1.00  0.00    -0.147 A  
HETATM   37  N   UNL     1      -9.246   7.329  74.356  1.00  0.00    -0.188 NA 
HETATM   38  C   UNL     1     -10.165   6.582  73.648  1.00  0.00    -0.286 A  
HETATM   39  C   UNL     1      -8.049   6.814  74.182  1.00  0.00    -0.121 A  
HETATM   40  S   UNL     1      -7.970   5.392  73.225  1.00  0.00    -0.111 SA 
ENDBRANCH  35  36
ENDBRANCH  34  35
ENDBRANCH  31  34
ENDBRANCH  29  30
BRANCH  29  41
HETATM   41  C   UNL     1     -10.001   8.433  68.240  1.00  0.00    -0.214 C  
BRANCH  41  42
HETATM   42  C   UNL     1      -8.958   8.712  67.178  1.00  0.00    -0.148 A  
HETATM   43  C   UNL     1      -8.124   8.439  64.903  1.00  0.00    -0.149 A  
HETATM   44  C   UNL     1      -8.987   8.075  65.931  1.00  0.00    -0.181 A  
HETATM   45  C   UNL     1      -7.951   9.654  67.406  1.00  0.00    -0.106 A  
HETATM   46  C   UNL     1      -7.062  10.008  66.382  1.00  0.00    -0.102 A  
HETATM   47  C   UNL     1      -7.162   9.412  65.125  1.00  0.00    -0.101 A  
ENDBRANCH  41  42
ENDBRANCH  29  41
ENDBRANCH  26  29
ENDBRANCH  25  26
ENDBRANCH  24  25
BRANCH  24  48
HETATM   48  C   UNL     1     -12.900  11.614  70.722  1.00  0.00    -0.197 C  
BRANCH  48  49
HETATM   49  C   UNL     1     -12.937  13.046  71.200  1.00  0.00    -0.265 A  
HETATM   50  C   UNL     1     -13.395  14.664  72.954  1.00  0.00    -0.585 A  
HETATM   51  C   UNL     1     -13.332  13.343  72.511  1.00  0.00    -0.588 A  
HETATM   52  C   UNL     1     -13.071  15.705  72.089  1.00  0.00    -0.540 A  
HETATM   53  C   UNL     1     -12.682  15.426  70.780  1.00  0.00    -0.516 A  
HETATM   54  C   UNL     1     -12.623  14.105  70.333  1.00  0.00    -0.397 A  
ENDBRANCH  48  49
ENDBRANCH  24  48
ENDBRANCH  22  24
ENDBRANCH   3  20
TORSDOF 18
ENDMDL
MODEL       60
REMARK 921   NORMALIZED FREE ENERGY PREDICTED BY IDOCK:   -4.39 KCAL/MOL
REMARK 922        TOTAL FREE ENERGY PREDICTED BY IDOCK:  -13.63 KCAL/MOL
REMARK 923 INTER-LIGAND FREE ENERGY PREDICTED BY IDOCK:  -11.53 KCAL/MOL
REMARK 924 INTRA-LIGAND FREE ENERGY PREDICTED BY IDOCK:   -2.10 KCAL/MOL
REMARK 927      BINDING AFFINITY PREDICTED BY RF-SCORE:    0.00 PKD
ROOT
HETATM    1  C   UNL     1      -5.630   6.872  65.631  1.00  0.00    -0.031 C  
HETATM    2  C   UNL     1      -7.152   6.955  65.651  1.00  0.00    -0.068 C  
HETATM    3  C   UNL     1      -7.722   8.337  66.054  1.00  0.00    -0.093 C  
HETATM    4  C   UNL     1      -7.704   6.440  64.315  1.00  0.00    -0.108 C  
ENDROOT
BRANCH   3   5
HETATM    5  N   UNL     1      -7.409   9.468  65.166  1.00  0.00    -0.105 N  
HETATM    6  H   UNL     1      -6.537   9.975  65.316  1.00  0.00     0.000 HD 
BRANCH   5   7
HETATM    7  C   UNL     1      -8.231   9.872  64.150  1.00  0.00    -0.159 C  
HETATM    8  O   UNL     1      -7.932   9.700  62.971  1.00  0.00    -0.123 OA 
BRANCH   7   9
HETATM    9  N   UNL     1      -9.376  10.552  64.512  1.00  0.00    -0.230 N  
HETATM   10  C   UNL     1     -10.103  10.451  65.768  1.00  0.00    -0.262 C  
BRANCH   9  11
HETATM   11  C   UNL     1      -9.911  11.527  63.553  1.00  0.00    -0.399 C  
BRANCH  11  12
HETATM   12  C   UNL     1     -10.796  12.542  64.227  1.00  0.00    -0.364 A  
HETATM   13  C   UNL     1     -12.177  12.496  64.300  1.00  0.00    -0.452 A  
HETATM   14  N   UNL     1     -10.225  13.614  64.921  1.00  0.00    -0.366 NA 
HETATM   15  S   UNL     1     -12.773  13.790  65.243  1.00  0.00    -0.371 SA 
HETATM   16  C   UNL     1     -10.280  16.673  65.612  1.00  0.00    -0.285 C  
HETATM   17  C   UNL     1     -11.160  14.329  65.515  1.00  0.00    -0.323 A  
HETATM   18  C   UNL     1     -10.903  15.526  66.403  1.00  0.00    -0.277 C  
HETATM   19  C   UNL     1     -10.009  15.140  67.583  1.00  0.00    -0.229 C  
ENDBRANCH  11  12
ENDBRANCH   9  11
ENDBRANCH   7   9
ENDBRANCH   5   7
ENDBRANCH   3   5
BRANCH   3  20
HETATM   20  C   UNL     1      -7.535   8.631  67.576  1.00  0.00    -0.090 C  
HETATM   21  O   UNL     1      -6.887   9.583  68.010  1.00  0.00    -0.072 OA 
HETATM   22  N   UNL     1      -8.114   7.699  68.414  1.00  0.00    -0.123 N  
HETATM   23  H   UNL     1      -8.526   6.860  68.007  1.00  0.00     0.000 HD 
BRANCH  22  24
HETATM   24  C   UNL     1      -8.156   7.873  69.864  1.00  0.00    -0.118 C  
BRANCH  24  25
HETATM   25  C   UNL     1      -8.806   9.197  70.313  1.00  0.00    -0.238 C  
BRANCH  25  26
HETATM   26  C   UNL     1      -9.830   9.175  71.457  1.00  0.00    -0.265 C  
HETATM   27  H   UNL     1      -9.782   8.755  73.360  1.00  0.00     0.000 HD 
HETATM   28  O   UNL     1      -9.148   8.769  72.653  1.00  0.00    -0.354 OA 
BRANCH  26  29
HETATM   29  C   UNL     1     -11.092   8.283  71.247  1.00  0.00    -0.251 C  
BRANCH  29  30
HETATM   30  N   UNL     1     -12.305   9.057  70.983  1.00  0.00    -0.448 N  
HETATM   31  C   UNL     1     -12.267  10.190  70.216  1.00  0.00    -0.173 C  
HETATM   32  H   UNL     1     -13.194   8.747  71.377  1.00  0.00     0.000 HD 
HETATM   33  O   UNL     1     -11.438  10.405  69.354  1.00  0.00    -0.243 OA 
BRANCH  31  34
HETATM   34  O   UNL     1     -13.245  11.042  70.592  1.00  0.00    -0.117 OA 
BRANCH  34  35
HETATM   35  C   UNL     1     -13.026  11.751  71.829  1.00  0.00    -0.361 C  
BRANCH  35  36
HETATM   36  C   UNL     1     -13.275  13.215  71.672  1.00  0.00    -0.346 A  
HETATM   37  N   UNL     1     -14.230  15.332  71.987  1.00  0.00    -0.548 NA 
HETATM   38  C   UNL     1     -14.240  13.986  72.294  1.00  0.00    -0.504 A  
HETATM   39  C   UNL     1     -13.263  15.569  71.129  1.00  0.00    -0.507 A  
HETATM   40  S   UNL     1     -12.290  14.223  70.697  1.00  0.00    -0.382 SA 
ENDBRANCH  35  36
ENDBRANCH  34  35
ENDBRANCH  31  34
ENDBRANCH  29  30
BRANCH  29  41
HETATM   41  C   UNL     1     -10.875   7.178  70.160  1.00  0.00    -0.279 C  
BRANCH  41  42
HETATM   42  C   UNL     1     -10.521   5.788  70.647  1.00  0.00    -0.331 A  
HETATM   43  C   UNL     1      -9.586   3.574  70.239  1.00  0.00    -0.232 A  
HETATM   44  C   UNL     1     -10.054   4.798  69.774  1.00  0.00    -0.289 A  
HETATM   45  C   UNL     1     -10.616   5.468  72.005  1.00  0.00    -0.284 A  
HETATM   46  C   UNL     1     -10.169   4.227  72.477  1.00  0.00    -0.238 A  
HETATM   47  C   UNL     1      -9.637   3.287  71.595  1.00  0.00    -0.230 A  
ENDBRANCH  41  42
ENDBRANCH  29  41
ENDBRANCH  26  29
ENDBRANCH  25  26
ENDBRANCH  24  25
BRANCH  24  48
HETATM   48  C   UNL     1      -6.749   7.633  70.449  1.00  0.00    -0.042 C  
BRANCH  48  49
HETATM   49  C   UNL     1      -6.521   6.276  71.071  1.00  0.00    -0.049 A  
HETATM   50  C   UNL     1      -6.577   4.820  73.016  1.00  0.00    -0.056 A  
HETATM   51  C   UNL     1      -6.808   6.062  72.425  1.00  0.00    -0.074 A  
HETATM   52  C   UNL     1      -6.047   3.778  72.260  1.00  0.00    -0.009 A  
HETATM   53  C   UNL     1      -5.751   3.976  70.913  1.00  0.00    -0.013 A  
HETATM   54  C   UNL     1      -5.978   5.221  70.322  1.00  0.00    -0.018 A  
ENDBRANCH  48  49
ENDBRANCH  24  48
ENDBRANCH  22  24
ENDBRANCH   3  20
TORSDOF 18
ENDMDL
MODEL       61
REMARK 921   NORMALIZED FREE ENERGY PREDICTED BY IDOCK:   -4.36 KCAL/MOL
REMARK 922        TOTAL FREE ENERGY PREDICTED BY IDOCK:  -13.56 KCAL/MOL
REMARK 923 INTER-LIGAND FREE ENERGY PREDICTED BY IDOCK:  -11.62 KCAL/MOL
REMARK 924 INTRA-LIGAND FREE ENERGY PREDICTED BY IDOCK:   -1.94 KCAL/MOL
REMARK 927      BINDING AFFINITY PREDICTED BY RF-SCORE:    0.00 PKD
ROOT
HETATM    1  C   UNL     1     -10.527  12.613  63.926  1.00  0.00    -0.441 C  
HETATM    2  C   UNL     1     -11.507  12.269  65.041  1.00  0.00    -0.386 C  
HETATM    3  C   UNL     1     -11.131  12.831  66.434  1.00  0.00    -0.285 C  
HETATM    4  C   UNL     1     -12.927  12.644  64.601  1.00  0.00    -0.225 C  
ENDROOT
BRANCH   3   5
HETATM    5  N   UNL     1     -11.087  14.297  66.567  1.00  0.00    -0.316 N  
HETATM    6  H   UNL     1     -11.889  14.837  66.243  1.00  0.00     0.000 HD 
BRANCH   5   7
HETATM    7  C   UNL     1     -10.024  14.968  67.105  1.00  0.00    -0.237 C  
HETATM    8  O   UNL     1      -8.935  15.014  66.538  1.00  0.00    -0.269 OA 
BRANCH   7   9
HETATM    9  N   UNL     1     -10.210  15.527  68.353  1.00  0.00    -0.213 N  
HETATM   10  C   UNL     1     -11.374  15.393  69.216  1.00  0.00    -0.315 C  
BRANCH   9  11
HETATM   11  C   UNL     1      -9.101  16.311  68.912  1.00  0.00    -0.250 C  
BRANCH  11  12
HETATM   12  C   UNL     1      -9.134  17.738  68.432  1.00  0.00    -0.278 A  
HETATM   13  C   UNL     1     -10.257  18.541  68.342  1.00  0.00    -0.372 A  
HETATM   14  N   UNL     1      -7.942  18.390  68.099  1.00  0.00    -0.279 NA 
HETATM   15  S   UNL     1      -9.831  20.120  67.847  1.00  0.00    -0.355 SA 
HETATM   16  C   UNL     1      -6.407  20.304  66.144  1.00  0.00    -0.237 C  
HETATM   17  C   UNL     1      -8.174  19.652  67.796  1.00  0.00    -0.302 A  
HETATM   18  C   UNL     1      -7.113  20.671  67.447  1.00  0.00    -0.399 C  
HETATM   19  C   UNL     1      -6.100  20.806  68.586  1.00  0.00    -0.351 C  
ENDBRANCH  11  12
ENDBRANCH   9  11
ENDBRANCH   7   9
ENDBRANCH   5   7
ENDBRANCH   3   5
BRANCH   3  20
HETATM   20  C   UNL     1      -9.914  12.083  67.065  1.00  0.00    -0.204 C  
HETATM   21  O   UNL     1      -9.741  11.968  68.277  1.00  0.00    -0.197 OA 
HETATM   22  N   UNL     1      -9.002  11.599  66.147  1.00  0.00    -0.280 N  
HETATM   23  H   UNL     1      -9.124  11.834  65.162  1.00  0.00     0.000 HD 
BRANCH  22  24
HETATM   24  C   UNL     1      -7.871  10.763  66.539  1.00  0.00    -0.145 C  
BRANCH  24  25
HETATM   25  C   UNL     1      -8.168   9.833  67.733  1.00  0.00    -0.114 C  
BRANCH  25  26
HETATM   26  C   UNL     1      -8.986   8.555  67.497  1.00  0.00    -0.135 C  
HETATM   27  H   UNL     1     -10.392   8.010  66.261  1.00  0.00     0.000 HD 
HETATM   28  O   UNL     1      -9.886   8.801  66.407  1.00  0.00    -0.249 OA 
BRANCH  26  29
HETATM   29  C   UNL     1      -9.782   8.000  68.717  1.00  0.00    -0.156 C  
BRANCH  29  30
HETATM   30  N   UNL     1     -10.440   9.048  69.499  1.00  0.00    -0.216 N  
HETATM   31  C   UNL     1      -9.962   9.418  70.727  1.00  0.00    -0.289 C  
HETATM   32  H   UNL     1     -11.268   9.509  69.123  1.00  0.00     0.000 HD 
HETATM   33  O   UNL     1      -8.802   9.304  71.072  1.00  0.00    -0.218 OA 
BRANCH  31  34
HETATM   34  O   UNL     1     -10.968   9.875  71.502  1.00  0.00    -0.226 OA 
BRANCH  34  35
HETATM   35  C   UNL     1     -12.068   8.965  71.712  1.00  0.00    -0.362 C  
BRANCH  35  36
HETATM   36  C   UNL     1     -11.602   7.664  72.276  1.00  0.00    -0.322 A  
HETATM   37  N   UNL     1     -11.287   5.353  72.513  1.00  0.00    -0.253 NA 
HETATM   38  C   UNL     1     -11.875   6.389  71.815  1.00  0.00    -0.321 A  
HETATM   39  C   UNL     1     -10.580   5.850  73.503  1.00  0.00    -0.268 A  
HETATM   40  S   UNL     1     -10.533   7.562  73.612  1.00  0.00    -0.051 SA 
ENDBRANCH  35  36
ENDBRANCH  34  35
ENDBRANCH  31  34
ENDBRANCH  29  30
BRANCH  29  41
HETATM   41  C   UNL     1     -10.790   6.872  68.317  1.00  0.00    -0.244 C  
BRANCH  41  42
HETATM   42  C   UNL     1     -10.207   5.528  67.931  1.00  0.00    -0.231 A  
HETATM   43  C   UNL     1      -9.603   3.891  66.228  1.00  0.00    -0.198 A  
HETATM   44  C   UNL     1     -10.267   5.050  66.616  1.00  0.00    -0.299 A  
HETATM   45  C   UNL     1      -9.553   4.740  68.882  1.00  0.00    -0.229 A  
HETATM   46  C   UNL     1      -8.902   3.559  68.503  1.00  0.00    -0.160 A  
HETATM   47  C   UNL     1      -8.912   3.145  67.171  1.00  0.00    -0.181 A  
ENDBRANCH  41  42
ENDBRANCH  29  41
ENDBRANCH  26  29
ENDBRANCH  25  26
ENDBRANCH  24  25
BRANCH  24  48
HETATM   48  C   UNL     1      -6.621  11.647  66.728  1.00  0.00    -0.094 C  
BRANCH  48  49
HETATM   49  C   UNL     1      -6.222  11.918  68.158  1.00  0.00    -0.051 A  
HETATM   50  C   UNL     1      -5.200  11.169  70.232  1.00  0.00    -0.072 A  
HETATM   51  C   UNL     1      -5.550  10.939  68.902  1.00  0.00    -0.040 A  
HETATM   52  C   UNL     1      -5.526  12.379  70.839  1.00  0.00    -0.147 A  
HETATM   53  C   UNL     1      -6.199  13.361  70.114  1.00  0.00    -0.061 A  
HETATM   54  C   UNL     1      -6.554  13.131  68.784  1.00  0.00    -0.096 A  
ENDBRANCH  48  49
ENDBRANCH  24  48
ENDBRANCH  22  24
ENDBRANCH   3  20
TORSDOF 18
ENDMDL
MODEL       62
REMARK 921   NORMALIZED FREE ENERGY PREDICTED BY IDOCK:   -4.34 KCAL/MOL
REMARK 922        TOTAL FREE ENERGY PREDICTED BY IDOCK:  -13.51 KCAL/MOL
REMARK 923 INTER-LIGAND FREE ENERGY PREDICTED BY IDOCK:   -9.60 KCAL/MOL
REMARK 924 INTRA-LIGAND FREE ENERGY PREDICTED BY IDOCK:   -3.92 KCAL/MOL
REMARK 927      BINDING AFFINITY PREDICTED BY RF-SCORE:    0.00 PKD
ROOT
HETATM    1  C   UNL     1      -9.500   6.744  66.345  1.00  0.00    -0.166 C  
HETATM    2  C   UNL     1      -9.249   5.700  67.426  1.00  0.00    -0.109 C  
HETATM    3  C   UNL     1      -9.494   6.191  68.874  1.00  0.00    -0.123 C  
HETATM    4  C   UNL     1     -10.022   4.420  67.083  1.00  0.00    -0.182 C  
ENDROOT
BRANCH   3   5
HETATM    5  N   UNL     1     -10.869   6.594  69.213  1.00  0.00    -0.265 N  
HETATM    6  H   UNL     1     -11.621   5.921  69.069  1.00  0.00     0.000 HD 
BRANCH   5   7
HETATM    7  C   UNL     1     -11.186   7.827  69.713  1.00  0.00    -0.007 C  
HETATM    8  O   UNL     1     -10.744   8.859  69.213  1.00  0.00    -0.224 OA 
BRANCH   7   9
HETATM    9  N   UNL     1     -11.963   7.854  70.853  1.00  0.00    -0.246 N  
HETATM   10  C   UNL     1     -12.852   8.919  71.290  1.00  0.00    -0.229 C  
BRANCH   9  11
HETATM   11  C   UNL     1     -11.942   6.661  71.710  1.00  0.00    -0.345 C  
BRANCH  11  12
HETATM   12  C   UNL     1     -10.698   6.610  72.557  1.00  0.00    -0.229 A  
HETATM   13  C   UNL     1     -10.201   7.639  73.337  1.00  0.00    -0.315 A  
HETATM   14  N   UNL     1      -9.973   5.418  72.662  1.00  0.00    -0.162 NA 
HETATM   15  S   UNL     1      -8.828   7.123  74.213  1.00  0.00    -0.209 SA 
HETATM   16  C   UNL     1      -7.177   3.997  72.743  1.00  0.00    -0.066 C  
HETATM   17  C   UNL     1      -8.980   5.554  73.518  1.00  0.00    -0.125 A  
HETATM   18  C   UNL     1      -8.028   4.453  73.926  1.00  0.00    -0.093 C  
HETATM   19  C   UNL     1      -8.795   3.271  74.523  1.00  0.00    -0.094 C  
ENDBRANCH  11  12
ENDBRANCH   9  11
ENDBRANCH   7   9
ENDBRANCH   5   7
ENDBRANCH   3   5
BRANCH   3  20
HETATM   20  C   UNL     1      -8.387   7.179  69.359  1.00  0.00    -0.133 C  
HETATM   21  O   UNL     1      -8.012   7.260  70.527  1.00  0.00    -0.101 OA 
HETATM   22  N   UNL     1      -7.889   8.008  68.372  1.00  0.00    -0.120 N  
HETATM   23  H   UNL     1      -8.324   7.992  67.450  1.00  0.00     0.000 HD 
BRANCH  22  24
HETATM   24  C   UNL     1      -6.761   8.906  68.604  1.00  0.00    -0.059 C  
BRANCH  24  25
HETATM   25  C   UNL     1      -6.942  10.306  67.981  1.00  0.00    -0.082 C  
BRANCH  25  26
HETATM   26  C   UNL     1      -8.208  10.602  67.166  1.00  0.00    -0.121 C  
HETATM   27  H   UNL     1      -8.667  10.638  65.271  1.00  0.00     0.000 HD 
HETATM   28  O   UNL     1      -7.884  10.454  65.776  1.00  0.00    -0.140 OA 
BRANCH  26  29
HETATM   29  C   UNL     1      -8.882  11.988  67.401  1.00  0.00    -0.178 C  
BRANCH  29  30
HETATM   30  N   UNL     1     -10.119  11.901  68.178  1.00  0.00    -0.192 N  
HETATM   31  C   UNL     1     -11.321  12.265  67.635  1.00  0.00    -0.311 C  
HETATM   32  H   UNL     1     -10.085  11.563  69.140  1.00  0.00     0.000 HD 
HETATM   33  O   UNL     1     -11.571  12.238  66.446  1.00  0.00    -0.366 OA 
BRANCH  31  34
HETATM   34  O   UNL     1     -12.157  12.703  68.600  1.00  0.00    -0.269 OA 
BRANCH  34  35
HETATM   35  C   UNL     1     -11.942  12.158  69.918  1.00  0.00    -0.309 C  
BRANCH  35  36
HETATM   36  C   UNL     1     -12.479  13.061  70.979  1.00  0.00    -0.296 A  
HETATM   37  N   UNL     1     -13.661  13.775  72.873  1.00  0.00    -0.632 NA 
HETATM   38  C   UNL     1     -13.347  12.746  72.008  1.00  0.00    -0.466 A  
HETATM   39  C   UNL     1     -13.035  14.865  72.488  1.00  0.00    -0.383 A  
HETATM   40  S   UNL     1     -12.005  14.703  71.125  1.00  0.00    -0.339 SA 
ENDBRANCH  35  36
ENDBRANCH  34  35
ENDBRANCH  31  34
ENDBRANCH  29  30
BRANCH  29  41
HETATM   41  C   UNL     1      -7.899  13.040  68.013  1.00  0.00    -0.146 C  
BRANCH  41  42
HETATM   42  C   UNL     1      -7.926  14.437  67.426  1.00  0.00    -0.220 A  
HETATM   43  C   UNL     1      -6.803  16.534  66.895  1.00  0.00    -0.248 A  
HETATM   44  C   UNL     1      -6.842  15.313  67.559  1.00  0.00    -0.218 A  
HETATM   45  C   UNL     1      -9.034  14.875  66.695  1.00  0.00    -0.301 A  
HETATM   46  C   UNL     1      -9.011  16.116  66.044  1.00  0.00    -0.334 A  
HETATM   47  C   UNL     1      -7.887  16.936  66.130  1.00  0.00    -0.277 A  
ENDBRANCH  41  42
ENDBRANCH  29  41
ENDBRANCH  26  29
ENDBRANCH  25  26
ENDBRANCH  24  25
BRANCH  24  48
HETATM   48  C   UNL     1      -5.452   8.201  68.194  1.00  0.00    -0.034 C  
BRANCH  48  49
HETATM   49  C   UNL     1      -5.583   7.158  67.109  1.00  0.00    -0.022 A  
HETATM   50  C   UNL     1      -5.964   6.589  64.778  1.00  0.00    -0.034 A  
HETATM   51  C   UNL     1      -5.816   7.544  65.783  1.00  0.00    -0.037 A  
HETATM   52  C   UNL     1      -5.889   5.234  65.088  1.00  0.00    -0.017 A  
HETATM   53  C   UNL     1      -5.664   4.834  66.404  1.00  0.00    -0.018 A  
HETATM   54  C   UNL     1      -5.519   5.789  67.412  1.00  0.00    -0.008 A  
ENDBRANCH  48  49
ENDBRANCH  24  48
ENDBRANCH  22  24
ENDBRANCH   3  20
TORSDOF 18
ENDMDL
MODEL       63
REMARK 921   NORMALIZED FREE ENERGY PREDICTED BY IDOCK:   -4.31 KCAL/MOL
REMARK 922        TOTAL FREE ENERGY PREDICTED BY IDOCK:  -13.46 KCAL/MOL
REMARK 923 INTER-LIGAND FREE ENERGY PREDICTED BY IDOCK:  -10.10 KCAL/MOL
REMARK 924 INTRA-LIGAND FREE ENERGY PREDICTED BY IDOCK:   -3.36 KCAL/MOL
REMARK 927      BINDING AFFINITY PREDICTED BY RF-SCORE:    0.00 PKD
ROOT
HETATM    1  C   UNL     1     -13.022  10.903  70.108  1.00  0.00    -0.032 C  
HETATM    2  C   UNL     1     -11.971  11.996  70.268  1.00  0.00    -0.398 C  
HETATM    3  C   UNL     1     -11.222  12.372  68.966  1.00  0.00    -0.266 C  
HETATM    4  C   UNL     1     -12.600  13.203  70.973  1.00  0.00    -0.397 C  
ENDROOT
BRANCH   3   5
HETATM    5  N   UNL     1     -12.031  12.943  67.877  1.00  0.00    -0.332 N  
HETATM    6  H   UNL     1     -12.750  12.360  67.449  1.00  0.00     0.000 HD 
BRANCH   5   7
HETATM    7  C   UNL     1     -11.864  14.218  67.410  1.00  0.00    -0.409 C  
HETATM    8  O   UNL     1     -12.147  15.198  68.096  1.00  0.00    -0.205 OA 
BRANCH   7   9
HETATM    9  N   UNL     1     -11.437  14.350  66.105  1.00  0.00    -0.351 N  
HETATM   10  C   UNL     1     -12.262  14.481  64.914  1.00  0.00    -0.402 C  
BRANCH   9  11
HETATM   11  C   UNL     1      -9.987  14.416  65.875  1.00  0.00    -0.328 C  
BRANCH  11  12
HETATM   12  C   UNL     1      -9.332  15.449  66.754  1.00  0.00    -0.246 A  
HETATM   13  C   UNL     1      -8.313  15.218  67.661  1.00  0.00    -0.164 A  
HETATM   14  N   UNL     1      -9.695  16.795  66.639  1.00  0.00    -0.256 NA 
HETATM   15  S   UNL     1      -7.796  16.682  68.372  1.00  0.00    -0.213 SA 
HETATM   16  C   UNL     1     -10.363  19.507  68.066  1.00  0.00    -0.564 C  
HETATM   17  C   UNL     1      -8.945  17.544  67.421  1.00  0.00    -0.230 A  
HETATM   18  C   UNL     1      -9.016  19.052  67.507  1.00  0.00    -0.322 C  
HETATM   19  C   UNL     1      -8.763  19.683  66.137  1.00  0.00    -0.361 C  
ENDBRANCH  11  12
ENDBRANCH   9  11
ENDBRANCH   7   9
ENDBRANCH   5   7
ENDBRANCH   3   5
BRANCH   3  20
HETATM   20  C   UNL     1     -10.219  11.262  68.520  1.00  0.00    -0.205 C  
HETATM   21  O   UNL     1     -10.552  10.256  67.894  1.00  0.00    -0.203 OA 
HETATM   22  N   UNL     1      -8.917  11.468  68.933  1.00  0.00    -0.381 N  
HETATM   23  H   UNL     1      -8.717  12.247  69.559  1.00  0.00     0.000 HD 
BRANCH  22  24
HETATM   24  C   UNL     1      -7.817  10.608  68.503  1.00  0.00    -0.115 C  
BRANCH  24  25
HETATM   25  C   UNL     1      -6.685  10.478  69.543  1.00  0.00    -0.089 C  
BRANCH  25  26
HETATM   26  C   UNL     1      -6.356   9.093  70.118  1.00  0.00    -0.044 C  
HETATM   27  H   UNL     1      -5.273   7.573  69.554  1.00  0.00     0.000 HD 
HETATM   28  O   UNL     1      -5.476   8.430  69.198  1.00  0.00    -0.030 OA 
BRANCH  26  29
HETATM   29  C   UNL     1      -7.566   8.166  70.443  1.00  0.00    -0.076 C  
BRANCH  29  30
HETATM   30  N   UNL     1      -7.167   6.871  70.994  1.00  0.00    -0.075 N  
HETATM   31  C   UNL     1      -6.448   6.789  72.156  1.00  0.00    -0.053 C  
HETATM   32  H   UNL     1      -7.430   6.015  70.505  1.00  0.00     0.000 HD 
HETATM   33  O   UNL     1      -6.468   7.629  73.033  1.00  0.00    -0.059 OA 
BRANCH  31  34
HETATM   34  O   UNL     1      -5.684   5.676  72.154  1.00  0.00    -0.020 OA 
BRANCH  34  35
HETATM   35  C   UNL     1      -6.098   4.625  71.257  1.00  0.00    -0.018 C  
BRANCH  35  36
HETATM   36  C   UNL     1      -7.098   3.720  71.898  1.00  0.00    -0.045 A  
HETATM   37  N   UNL     1      -8.231   2.515  73.557  1.00  0.00    -0.062 NA 
HETATM   38  C   UNL     1      -7.181   3.347  73.226  1.00  0.00    -0.054 A  
HETATM   39  C   UNL     1      -8.931   2.256  72.475  1.00  0.00    -0.073 A  
HETATM   40  S   UNL     1      -8.412   3.034  71.036  1.00  0.00    -0.064 SA 
ENDBRANCH  35  36
ENDBRANCH  34  35
ENDBRANCH  31  34
ENDBRANCH  29  30
BRANCH  29  41
HETATM   41  C   UNL     1      -8.634   8.865  71.349  1.00  0.00    -0.238 C  
BRANCH  41  42
HETATM   42  C   UNL     1     -10.065   8.380  71.234  1.00  0.00    -0.260 A  
HETATM   43  C   UNL     1     -11.770   7.063  70.095  1.00  0.00    -0.238 A  
HETATM   44  C   UNL     1     -10.504   7.637  70.132  1.00  0.00    -0.227 A  
HETATM   45  C   UNL     1     -10.982   8.633  72.258  1.00  0.00    -0.392 A  
HETATM   46  C   UNL     1     -12.268   8.078  72.215  1.00  0.00    -0.366 A  
HETATM   47  C   UNL     1     -12.654   7.277  71.141  1.00  0.00    -0.362 A  
ENDBRANCH  41  42
ENDBRANCH  29  41
ENDBRANCH  26  29
ENDBRANCH  25  26
ENDBRANCH  24  25
BRANCH  24  48
HETATM   48  C   UNL     1      -7.338  11.049  67.105  1.00  0.00    -0.116 C  
BRANCH  48  49
HETATM   49  C   UNL     1      -7.673  10.108  65.972  1.00  0.00    -0.120 A  
HETATM   50  C   UNL     1      -8.703   9.711  63.807  1.00  0.00    -0.241 A  
HETATM   51  C   UNL     1      -8.365  10.576  64.847  1.00  0.00    -0.135 A  
HETATM   52  C   UNL     1      -8.360   8.364  63.883  1.00  0.00    -0.063 A  
HETATM   53  C   UNL     1      -7.677   7.882  64.998  1.00  0.00    -0.106 A  
HETATM   54  C   UNL     1      -7.342   8.746  66.042  1.00  0.00    -0.089 A  
ENDBRANCH  48  49
ENDBRANCH  24  48
ENDBRANCH  22  24
ENDBRANCH   3  20
TORSDOF 18
ENDMDL
MODEL       64
REMARK 921   NORMALIZED FREE ENERGY PREDICTED BY IDOCK:   -4.14 KCAL/MOL
REMARK 922        TOTAL FREE ENERGY PREDICTED BY IDOCK:  -13.10 KCAL/MOL
REMARK 923 INTER-LIGAND FREE ENERGY PREDICTED BY IDOCK:   -8.84 KCAL/MOL
REMARK 924 INTRA-LIGAND FREE ENERGY PREDICTED BY IDOCK:   -4.26 KCAL/MOL
REMARK 927      BINDING AFFINITY PREDICTED BY RF-SCORE:    0.00 PKD
ROOT
HETATM    1  C   UNL     1     -12.533   7.891  70.858  1.00  0.00    -0.053 C  
HETATM    2  C   UNL     1     -11.045   8.102  71.110  1.00  0.00    -0.279 C  
HETATM    3  C   UNL     1     -10.338   9.027  70.090  1.00  0.00    -0.210 C  
HETATM    4  C   UNL     1     -10.835   8.535  72.566  1.00  0.00    -0.304 C  
ENDROOT
BRANCH   3   5
HETATM    5  N   UNL     1     -10.795  10.426  70.035  1.00  0.00    -0.321 N  
HETATM    6  H   UNL     1     -10.588  11.035  70.826  1.00  0.00     0.000 HD 
BRANCH   5   7
HETATM    7  C   UNL     1     -11.485  10.947  68.975  1.00  0.00    -0.302 C  
HETATM    8  O   UNL     1     -12.694  10.776  68.844  1.00  0.00    -0.153 OA 
BRANCH   7   9
HETATM    9  N   UNL     1     -10.743  11.608  68.017  1.00  0.00    -0.199 N  
HETATM   10  C   UNL     1     -10.793  11.419  66.576  1.00  0.00    -0.283 C  
BRANCH   9  11
HETATM   11  C   UNL     1      -9.827  12.658  68.483  1.00  0.00    -0.148 C  
BRANCH  11  12
HETATM   12  C   UNL     1     -10.558  13.942  68.774  1.00  0.00    -0.246 A  
HETATM   13  C   UNL     1     -10.709  15.008  67.904  1.00  0.00    -0.268 A  
HETATM   14  N   UNL     1     -11.226  14.105  69.992  1.00  0.00    -0.130 NA 
HETATM   15  S   UNL     1     -11.693  16.219  68.600  1.00  0.00     0.058 SA 
HETATM   16  C   UNL     1     -11.940  15.968  72.413  1.00  0.00    -0.644 C  
HETATM   17  C   UNL     1     -11.877  15.251  70.013  1.00  0.00    -0.334 A  
HETATM   18  C   UNL     1     -12.758  15.728  71.145  1.00  0.00    -0.488 C  
HETATM   19  C   UNL     1     -13.882  14.727  71.414  1.00  0.00    -0.509 C  
ENDBRANCH  11  12
ENDBRANCH   9  11
ENDBRANCH   7   9
ENDBRANCH   5   7
ENDBRANCH   3   5
BRANCH   3  20
HETATM   20  C   UNL     1     -10.159   8.345  68.697  1.00  0.00    -0.193 C  
HETATM   21  O   UNL     1     -11.099   8.033  67.968  1.00  0.00     0.103 OA 
HETATM   22  N   UNL     1      -8.849   8.064  68.362  1.00  0.00    -0.134 N  
HETATM   23  H   UNL     1      -8.119   8.223  69.055  1.00  0.00     0.000 HD 
BRANCH  22  24
HETATM   24  C   UNL     1      -8.474   7.547  67.049  1.00  0.00    -0.122 C  
BRANCH  24  25
HETATM   25  C   UNL     1      -7.728   6.197  67.100  1.00  0.00    -0.101 C  
BRANCH  25  26
HETATM   26  C   UNL     1      -8.495   4.937  67.523  1.00  0.00    -0.104 C  
HETATM   27  H   UNL     1     -10.334   4.308  67.366  1.00  0.00     0.000 HD 
HETATM   28  O   UNL     1      -9.859   5.088  67.104  1.00  0.00    -0.154 OA 
BRANCH  26  29
HETATM   29  C   UNL     1      -8.451   4.568  69.037  1.00  0.00    -0.079 C  
BRANCH  29  30
HETATM   30  N   UNL     1      -7.403   5.276  69.772  1.00  0.00    -0.063 N  
HETATM   31  C   UNL     1      -6.328   4.606  70.291  1.00  0.00    -0.026 C  
HETATM   32  H   UNL     1      -7.473   6.286  69.898  1.00  0.00     0.000 HD 
HETATM   33  O   UNL     1      -5.897   3.559  69.849  1.00  0.00    -0.017 OA 
BRANCH  31  34
HETATM   34  O   UNL     1      -5.862   5.247  71.384  1.00  0.00    -0.015 OA 
BRANCH  34  35
HETATM   35  C   UNL     1      -6.668   5.137  72.574  1.00  0.00    -0.069 C  
BRANCH  35  36
HETATM   36  C   UNL     1      -6.904   6.473  73.200  1.00  0.00    -0.073 A  
HETATM   37  N   UNL     1      -6.757   8.779  73.588  1.00  0.00    -0.327 NA 
HETATM   38  C   UNL     1      -6.336   7.686  72.858  1.00  0.00    -0.061 A  
HETATM   39  C   UNL     1      -7.636   8.385  74.483  1.00  0.00    -0.221 A  
HETATM   40  S   UNL     1      -8.042   6.718  74.458  1.00  0.00    -0.142 SA 
ENDBRANCH  35  36
ENDBRANCH  34  35
ENDBRANCH  31  34
ENDBRANCH  29  30
BRANCH  29  41
HETATM   41  C   UNL     1      -9.842   4.727  69.736  1.00  0.00    -0.288 C  
BRANCH  41  42
HETATM   42  C   UNL     1     -10.017   4.068  71.089  1.00  0.00    -0.197 A  
HETATM   43  C   UNL     1     -10.885   4.102  73.367  1.00  0.00    -0.331 A  
HETATM   44  C   UNL     1     -10.585   4.749  72.173  1.00  0.00    -0.204 A  
HETATM   45  C   UNL     1      -9.646   2.734  71.279  1.00  0.00    -0.227 A  
HETATM   46  C   UNL     1      -9.922   2.083  72.489  1.00  0.00    -0.205 A  
HETATM   47  C   UNL     1     -10.559   2.764  73.526  1.00  0.00    -0.256 A  
ENDBRANCH  41  42
ENDBRANCH  29  41
ENDBRANCH  26  29
ENDBRANCH  25  26
ENDBRANCH  24  25
BRANCH  24  48
HETATM   48  C   UNL     1      -7.733   8.645  66.258  1.00  0.00    -0.098 C  
BRANCH  48  49
HETATM   49  C   UNL     1      -6.890   9.587  67.083  1.00  0.00    -0.084 A  
HETATM   50  C   UNL     1      -6.208  11.852  67.642  1.00  0.00    -0.083 A  
HETATM   51  C   UNL     1      -7.001  10.973  66.905  1.00  0.00    -0.125 A  
HETATM   52  C   UNL     1      -5.287  11.356  68.561  1.00  0.00    -0.042 A  
HETATM   53  C   UNL     1      -5.160   9.980  68.744  1.00  0.00    -0.036 A  
HETATM   54  C   UNL     1      -5.951   9.098  68.004  1.00  0.00    -0.049 A  
ENDBRANCH  48  49
ENDBRANCH  24  48
ENDBRANCH  22  24
ENDBRANCH   3  20
TORSDOF 18
ENDMDL
MODEL       65
REMARK 921   NORMALIZED FREE ENERGY PREDICTED BY IDOCK:   -4.12 KCAL/MOL
REMARK 922        TOTAL FREE ENERGY PREDICTED BY IDOCK:  -13.07 KCAL/MOL
REMARK 923 INTER-LIGAND FREE ENERGY PREDICTED BY IDOCK:  -10.97 KCAL/MOL
REMARK 924 INTRA-LIGAND FREE ENERGY PREDICTED BY IDOCK:   -2.10 KCAL/MOL
REMARK 927      BINDING AFFINITY PREDICTED BY RF-SCORE:    0.00 PKD
ROOT
HETATM    1  C   UNL     1     -10.995   5.690  70.419  1.00  0.00    -0.278 C  
HETATM    2  C   UNL     1      -9.954   6.043  71.474  1.00  0.00    -0.212 C  
HETATM    3  C   UNL     1      -9.910   7.540  71.870  1.00  0.00    -0.163 C  
HETATM    4  C   UNL     1     -10.113   5.105  72.677  1.00  0.00    -0.220 C  
ENDROOT
BRANCH   3   5
HETATM    5  N   UNL     1     -11.120   8.094  72.500  1.00  0.00    -0.361 N  
HETATM    6  H   UNL     1     -11.036   8.514  73.425  1.00  0.00     0.000 HD 
BRANCH   5   7
HETATM    7  C   UNL     1     -12.351   8.074  71.903  1.00  0.00    -0.323 C  
HETATM    8  O   UNL     1     -13.057   7.068  71.914  1.00  0.00    -0.313 OA 
BRANCH   7   9
HETATM    9  N   UNL     1     -12.729   9.213  71.222  1.00  0.00    -0.305 N  
HETATM   10  C   UNL     1     -14.018   9.485  70.605  1.00  0.00     0.500 C  
BRANCH   9  11
HETATM   11  C   UNL     1     -11.749  10.304  71.140  1.00  0.00    -0.341 C  
BRANCH  11  12
HETATM   12  C   UNL     1     -12.403  11.650  71.305  1.00  0.00    -0.181 A  
HETATM   13  C   UNL     1     -13.409  11.961  72.202  1.00  0.00    -0.256 A  
HETATM   14  N   UNL     1     -11.947  12.744  70.561  1.00  0.00    -0.276 NA 
HETATM   15  S   UNL     1     -13.789  13.626  72.128  1.00  0.00    -0.528 SA 
HETATM   16  C   UNL     1     -12.642  15.300  68.881  1.00  0.00     0.326 C  
HETATM   17  C   UNL     1     -12.582  13.842  70.918  1.00  0.00    -0.361 A  
HETATM   18  C   UNL     1     -12.304  15.223  70.369  1.00  0.00    -0.422 C  
HETATM   19  C   UNL     1     -10.845  15.615  70.608  1.00  0.00    -0.319 C  
ENDBRANCH  11  12
ENDBRANCH   9  11
ENDBRANCH   7   9
ENDBRANCH   5   7
ENDBRANCH   3   5
BRANCH   3  20
HETATM   20  C   UNL     1      -9.294   8.430  70.745  1.00  0.00    -0.163 C  
HETATM   21  O   UNL     1      -8.492   9.337  70.959  1.00  0.00    -0.248 OA 
HETATM   22  N   UNL     1      -9.766   8.156  69.476  1.00  0.00    -0.168 N  
HETATM   23  H   UNL     1     -10.526   7.485  69.368  1.00  0.00     0.000 HD 
BRANCH  22  24
HETATM   24  C   UNL     1      -9.215   8.795  68.284  1.00  0.00    -0.140 C  
BRANCH  24  25
HETATM   25  C   UNL     1     -10.284   9.383  67.341  1.00  0.00    -0.298 C  
BRANCH  25  26
HETATM   26  C   UNL     1     -10.496  10.903  67.309  1.00  0.00    -0.232 C  
HETATM   27  H   UNL     1     -12.029  12.098  67.451  1.00  0.00     0.000 HD 
HETATM   28  O   UNL     1     -11.898  11.158  67.470  1.00  0.00    -0.591 OA 
BRANCH  26  29
HETATM   29  C   UNL     1      -9.970  11.655  66.049  1.00  0.00    -0.228 C  
BRANCH  29  30
HETATM   30  N   UNL     1     -10.653  12.927  65.811  1.00  0.00    -0.271 N  
HETATM   31  C   UNL     1     -10.779  13.436  64.547  1.00  0.00    -0.419 C  
HETATM   32  H   UNL     1     -11.041  13.443  66.601  1.00  0.00     0.000 HD 
HETATM   33  O   UNL     1     -10.786  12.761  63.536  1.00  0.00    -0.396 OA 
BRANCH  31  34
HETATM   34  O   UNL     1     -10.839  14.784  64.590  1.00  0.00    -0.376 OA 
BRANCH  34  35
HETATM   35  C   UNL     1     -10.960  15.371  65.902  1.00  0.00    -0.293 C  
BRANCH  35  36
HETATM   36  C   UNL     1      -9.996  16.496  66.089  1.00  0.00    -0.343 A  
HETATM   37  N   UNL     1      -7.972  17.676  66.135  1.00  0.00    -0.470 NA 
HETATM   38  C   UNL     1      -8.623  16.478  65.924  1.00  0.00    -0.039 A  
HETATM   39  C   UNL     1      -8.855  18.592  66.468  1.00  0.00    -0.293 A  
HETATM   40  S   UNL     1     -10.495  18.087  66.485  1.00  0.00    -0.288 SA 
ENDBRANCH  35  36
ENDBRANCH  34  35
ENDBRANCH  31  34
ENDBRANCH  29  30
BRANCH  29  41
HETATM   41  C   UNL     1      -8.416  11.837  66.060  1.00  0.00     0.125 C  
BRANCH  41  42
HETATM   42  C   UNL     1      -7.789  12.364  67.335  1.00  0.00    -0.174 A  
HETATM   43  C   UNL     1      -6.091  12.220  69.078  1.00  0.00    -0.076 A  
HETATM   44  C   UNL     1      -6.770  11.668  67.997  1.00  0.00    -0.064 A  
HETATM   45  C   UNL     1      -8.192  13.592  67.866  1.00  0.00    -0.171 A  
HETATM   46  C   UNL     1      -7.528  14.143  68.971  1.00  0.00    -0.082 A  
HETATM   47  C   UNL     1      -6.465  13.463  69.564  1.00  0.00    -0.083 A  
ENDBRANCH  41  42
ENDBRANCH  29  41
ENDBRANCH  26  29
ENDBRANCH  25  26
ENDBRANCH  24  25
BRANCH  24  48
HETATM   48  C   UNL     1      -8.231   7.827  67.593  1.00  0.00    -0.125 C  
BRANCH  48  49
HETATM   49  C   UNL     1      -8.703   6.398  67.464  1.00  0.00    -0.113 A  
HETATM   50  C   UNL     1      -8.475   4.050  68.048  1.00  0.00    -0.104 A  
HETATM   51  C   UNL     1      -8.065   5.377  68.181  1.00  0.00    -0.095 A  
HETATM   52  C   UNL     1      -9.523   3.727  67.191  1.00  0.00    -0.234 A  
HETATM   53  C   UNL     1     -10.163   4.731  66.466  1.00  0.00    -0.294 A  
HETATM   54  C   UNL     1      -9.751   6.059  66.594  1.00  0.00    -0.189 A  
ENDBRANCH  48  49
ENDBRANCH  24  48
ENDBRANCH  22  24
ENDBRANCH   3  20
TORSDOF 18
ENDMDL
MODEL       66
REMARK 921   NORMALIZED FREE ENERGY PREDICTED BY IDOCK:   -4.04 KCAL/MOL
REMARK 922        TOTAL FREE ENERGY PREDICTED BY IDOCK:  -12.90 KCAL/MOL
REMARK 923 INTER-LIGAND FREE ENERGY PREDICTED BY IDOCK:  -10.70 KCAL/MOL
REMARK 924 INTRA-LIGAND FREE ENERGY PREDICTED BY IDOCK:   -2.20 KCAL/MOL
REMARK 927      BINDING AFFINITY PREDICTED BY RF-SCORE:    0.00 PKD
ROOT
HETATM    1  C   UNL     1     -12.455  14.447  63.911  1.00  0.00    -0.004 C  
HETATM    2  C   UNL     1     -11.602  13.187  63.990  1.00  0.00    -0.481 C  
HETATM    3  C   UNL     1     -11.070  12.850  65.404  1.00  0.00    -0.281 C  
HETATM    4  C   UNL     1     -12.358  12.023  63.336  1.00  0.00    -0.635 C  
ENDROOT
BRANCH   3   5
HETATM    5  N   UNL     1     -12.076  12.552  66.438  1.00  0.00    -0.315 N  
HETATM    6  H   UNL     1     -13.005  12.257  66.139  1.00  0.00     0.000 HD 
BRANCH   5   7
HETATM    7  C   UNL     1     -11.823  12.651  67.778  1.00  0.00    -0.323 C  
HETATM    8  O   UNL     1     -11.943  13.715  68.381  1.00  0.00    -0.355 OA 
BRANCH   7   9
HETATM    9  N   UNL     1     -11.353  11.516  68.407  1.00  0.00    -0.252 N  
HETATM   10  C   UNL     1     -11.159  10.199  67.821  1.00  0.00    -0.227 C  
BRANCH   9  11
HETATM   11  C   UNL     1     -10.952  11.643  69.814  1.00  0.00     0.068 C  
BRANCH  11  12
HETATM   12  C   UNL     1     -11.696  10.673  70.693  1.00  0.00    -0.356 A  
HETATM   13  C   UNL     1     -12.984  10.832  71.173  1.00  0.00    -0.371 A  
HETATM   14  N   UNL     1     -11.111   9.448  71.032  1.00  0.00    -0.313 NA 
HETATM   15  S   UNL     1     -13.477   9.449  72.046  1.00  0.00    -0.458 SA 
HETATM   16  C   UNL     1     -10.552   7.279  73.228  1.00  0.00    -0.428 C  
HETATM   17  C   UNL     1     -11.956   8.709  71.724  1.00  0.00    -0.336 A  
HETATM   18  C   UNL     1     -11.685   7.301  72.204  1.00  0.00    -0.323 C  
HETATM   19  C   UNL     1     -11.359   6.382  71.024  1.00  0.00    -0.386 C  
ENDBRANCH  11  12
ENDBRANCH   9  11
ENDBRANCH   7   9
ENDBRANCH   5   7
ENDBRANCH   3   5
BRANCH   3  20
HETATM   20  C   UNL     1      -9.939  13.826  65.858  1.00  0.00    -0.293 C  
HETATM   21  O   UNL     1      -9.787  14.953  65.392  1.00  0.00    -0.342 OA 
HETATM   22  N   UNL     1      -9.074  13.301  66.799  1.00  0.00    -0.325 N  
HETATM   23  H   UNL     1      -9.165  12.318  67.056  1.00  0.00     0.000 HD 
BRANCH  22  24
HETATM   24  C   UNL     1      -8.036  14.104  67.437  1.00  0.00    -0.184 C  
BRANCH  24  25
HETATM   25  C   UNL     1      -6.778  13.301  67.828  1.00  0.00    -0.154 C  
BRANCH  25  26
HETATM   26  C   UNL     1      -6.840  11.767  67.816  1.00  0.00    -0.090 C  
HETATM   27  H   UNL     1      -7.830  10.406  68.802  1.00  0.00     0.000 HD 
HETATM   28  O   UNL     1      -7.792  11.355  68.809  1.00  0.00    -0.136 OA 
BRANCH  26  29
HETATM   29  C   UNL     1      -5.494  11.012  68.038  1.00  0.00    -0.042 C  
BRANCH  29  30
HETATM   30  N   UNL     1      -5.261  10.651  69.437  1.00  0.00    -0.038 N  
HETATM   31  C   UNL     1      -5.448   9.368  69.875  1.00  0.00    -0.032 C  
HETATM   32  H   UNL     1      -4.954  11.367  70.095  1.00  0.00     0.000 HD 
HETATM   33  O   UNL     1      -5.358   8.384  69.168  1.00  0.00    -0.030 OA 
BRANCH  31  34
HETATM   34  O   UNL     1      -5.792   9.366  71.181  1.00  0.00    -0.056 OA 
BRANCH  34  35
HETATM   35  C   UNL     1      -7.093   8.826  71.491  1.00  0.00    -0.083 C  
BRANCH  35  36
HETATM   36  C   UNL     1      -6.991   7.462  72.090  1.00  0.00    -0.063 A  
HETATM   37  N   UNL     1      -7.059   5.127  72.272  1.00  0.00    -0.081 NA 
HETATM   38  C   UNL     1      -7.267   6.246  71.492  1.00  0.00    -0.083 A  
HETATM   39  C   UNL     1      -6.636   5.502  73.458  1.00  0.00    -0.077 A  
HETATM   40  S   UNL     1      -6.409   7.189  73.679  1.00  0.00    -0.065 SA 
ENDBRANCH  35  36
ENDBRANCH  34  35
ENDBRANCH  31  34
ENDBRANCH  29  30
BRANCH  29  41
HETATM   41  C   UNL     1      -5.337   9.772  67.096  1.00  0.00    -0.042 C  
BRANCH  41  42
HETATM   42  C   UNL     1      -6.482   9.468  66.153  1.00  0.00    -0.070 A  
HETATM   43  C   UNL     1      -8.670   8.482  65.725  1.00  0.00    -0.210 A  
HETATM   44  C   UNL     1      -7.547   8.640  66.529  1.00  0.00    -0.088 A  
HETATM   45  C   UNL     1      -6.524  10.046  64.881  1.00  0.00    -0.125 A  
HETATM   46  C   UNL     1      -7.642   9.871  64.055  1.00  0.00    -0.138 A  
HETATM   47  C   UNL     1      -8.723   9.103  64.486  1.00  0.00    -0.192 A  
ENDBRANCH  41  42
ENDBRANCH  29  41
ENDBRANCH  26  29
ENDBRANCH  25  26
ENDBRANCH  24  25
BRANCH  24  48
HETATM   48  C   UNL     1      -8.653  14.909  68.600  1.00  0.00    -0.168 C  
BRANCH  48  49
HETATM   49  C   UNL     1      -8.340  16.386  68.611  1.00  0.00    -0.221 A  
HETATM   50  C   UNL     1      -6.774  18.199  69.022  1.00  0.00    -0.259 A  
HETATM   51  C   UNL     1      -7.066  16.836  68.982  1.00  0.00    -0.221 A  
HETATM   52  C   UNL     1      -7.757  19.131  68.698  1.00  0.00    -0.387 A  
HETATM   53  C   UNL     1      -9.031  18.700  68.334  1.00  0.00    -0.356 A  
HETATM   54  C   UNL     1      -9.325  17.335  68.298  1.00  0.00    -0.272 A  
ENDBRANCH  48  49
ENDBRANCH  24  48
ENDBRANCH  22  24
ENDBRANCH   3  20
TORSDOF 18
ENDMDL
MODEL       67
REMARK 921   NORMALIZED FREE ENERGY PREDICTED BY IDOCK:   -3.94 KCAL/MOL
REMARK 922        TOTAL FREE ENERGY PREDICTED BY IDOCK:  -12.69 KCAL/MOL
REMARK 923 INTER-LIGAND FREE ENERGY PREDICTED BY IDOCK:  -10.10 KCAL/MOL
REMARK 924 INTRA-LIGAND FREE ENERGY PREDICTED BY IDOCK:   -2.59 KCAL/MOL
REMARK 927      BINDING AFFINITY PREDICTED BY RF-SCORE:    0.00 PKD
ROOT
HETATM    1  C   UNL     1     -12.218  14.745  67.651  1.00  0.00     0.008 C  
HETATM    2  C   UNL     1     -11.888  14.132  69.007  1.00  0.00    -0.384 C  
HETATM    3  C   UNL     1     -10.428  13.639  69.160  1.00  0.00     0.010 C  
HETATM    4  C   UNL     1     -12.319  15.098  70.117  1.00  0.00    -0.385 C  
ENDROOT
BRANCH   3   5
HETATM    5  N   UNL     1      -9.371  14.660  69.069  1.00  0.00    -0.347 N  
HETATM    6  H   UNL     1      -9.522  15.557  69.530  1.00  0.00     0.000 HD 
BRANCH   5   7
HETATM    7  C   UNL     1      -8.196  14.463  68.397  1.00  0.00    -0.145 C  
HETATM    8  O   UNL     1      -7.305  13.749  68.850  1.00  0.00    -0.109 OA 
BRANCH   7   9
HETATM    9  N   UNL     1      -8.028  15.168  67.222  1.00  0.00    -0.190 N  
HETATM   10  C   UNL     1      -8.964  15.271  66.113  1.00  0.00    -0.216 C  
BRANCH   9  11
HETATM   11  C   UNL     1      -6.791  15.946  67.075  1.00  0.00    -0.095 C  
BRANCH  11  12
HETATM   12  C   UNL     1      -7.057  17.427  67.129  1.00  0.00    -0.173 A  
HETATM   13  C   UNL     1      -6.108  18.428  67.023  1.00  0.00    -0.164 A  
HETATM   14  N   UNL     1      -8.371  17.897  67.222  1.00  0.00    -0.222 NA 
HETATM   15  S   UNL     1      -6.852  19.966  67.033  1.00  0.00    -0.218 SA 
HETATM   16  C   UNL     1     -10.390  19.932  68.496  1.00  0.00    -0.463 C  
HETATM   17  C   UNL     1      -8.396  19.214  67.160  1.00  0.00    -0.279 A  
HETATM   18  C   UNL     1      -9.649  20.059  67.167  1.00  0.00    -0.533 C  
HETATM   19  C   UNL     1     -10.566  19.676  66.003  1.00  0.00    -0.584 C  
ENDBRANCH  11  12
ENDBRANCH   9  11
ENDBRANCH   7   9
ENDBRANCH   5   7
ENDBRANCH   3   5
BRANCH   3  20
HETATM   20  C   UNL     1     -10.153  12.342  68.336  1.00  0.00    -0.215 C  
HETATM   21  O   UNL     1     -10.543  12.173  67.183  1.00  0.00    -0.219 OA 
HETATM   22  N   UNL     1      -9.473  11.359  69.029  1.00  0.00    -0.406 N  
HETATM   23  H   UNL     1      -9.287  11.496  70.022  1.00  0.00     0.000 HD 
BRANCH  22  24
HETATM   24  C   UNL     1      -9.013  10.130  68.388  1.00  0.00    -0.123 C  
BRANCH  24  25
HETATM   25  C   UNL     1      -8.964   8.913  69.336  1.00  0.00    -0.145 C  
BRANCH  25  26
HETATM   26  C   UNL     1      -9.855   8.906  70.586  1.00  0.00    -0.212 C  
HETATM   27  H   UNL     1      -9.623   9.377  72.464  1.00  0.00     0.000 HD 
HETATM   28  O   UNL     1      -9.072   9.382  71.690  1.00  0.00    -0.254 OA 
BRANCH  26  29
HETATM   29  C   UNL     1     -10.518   7.547  70.963  1.00  0.00    -0.215 C  
BRANCH  29  30
HETATM   30  N   UNL     1      -9.853   6.394  70.355  1.00  0.00    -0.168 N  
HETATM   31  C   UNL     1     -10.499   5.607  69.440  1.00  0.00    -0.297 C  
HETATM   32  H   UNL     1      -8.892   6.174  70.617  1.00  0.00     0.000 HD 
HETATM   33  O   UNL     1     -11.407   5.991  68.729  1.00  0.00    -0.284 OA 
BRANCH  31  34
HETATM   34  O   UNL     1     -10.017   4.347  69.485  1.00  0.00    -0.211 OA 
BRANCH  34  35
HETATM   35  C   UNL     1      -9.629   3.773  68.220  1.00  0.00    -0.106 C  
BRANCH  35  36
HETATM   36  C   UNL     1      -8.432   4.460  67.651  1.00  0.00    -0.099 A  
HETATM   37  N   UNL     1      -7.104   5.716  66.184  1.00  0.00    -0.066 NA 
HETATM   38  C   UNL     1      -8.332   5.147  66.455  1.00  0.00    -0.108 A  
HETATM   39  C   UNL     1      -6.280   5.449  67.172  1.00  0.00    -0.031 A  
HETATM   40  S   UNL     1      -6.939   4.567  68.488  1.00  0.00    -0.053 SA 
ENDBRANCH  35  36
ENDBRANCH  34  35
ENDBRANCH  31  34
ENDBRANCH  29  30
BRANCH  29  41
HETATM   41  C   UNL     1     -10.677   7.361  72.509  1.00  0.00    -0.315 C  
BRANCH  41  42
HETATM   42  C   UNL     1     -10.354   5.996  73.080  1.00  0.00    -0.224 A  
HETATM   43  C   UNL     1     -10.894   3.636  73.361  1.00  0.00    -0.314 A  
HETATM   44  C   UNL     1     -11.249   4.923  72.975  1.00  0.00    -0.367 A  
HETATM   45  C   UNL     1      -9.123   5.760  73.699  1.00  0.00    -0.127 A  
HETATM   46  C   UNL     1      -8.770   4.469  74.113  1.00  0.00    -0.103 A  
HETATM   47  C   UNL     1      -9.650   3.404  73.926  1.00  0.00    -0.126 A  
ENDBRANCH  41  42
ENDBRANCH  29  41
ENDBRANCH  26  29
ENDBRANCH  25  26
ENDBRANCH  24  25
BRANCH  24  48
HETATM   48  C   UNL     1      -7.687  10.403  67.649  1.00  0.00    -0.093 C  
BRANCH  48  49
HETATM   49  C   UNL     1      -7.621   9.915  66.222  1.00  0.00    -0.102 A  
HETATM   50  C   UNL     1      -6.432   9.756  64.109  1.00  0.00    -0.119 A  
HETATM   51  C   UNL     1      -6.492  10.179  65.436  1.00  0.00    -0.117 A  
HETATM   52  C   UNL     1      -7.504   9.068  63.547  1.00  0.00    -0.103 A  
HETATM   53  C   UNL     1      -8.637   8.803  64.314  1.00  0.00    -0.093 A  
HETATM   54  C   UNL     1      -8.701   9.230  65.642  1.00  0.00    -0.193 A  
ENDBRANCH  48  49
ENDBRANCH  24  48
ENDBRANCH  22  24
ENDBRANCH   3  20
TORSDOF 18
ENDMDL
MODEL       68
REMARK 921   NORMALIZED FREE ENERGY PREDICTED BY IDOCK:   -3.93 KCAL/MOL
REMARK 922        TOTAL FREE ENERGY PREDICTED BY IDOCK:  -12.68 KCAL/MOL
REMARK 923 INTER-LIGAND FREE ENERGY PREDICTED BY IDOCK:   -9.67 KCAL/MOL
REMARK 924 INTRA-LIGAND FREE ENERGY PREDICTED BY IDOCK:   -3.01 KCAL/MOL
REMARK 927      BINDING AFFINITY PREDICTED BY RF-SCORE:    0.00 PKD
ROOT
HETATM    1  C   UNL     1     -13.388  10.467  70.205  1.00  0.00     0.257 C  
HETATM    2  C   UNL     1     -12.214  11.244  70.788  1.00  0.00    -0.479 C  
HETATM    3  C   UNL     1     -11.384  12.042  69.753  1.00  0.00    -0.126 C  
HETATM    4  C   UNL     1     -12.708  12.104  71.958  1.00  0.00    -0.105 C  
ENDROOT
BRANCH   3   5
HETATM    5  N   UNL     1     -12.082  13.120  69.033  1.00  0.00    -0.260 N  
HETATM    6  H   UNL     1     -12.839  12.869  68.399  1.00  0.00     0.000 HD 
BRANCH   5   7
HETATM    7  C   UNL     1     -11.763  14.443  69.176  1.00  0.00    -0.317 C  
HETATM    8  O   UNL     1     -12.445  15.201  69.861  1.00  0.00    -0.300 OA 
BRANCH   7   9
HETATM    9  N   UNL     1     -10.682  14.902  68.450  1.00  0.00    -0.239 N  
HETATM   10  C   UNL     1     -10.481  14.810  67.013  1.00  0.00    -0.270 C  
BRANCH   9  11
HETATM   11  C   UNL     1      -9.628  15.608  69.189  1.00  0.00    -0.251 C  
BRANCH  11  12
HETATM   12  C   UNL     1      -9.544  17.057  68.788  1.00  0.00    -0.269 A  
HETATM   13  C   UNL     1     -10.614  17.919  68.625  1.00  0.00    -0.149 A  
HETATM   14  N   UNL     1      -8.295  17.664  68.619  1.00  0.00    -0.286 NA 
HETATM   15  S   UNL     1     -10.067  19.497  68.265  1.00  0.00    -0.448 SA 
HETATM   16  C   UNL     1      -6.475  19.593  66.944  1.00  0.00    -0.202 C  
HETATM   17  C   UNL     1      -8.437  18.950  68.363  1.00  0.00    -0.350 A  
HETATM   18  C   UNL     1      -7.300  19.930  68.185  1.00  0.00    -0.338 C  
HETATM   19  C   UNL     1      -6.411  19.956  69.429  1.00  0.00    -0.374 C  
ENDBRANCH  11  12
ENDBRANCH   9  11
ENDBRANCH   7   9
ENDBRANCH   5   7
ENDBRANCH   3   5
BRANCH   3  20
HETATM   20  C   UNL     1     -10.515  11.111  68.849  1.00  0.00    -0.207 C  
HETATM   21  O   UNL     1     -10.983  10.221  68.141  1.00  0.00    -0.250 OA 
HETATM   22  N   UNL     1      -9.155  11.329  68.945  1.00  0.00    -0.361 N  
HETATM   23  H   UNL     1      -8.810  11.989  69.642  1.00  0.00     0.000 HD 
BRANCH  22  24
HETATM   24  C   UNL     1      -8.193  10.648  68.082  1.00  0.00    -0.116 C  
BRANCH  24  25
HETATM   25  C   UNL     1      -6.950  10.122  68.829  1.00  0.00    -0.066 C  
BRANCH  25  26
HETATM   26  C   UNL     1      -6.805   8.612  69.065  1.00  0.00    -0.056 C  
HETATM   27  H   UNL     1      -6.183   7.092  68.014  1.00  0.00     0.000 HD 
HETATM   28  O   UNL     1      -6.272   8.027  67.868  1.00  0.00    -0.048 OA 
BRANCH  26  29
HETATM   29  C   UNL     1      -8.094   7.845  69.492  1.00  0.00    -0.121 C  
BRANCH  29  30
HETATM   30  N   UNL     1      -7.880   6.407  69.656  1.00  0.00    -0.106 N  
HETATM   31  C   UNL     1      -7.016   5.925  70.602  1.00  0.00    -0.062 C  
HETATM   32  H   UNL     1      -8.383   5.753  69.056  1.00  0.00     0.000 HD 
HETATM   33  O   UNL     1      -6.728   6.511  71.627  1.00  0.00    -0.060 OA 
BRANCH  31  34
HETATM   34  O   UNL     1      -6.501   4.742  70.205  1.00  0.00    -0.032 OA 
BRANCH  34  35
HETATM   35  C   UNL     1      -7.451   3.765  69.732  1.00  0.00    -0.052 C  
BRANCH  35  36
HETATM   36  C   UNL     1      -7.138   3.327  68.339  1.00  0.00    -0.050 A  
HETATM   37  N   UNL     1      -6.109   2.190  66.567  1.00  0.00    -0.023 NA 
HETATM   38  C   UNL     1      -6.162   2.441  67.923  1.00  0.00    -0.025 A  
HETATM   39  C   UNL     1      -7.041   2.894  65.964  1.00  0.00    -0.061 A  
HETATM   40  S   UNL     1      -8.054   3.834  66.981  1.00  0.00    -0.095 SA 
ENDBRANCH  35  36
ENDBRANCH  34  35
ENDBRANCH  31  34
ENDBRANCH  29  30
BRANCH  29  41
HETATM   41  C   UNL     1      -8.774   8.467  70.757  1.00  0.00    -0.183 C  
BRANCH  41  42
HETATM   42  C   UNL     1     -10.160   7.972  71.113  1.00  0.00    -0.221 A  
HETATM   43  C   UNL     1     -12.009   7.802  72.692  1.00  0.00    -0.257 A  
HETATM   44  C   UNL     1     -10.686   8.116  72.402  1.00  0.00    -0.404 A  
HETATM   45  C   UNL     1     -10.974   7.386  70.138  1.00  0.00    -0.272 A  
HETATM   46  C   UNL     1     -12.301   7.044  70.430  1.00  0.00    -0.061 A  
HETATM   47  C   UNL     1     -12.823   7.270  71.703  1.00  0.00    -0.415 A  
ENDBRANCH  41  42
ENDBRANCH  29  41
ENDBRANCH  26  29
ENDBRANCH  25  26
ENDBRANCH  24  25
BRANCH  24  48
HETATM   48  C   UNL     1      -7.865  11.546  66.871  1.00  0.00    -0.163 C  
BRANCH  48  49
HETATM   49  C   UNL     1      -8.730  11.339  65.651  1.00  0.00    -0.078 A  
HETATM   50  C   UNL     1     -10.572  12.054  64.236  1.00  0.00    -0.377 A  
HETATM   51  C   UNL     1      -9.750  12.250  65.345  1.00  0.00    -0.150 A  
HETATM   52  C   UNL     1     -10.388  10.940  63.421  1.00  0.00    -0.299 A  
HETATM   53  C   UNL     1      -9.382  10.022  63.715  1.00  0.00    -0.307 A  
HETATM   54  C   UNL     1      -8.561  10.214  64.828  1.00  0.00    -0.191 A  
ENDBRANCH  48  49
ENDBRANCH  24  48
ENDBRANCH  22  24
ENDBRANCH   3  20
TORSDOF 18
ENDMDL
MODEL       69
REMARK 921   NORMALIZED FREE ENERGY PREDICTED BY IDOCK:   -3.87 KCAL/MOL
REMARK 922        TOTAL FREE ENERGY PREDICTED BY IDOCK:  -12.55 KCAL/MOL
REMARK 923 INTER-LIGAND FREE ENERGY PREDICTED BY IDOCK:  -10.07 KCAL/MOL
REMARK 924 INTRA-LIGAND FREE ENERGY PREDICTED BY IDOCK:   -2.48 KCAL/MOL
REMARK 927      BINDING AFFINITY PREDICTED BY RF-SCORE:    0.00 PKD
ROOT
HETATM    1  C   UNL     1     -12.533  14.821  68.403  1.00  0.00     0.232 C  
HETATM    2  C   UNL     1     -11.942  14.080  69.596  1.00  0.00    -0.393 C  
HETATM    3  C   UNL     1     -10.467  13.640  69.423  1.00  0.00     0.213 C  
HETATM    4  C   UNL     1     -12.182  14.900  70.870  1.00  0.00    -0.389 C  
ENDROOT
BRANCH   3   5
HETATM    5  N   UNL     1      -9.471  14.712  69.259  1.00  0.00    -0.404 N  
HETATM    6  H   UNL     1      -9.656  15.617  69.691  1.00  0.00     0.000 HD 
BRANCH   5   7
HETATM    7  C   UNL     1      -8.308  14.551  68.557  1.00  0.00    -0.160 C  
HETATM    8  O   UNL     1      -7.324  14.008  69.053  1.00  0.00    -0.120 OA 
BRANCH   7   9
HETATM    9  N   UNL     1      -8.268  15.098  67.290  1.00  0.00    -0.192 N  
HETATM   10  C   UNL     1      -9.324  15.086  66.290  1.00  0.00    -0.307 C  
BRANCH   9  11
HETATM   11  C   UNL     1      -7.046  15.818  66.907  1.00  0.00    -0.039 C  
BRANCH  11  12
HETATM   12  C   UNL     1      -7.184  17.301  67.127  1.00  0.00    -0.172 A  
HETATM   13  C   UNL     1      -6.145  18.209  67.230  1.00  0.00    -0.152 A  
HETATM   14  N   UNL     1      -8.455  17.886  67.170  1.00  0.00    -0.228 NA 
HETATM   15  S   UNL     1      -6.747  19.801  67.374  1.00  0.00    -0.214 SA 
HETATM   16  C   UNL     1     -10.397  19.944  68.523  1.00  0.00    -0.463 C  
HETATM   17  C   UNL     1      -8.357  19.196  67.275  1.00  0.00    -0.277 A  
HETATM   18  C   UNL     1      -9.526  20.155  67.286  1.00  0.00    -0.532 C  
HETATM   19  C   UNL     1     -10.358  20.006  66.011  1.00  0.00    -0.556 C  
ENDBRANCH  11  12
ENDBRANCH   9  11
ENDBRANCH   7   9
ENDBRANCH   5   7
ENDBRANCH   3   5
BRANCH   3  20
HETATM   20  C   UNL     1     -10.319  12.454  68.420  1.00  0.00    -0.229 C  
HETATM   21  O   UNL     1     -11.112  12.232  67.506  1.00  0.00    -0.247 OA 
HETATM   22  N   UNL     1      -9.243  11.624  68.671  1.00  0.00    -0.338 N  
HETATM   23  H   UNL     1      -8.692  11.775  69.516  1.00  0.00     0.000 HD 
BRANCH  22  24
HETATM   24  C   UNL     1      -8.867  10.540  67.767  1.00  0.00    -0.125 C  
BRANCH  24  25
HETATM   25  C   UNL     1      -8.221   9.333  68.478  1.00  0.00    -0.114 C  
BRANCH  25  26
HETATM   26  C   UNL     1      -8.756   8.902  69.851  1.00  0.00    -0.139 C  
HETATM   27  H   UNL     1      -8.446   9.443  71.698  1.00  0.00     0.000 HD 
HETATM   28  O   UNL     1      -8.115   9.710  70.849  1.00  0.00    -0.293 OA 
BRANCH  26  29
HETATM   29  C   UNL     1      -8.602   7.396  70.220  1.00  0.00    -0.145 C  
BRANCH  29  30
HETATM   30  N   UNL     1      -9.883   6.710  70.389  1.00  0.00    -0.175 N  
HETATM   31  C   UNL     1     -10.576   6.788  71.567  1.00  0.00    -0.219 C  
HETATM   32  H   UNL     1     -10.267   6.166  69.616  1.00  0.00     0.000 HD 
HETATM   33  O   UNL     1     -10.487   7.711  72.352  1.00  0.00    -0.214 OA 
BRANCH  31  34
HETATM   34  O   UNL     1     -11.320   5.676  71.746  1.00  0.00    -0.221 OA 
BRANCH  34  35
HETATM   35  C   UNL     1     -11.387   5.170  73.095  1.00  0.00    -0.313 C  
BRANCH  35  36
HETATM   36  C   UNL     1     -10.314   4.165  73.357  1.00  0.00    -0.164 A  
HETATM   37  N   UNL     1      -8.268   3.260  74.056  1.00  0.00    -0.073 NA 
HETATM   38  C   UNL     1      -9.058   4.380  73.894  1.00  0.00    -0.104 A  
HETATM   39  C   UNL     1      -8.928   2.205  73.632  1.00  0.00    -0.066 A  
HETATM   40  S   UNL     1     -10.528   2.486  73.082  1.00  0.00    -0.158 SA 
ENDBRANCH  35  36
ENDBRANCH  34  35
ENDBRANCH  31  34
ENDBRANCH  29  30
BRANCH  29  41
HETATM   41  C   UNL     1      -7.671   6.624  69.225  1.00  0.00    -0.102 C  
BRANCH  41  42
HETATM   42  C   UNL     1      -8.340   5.724  68.207  1.00  0.00    -0.107 A  
HETATM   43  C   UNL     1      -9.410   3.613  67.625  1.00  0.00    -0.246 A  
HETATM   44  C   UNL     1      -8.662   4.393  68.499  1.00  0.00    -0.117 A  
HETATM   45  C   UNL     1      -8.692   6.219  66.948  1.00  0.00    -0.113 A  
HETATM   46  C   UNL     1      -9.424   5.429  66.052  1.00  0.00    -0.161 A  
HETATM   47  C   UNL     1      -9.798   4.132  66.399  1.00  0.00    -0.214 A  
ENDBRANCH  41  42
ENDBRANCH  29  41
ENDBRANCH  26  29
ENDBRANCH  25  26
ENDBRANCH  24  25
BRANCH  24  48
HETATM   48  C   UNL     1      -8.025  11.109  66.607  1.00  0.00    -0.159 C  
BRANCH  48  49
HETATM   49  C   UNL     1      -8.415  10.641  65.225  1.00  0.00    -0.152 A  
HETATM   50  C   UNL     1      -9.905  10.760  63.309  1.00  0.00    -0.394 A  
HETATM   51  C   UNL     1      -9.520  11.204  64.573  1.00  0.00    -0.254 A  
HETATM   52  C   UNL     1      -9.193   9.741  62.682  1.00  0.00    -0.268 A  
HETATM   53  C   UNL     1      -8.095   9.166  63.320  1.00  0.00    -0.165 A  
HETATM   54  C   UNL     1      -7.711   9.607  64.588  1.00  0.00    -0.130 A  
ENDBRANCH  48  49
ENDBRANCH  24  48
ENDBRANCH  22  24
ENDBRANCH   3  20
TORSDOF 18
ENDMDL
MODEL       70
REMARK 921   NORMALIZED FREE ENERGY PREDICTED BY IDOCK:   -3.82 KCAL/MOL
REMARK 922        TOTAL FREE ENERGY PREDICTED BY IDOCK:  -12.46 KCAL/MOL
REMARK 923 INTER-LIGAND FREE ENERGY PREDICTED BY IDOCK:  -11.17 KCAL/MOL
REMARK 924 INTRA-LIGAND FREE ENERGY PREDICTED BY IDOCK:   -1.29 KCAL/MOL
REMARK 927      BINDING AFFINITY PREDICTED BY RF-SCORE:    0.00 PKD
ROOT
HETATM    1  C   UNL     1     -11.023   5.685  70.774  1.00  0.00    -0.257 C  
HETATM    2  C   UNL     1     -10.095   6.113  71.905  1.00  0.00    -0.216 C  
HETATM    3  C   UNL     1     -10.053   7.638  72.170  1.00  0.00    -0.196 C  
HETATM    4  C   UNL     1     -10.414   5.290  73.159  1.00  0.00    -0.251 C  
ENDROOT
BRANCH   3   5
HETATM    5  N   UNL     1     -11.308   8.270  72.608  1.00  0.00    -0.386 N  
HETATM    6  H   UNL     1     -11.286   8.877  73.426  1.00  0.00     0.000 HD 
BRANCH   5   7
HETATM    7  C   UNL     1     -12.503   8.082  71.969  1.00  0.00    -0.320 C  
HETATM    8  O   UNL     1     -13.089   7.002  71.999  1.00  0.00    -0.246 OA 
BRANCH   7   9
HETATM    9  N   UNL     1     -12.982   9.141  71.225  1.00  0.00    -0.289 N  
HETATM   10  C   UNL     1     -14.368   9.433  70.895  1.00  0.00     0.483 C  
BRANCH   9  11
HETATM   11  C   UNL     1     -12.001  10.121  70.742  1.00  0.00    -0.348 C  
BRANCH  11  12
HETATM   12  C   UNL     1     -12.447  11.534  71.014  1.00  0.00    -0.356 A  
HETATM   13  C   UNL     1     -13.333  11.931  72.000  1.00  0.00    -0.320 A  
HETATM   14  N   UNL     1     -11.899  12.592  70.283  1.00  0.00    -0.274 NA 
HETATM   15  S   UNL     1     -13.482  13.633  72.026  1.00  0.00    -0.513 SA 
HETATM   16  C   UNL     1     -12.350  15.304  68.772  1.00  0.00     0.058 C  
HETATM   17  C   UNL     1     -12.347  13.747  70.734  1.00  0.00    -0.379 A  
HETATM   18  C   UNL     1     -11.920  15.104  70.223  1.00  0.00    -0.361 C  
HETATM   19  C   UNL     1     -10.407  15.282  70.363  1.00  0.00    -0.088 C  
ENDBRANCH  11  12
ENDBRANCH   9  11
ENDBRANCH   7   9
ENDBRANCH   5   7
ENDBRANCH   3   5
BRANCH   3  20
HETATM   20  C   UNL     1      -9.290   8.412  71.048  1.00  0.00    -0.171 C  
HETATM   21  O   UNL     1      -8.503   9.330  71.270  1.00  0.00    -0.314 OA 
HETATM   22  N   UNL     1      -9.612   8.019  69.764  1.00  0.00    -0.171 N  
HETATM   23  H   UNL     1     -10.365   7.346  69.629  1.00  0.00     0.000 HD 
BRANCH  22  24
HETATM   24  C   UNL     1      -8.909   8.536  68.592  1.00  0.00    -0.136 C  
BRANCH  24  25
HETATM   25  C   UNL     1      -9.844   9.123  67.514  1.00  0.00    -0.227 C  
BRANCH  25  26
HETATM   26  C   UNL     1     -10.114  10.634  67.504  1.00  0.00    -0.184 C  
HETATM   27  H   UNL     1     -11.697  11.766  67.615  1.00  0.00     0.000 HD 
HETATM   28  O   UNL     1     -11.530  10.831  67.621  1.00  0.00    -0.477 OA 
BRANCH  26  29
HETATM   29  C   UNL     1      -9.575  11.431  66.277  1.00  0.00    -0.213 C  
BRANCH  29  30
HETATM   30  N   UNL     1      -9.670  12.881  66.447  1.00  0.00    -0.260 N  
HETATM   31  C   UNL     1     -10.368  13.653  65.558  1.00  0.00    -0.309 C  
HETATM   32  H   UNL     1      -9.209  13.325  67.242  1.00  0.00     0.000 HD 
HETATM   33  O   UNL     1     -11.293  13.248  64.882  1.00  0.00    -0.302 OA 
BRANCH  31  34
HETATM   34  O   UNL     1      -9.846  14.897  65.508  1.00  0.00    -0.343 OA 
BRANCH  34  35
HETATM   35  C   UNL     1      -9.521  15.498  66.778  1.00  0.00    -0.237 C  
BRANCH  35  36
HETATM   36  C   UNL     1      -9.132  16.931  66.622  1.00  0.00    -0.255 A  
HETATM   37  N   UNL     1      -7.831  18.819  66.137  1.00  0.00    -0.398 NA 
HETATM   38  C   UNL     1      -7.911  17.444  66.226  1.00  0.00    -0.295 A  
HETATM   39  C   UNL     1      -8.991  19.339  66.474  1.00  0.00    -0.346 A  
HETATM   40  S   UNL     1     -10.237  18.222  66.852  1.00  0.00    -0.392 SA 
ENDBRANCH  35  36
ENDBRANCH  34  35
ENDBRANCH  31  34
ENDBRANCH  29  30
BRANCH  29  41
HETATM   41  C   UNL     1      -8.128  11.000  65.866  1.00  0.00    -0.075 C  
BRANCH  41  42
HETATM   42  C   UNL     1      -7.994  10.061  64.686  1.00  0.00    -0.145 A  
HETATM   43  C   UNL     1      -7.265   7.935  63.742  1.00  0.00    -0.092 A  
HETATM   44  C   UNL     1      -7.264   8.869  64.771  1.00  0.00    -0.092 A  
HETATM   45  C   UNL     1      -8.637  10.346  63.478  1.00  0.00    -0.188 A  
HETATM   46  C   UNL     1      -8.621   9.420  62.426  1.00  0.00    -0.221 A  
HETATM   47  C   UNL     1      -7.950   8.206  62.567  1.00  0.00    -0.158 A  
ENDBRANCH  41  42
ENDBRANCH  29  41
ENDBRANCH  26  29
ENDBRANCH  25  26
ENDBRANCH  24  25
BRANCH  24  48
HETATM   48  C   UNL     1      -7.937   7.461  68.063  1.00  0.00    -0.119 C  
BRANCH  48  49
HETATM   49  C   UNL     1      -8.354   6.029  68.299  1.00  0.00    -0.113 A  
HETATM   50  C   UNL     1      -8.121   3.951  69.538  1.00  0.00    -0.062 A  
HETATM   51  C   UNL     1      -7.764   5.283  69.328  1.00  0.00    -0.084 A  
HETATM   52  C   UNL     1      -9.069   3.346  68.716  1.00  0.00    -0.204 A  
HETATM   53  C   UNL     1      -9.660   4.074  67.684  1.00  0.00    -0.210 A  
HETATM   54  C   UNL     1      -9.300   5.406  67.470  1.00  0.00    -0.119 A  
ENDBRANCH  48  49
ENDBRANCH  24  48
ENDBRANCH  22  24
ENDBRANCH   3  20
TORSDOF 18
ENDMDL
MODEL       71
REMARK 921   NORMALIZED FREE ENERGY PREDICTED BY IDOCK:   -3.81 KCAL/MOL
REMARK 922        TOTAL FREE ENERGY PREDICTED BY IDOCK:  -12.44 KCAL/MOL
REMARK 923 INTER-LIGAND FREE ENERGY PREDICTED BY IDOCK:   -9.72 KCAL/MOL
REMARK 924 INTRA-LIGAND FREE ENERGY PREDICTED BY IDOCK:   -2.72 KCAL/MOL
REMARK 927      BINDING AFFINITY PREDICTED BY RF-SCORE:    0.00 PKD
ROOT
HETATM    1  C   UNL     1     -12.167  14.446  64.649  1.00  0.00    -0.479 C  
HETATM    2  C   UNL     1     -11.592  13.063  64.368  1.00  0.00    -0.418 C  
HETATM    3  C   UNL     1     -11.044  12.321  65.611  1.00  0.00    -0.317 C  
HETATM    4  C   UNL     1     -12.617  12.240  63.577  1.00  0.00    -0.589 C  
ENDROOT
BRANCH   3   5
HETATM    5  N   UNL     1     -12.014  11.992  66.668  1.00  0.00    -0.159 N  
HETATM    6  H   UNL     1     -12.982  11.816  66.400  1.00  0.00     0.000 HD 
BRANCH   5   7
HETATM    7  C   UNL     1     -11.680  11.909  67.992  1.00  0.00    -0.312 C  
HETATM    8  O   UNL     1     -11.874  12.843  68.767  1.00  0.00    -0.306 OA 
BRANCH   7   9
HETATM    9  N   UNL     1     -11.044  10.755  68.400  1.00  0.00    -0.245 N  
HETATM   10  C   UNL     1     -10.838   9.539  67.627  1.00  0.00    -0.187 C  
BRANCH   9  11
HETATM   11  C   UNL     1     -10.459  10.749  69.748  1.00  0.00    -0.083 C  
BRANCH  11  12
HETATM   12  C   UNL     1     -11.261   9.898  70.697  1.00  0.00    -0.344 A  
HETATM   13  C   UNL     1     -12.595  10.073  71.017  1.00  0.00    -0.367 A  
HETATM   14  N   UNL     1     -10.679   8.771  71.285  1.00  0.00    -0.246 NA 
HETATM   15  S   UNL     1     -13.135   8.825  72.052  1.00  0.00    -0.420 SA 
HETATM   16  C   UNL     1     -10.285   7.005  73.848  1.00  0.00    -0.388 C  
HETATM   17  C   UNL     1     -11.568   8.113  72.003  1.00  0.00    -0.330 A  
HETATM   18  C   UNL     1     -11.306   6.813  72.729  1.00  0.00    -0.227 C  
HETATM   19  C   UNL     1     -10.835   5.734  71.752  1.00  0.00    -0.311 C  
ENDBRANCH  11  12
ENDBRANCH   9  11
ENDBRANCH   7   9
ENDBRANCH   5   7
ENDBRANCH   3   5
BRANCH   3  20
HETATM   20  C   UNL     1      -9.705  12.940  66.126  1.00  0.00    -0.248 C  
HETATM   21  O   UNL     1      -9.527  14.148  66.273  1.00  0.00    -0.283 OA 
HETATM   22  N   UNL     1      -8.702  12.019  66.355  1.00  0.00    -0.357 N  
HETATM   23  H   UNL     1      -8.857  11.046  66.094  1.00  0.00     0.000 HD 
BRANCH  22  24
HETATM   24  C   UNL     1      -7.425  12.392  66.959  1.00  0.00    -0.034 C  
BRANCH  24  25
HETATM   25  C   UNL     1      -6.386  11.252  66.974  1.00  0.00    -0.111 C  
BRANCH  25  26
HETATM   26  C   UNL     1      -6.870   9.804  67.140  1.00  0.00    -0.083 C  
HETATM   27  H   UNL     1      -7.332   8.655  68.646  1.00  0.00     0.000 HD 
HETATM   28  O   UNL     1      -7.032   9.550  68.543  1.00  0.00    -0.064 OA 
BRANCH  26  29
HETATM   29  C   UNL     1      -5.979   8.693  66.507  1.00  0.00    -0.052 C  
BRANCH  29  30
HETATM   30  N   UNL     1      -5.532   7.692  67.477  1.00  0.00    -0.033 N  
HETATM   31  C   UNL     1      -6.421   6.834  68.067  1.00  0.00    -0.053 C  
HETATM   32  H   UNL     1      -4.542   7.633  67.718  1.00  0.00     0.000 HD 
HETATM   33  O   UNL     1      -7.475   6.493  67.568  1.00  0.00    -0.092 OA 
BRANCH  31  34
HETATM   34  O   UNL     1      -5.979   6.472  69.289  1.00  0.00    -0.020 OA 
BRANCH  34  35
HETATM   35  C   UNL     1      -6.975   5.950  70.193  1.00  0.00    -0.069 C  
BRANCH  35  36
HETATM   36  C   UNL     1      -6.907   6.618  71.527  1.00  0.00    -0.066 A  
HETATM   37  N   UNL     1      -6.757   6.885  73.851  1.00  0.00    -0.071 NA 
HETATM   38  C   UNL     1      -6.842   6.025  72.775  1.00  0.00    -0.075 A  
HETATM   39  C   UNL     1      -6.768   8.124  73.411  1.00  0.00    -0.111 A  
HETATM   40  S   UNL     1      -6.818   8.321  71.708  1.00  0.00    -0.086 SA 
ENDBRANCH  35  36
ENDBRANCH  34  35
ENDBRANCH  31  34
ENDBRANCH  29  30
BRANCH  29  41
HETATM   41  C   UNL     1      -6.647   8.020  65.262  1.00  0.00    -0.051 C  
BRANCH  41  42
HETATM   42  C   UNL     1      -7.296   8.935  64.245  1.00  0.00    -0.100 A  
HETATM   43  C   UNL     1      -9.277  10.030  63.340  1.00  0.00    -0.317 A  
HETATM   44  C   UNL     1      -8.687   9.080  64.166  1.00  0.00    -0.126 A  
HETATM   45  C   UNL     1      -6.511   9.697  63.376  1.00  0.00    -0.108 A  
HETATM   46  C   UNL     1      -7.101  10.639  62.522  1.00  0.00    -0.101 A  
HETATM   47  C   UNL     1      -8.484  10.817  62.519  1.00  0.00    -0.276 A  
ENDBRANCH  41  42
ENDBRANCH  29  41
ENDBRANCH  26  29
ENDBRANCH  25  26
ENDBRANCH  24  25
BRANCH  24  48
HETATM   48  C   UNL     1      -7.679  13.028  68.342  1.00  0.00    -0.137 C  
BRANCH  48  49
HETATM   49  C   UNL     1      -7.073  14.394  68.555  1.00  0.00    -0.109 A  
HETATM   50  C   UNL     1      -7.312  16.715  69.235  1.00  0.00    -0.184 A  
HETATM   51  C   UNL     1      -7.854  15.442  69.060  1.00  0.00    -0.194 A  
HETATM   52  C   UNL     1      -5.983  16.958  68.900  1.00  0.00    -0.159 A  
HETATM   53  C   UNL     1      -5.195  15.927  68.391  1.00  0.00    -0.103 A  
HETATM   54  C   UNL     1      -5.737  14.654  68.211  1.00  0.00    -0.117 A  
ENDBRANCH  48  49
ENDBRANCH  24  48
ENDBRANCH  22  24
ENDBRANCH   3  20
TORSDOF 18
ENDMDL
MODEL       72
REMARK 921   NORMALIZED FREE ENERGY PREDICTED BY IDOCK:   -3.78 KCAL/MOL
REMARK 922        TOTAL FREE ENERGY PREDICTED BY IDOCK:  -12.36 KCAL/MOL
REMARK 923 INTER-LIGAND FREE ENERGY PREDICTED BY IDOCK:  -10.46 KCAL/MOL
REMARK 924 INTRA-LIGAND FREE ENERGY PREDICTED BY IDOCK:   -1.90 KCAL/MOL
REMARK 927      BINDING AFFINITY PREDICTED BY RF-SCORE:    0.00 PKD
ROOT
HETATM    1  C   UNL     1      -9.479  11.249  69.044  1.00  0.00    -0.030 C  
HETATM    2  C   UNL     1      -9.290  11.495  67.552  1.00  0.00    -0.166 C  
HETATM    3  C   UNL     1      -7.838  11.823  67.126  1.00  0.00    -0.166 C  
HETATM    4  C   UNL     1      -9.902  10.330  66.765  1.00  0.00    -0.246 C  
ENDROOT
BRANCH   3   5
HETATM    5  N   UNL     1      -6.829  10.774  67.348  1.00  0.00    -0.075 N  
HETATM    6  H   UNL     1      -6.264  10.817  68.195  1.00  0.00     0.000 HD 
BRANCH   5   7
HETATM    7  C   UNL     1      -6.614   9.746  66.473  1.00  0.00    -0.072 C  
HETATM    8  O   UNL     1      -6.924   9.831  65.287  1.00  0.00    -0.099 OA 
BRANCH   7   9
HETATM    9  N   UNL     1      -6.102   8.578  67.002  1.00  0.00    -0.054 N  
HETATM   10  C   UNL     1      -5.459   8.402  68.294  1.00  0.00    -0.034 C  
BRANCH   9  11
HETATM   11  C   UNL     1      -6.257   7.354  66.204  1.00  0.00    -0.041 C  
BRANCH  11  12
HETATM   12  C   UNL     1      -7.387   6.499  66.715  1.00  0.00    -0.079 A  
HETATM   13  C   UNL     1      -8.066   6.676  67.907  1.00  0.00    -0.113 A  
HETATM   14  N   UNL     1      -7.886   5.458  65.926  1.00  0.00    -0.102 NA 
HETATM   15  S   UNL     1      -9.340   5.546  68.048  1.00  0.00    -0.113 SA 
HETATM   16  C   UNL     1      -8.930   2.504  65.758  1.00  0.00    -0.129 C  
HETATM   17  C   UNL     1      -8.927   4.895  66.507  1.00  0.00    -0.112 A  
HETATM   18  C   UNL     1      -9.756   3.780  65.912  1.00  0.00    -0.137 C  
HETATM   19  C   UNL     1     -10.344   4.204  64.565  1.00  0.00    -0.177 C  
ENDBRANCH  11  12
ENDBRANCH   9  11
ENDBRANCH   7   9
ENDBRANCH   5   7
ENDBRANCH   3   5
BRANCH   3  20
HETATM   20  C   UNL     1      -7.400  13.254  67.572  1.00  0.00    -0.152 C  
HETATM   21  O   UNL     1      -6.377  13.482  68.216  1.00  0.00    -0.083 OA 
HETATM   22  N   UNL     1      -8.288  14.256  67.232  1.00  0.00    -0.202 N  
HETATM   23  H   UNL     1      -9.182  14.000  66.815  1.00  0.00     0.000 HD 
BRANCH  22  24
HETATM   24  C   UNL     1      -7.990  15.669  67.450  1.00  0.00    -0.178 C  
BRANCH  24  25
HETATM   25  C   UNL     1      -8.522  16.219  68.789  1.00  0.00    -0.240 C  
BRANCH  25  26
HETATM   26  C   UNL     1      -9.779  15.589  69.407  1.00  0.00    -0.283 C  
HETATM   27  H   UNL     1     -10.231  13.857  70.180  1.00  0.00     0.000 HD 
HETATM   28  O   UNL     1      -9.454  14.247  69.798  1.00  0.00     0.503 OA 
BRANCH  26  29
HETATM   29  C   UNL     1     -11.062  15.578  68.521  1.00  0.00    -0.307 C  
BRANCH  29  30
HETATM   30  N   UNL     1     -11.264  14.312  67.816  1.00  0.00    -0.280 N  
HETATM   31  C   UNL     1     -11.798  14.283  66.556  1.00  0.00    -0.415 C  
HETATM   32  H   UNL     1     -11.001  13.437  68.270  1.00  0.00     0.000 HD 
HETATM   33  O   UNL     1     -11.724  15.199  65.761  1.00  0.00    -0.190 OA 
BRANCH  31  34
HETATM   34  O   UNL     1     -12.454  13.121  66.354  1.00  0.00    -0.367 OA 
BRANCH  34  35
HETATM   35  C   UNL     1     -12.749  12.792  64.981  1.00  0.00    -0.380 C  
BRANCH  35  36
HETATM   36  C   UNL     1     -11.568  12.185  64.298  1.00  0.00    -0.370 A  
HETATM   37  N   UNL     1     -10.287  10.686  63.032  1.00  0.00     0.012 NA 
HETATM   38  C   UNL     1     -11.509  10.998  63.591  1.00  0.00     0.581 A  
HETATM   39  C   UNL     1      -9.425  11.635  63.325  1.00  0.00    -0.240 A  
HETATM   40  S   UNL     1     -10.041  12.961  64.223  1.00  0.00    -0.105 SA 
ENDBRANCH  35  36
ENDBRANCH  34  35
ENDBRANCH  31  34
ENDBRANCH  29  30
BRANCH  29  41
HETATM   41  C   UNL     1     -12.344  15.998  69.314  1.00  0.00     0.220 C  
BRANCH  41  42
HETATM   42  C   UNL     1     -12.466  15.511  70.743  1.00  0.00    -0.491 A  
HETATM   43  C   UNL     1     -12.213  15.887  73.138  1.00  0.00    -0.622 A  
HETATM   44  C   UNL     1     -11.969  16.256  71.820  1.00  0.00    -0.473 A  
HETATM   45  C   UNL     1     -13.120  14.310  71.028  1.00  0.00    -0.394 A  
HETATM   46  C   UNL     1     -13.347  13.919  72.355  1.00  0.00    -0.629 A  
HETATM   47  C   UNL     1     -12.909  14.719  73.409  1.00  0.00    -0.597 A  
ENDBRANCH  41  42
ENDBRANCH  29  41
ENDBRANCH  26  29
ENDBRANCH  25  26
ENDBRANCH  24  25
BRANCH  24  48
HETATM   48  C   UNL     1      -8.434  16.482  66.216  1.00  0.00    -0.363 C  
BRANCH  48  49
HETATM   49  C   UNL     1      -8.826  17.915  66.484  1.00  0.00    -0.281 A  
HETATM   50  C   UNL     1      -8.232  20.152  67.223  1.00  0.00    -0.381 A  
HETATM   51  C   UNL     1      -7.875  18.833  66.947  1.00  0.00    -0.252 A  
HETATM   52  C   UNL     1      -9.549  20.569  67.046  1.00  0.00    -0.540 A  
HETATM   53  C   UNL     1     -10.509  19.666  66.592  1.00  0.00    -0.610 A  
HETATM   54  C   UNL     1     -10.153  18.343  66.319  1.00  0.00    -0.409 A  
ENDBRANCH  48  49
ENDBRANCH  24  48
ENDBRANCH  22  24
ENDBRANCH   3  20
TORSDOF 18
ENDMDL
MODEL       73
REMARK 921   NORMALIZED FREE ENERGY PREDICTED BY IDOCK:   -3.70 KCAL/MOL
REMARK 922        TOTAL FREE ENERGY PREDICTED BY IDOCK:  -12.20 KCAL/MOL
REMARK 923 INTER-LIGAND FREE ENERGY PREDICTED BY IDOCK:  -10.25 KCAL/MOL
REMARK 924 INTRA-LIGAND FREE ENERGY PREDICTED BY IDOCK:   -1.95 KCAL/MOL
REMARK 927      BINDING AFFINITY PREDICTED BY RF-SCORE:    0.00 PKD
ROOT
HETATM    1  C   UNL     1      -6.796  11.387  69.368  1.00  0.00    -0.112 C  
HETATM    2  C   UNL     1      -7.171  12.053  68.050  1.00  0.00    -0.096 C  
HETATM    3  C   UNL     1      -8.663  12.450  67.923  1.00  0.00    -0.175 C  
HETATM    4  C   UNL     1      -6.211  13.219  67.782  1.00  0.00    -0.159 C  
ENDROOT
BRANCH   3   5
HETATM    5  N   UNL     1      -9.165  13.453  68.877  1.00  0.00    -0.381 N  
HETATM    6  H   UNL     1      -9.359  13.158  69.834  1.00  0.00     0.000 HD 
BRANCH   5   7
HETATM    7  C   UNL     1      -9.385  14.760  68.542  1.00  0.00    -0.199 C  
HETATM    8  O   UNL     1      -9.632  15.613  69.392  1.00  0.00    -0.256 OA 
BRANCH   7   9
HETATM    9  N   UNL     1      -9.393  15.062  67.195  1.00  0.00    -0.208 N  
HETATM   10  C   UNL     1     -10.551  15.165  66.320  1.00  0.00    -0.310 C  
BRANCH   9  11
HETATM   11  C   UNL     1      -8.100  15.363  66.566  1.00  0.00     0.013 C  
BRANCH  11  12
HETATM   12  C   UNL     1      -7.482  16.612  67.138  1.00  0.00    -0.183 A  
HETATM   13  C   UNL     1      -6.453  16.660  68.062  1.00  0.00    -0.133 A  
HETATM   14  N   UNL     1      -7.895  17.868  66.682  1.00  0.00    -0.228 NA 
HETATM   15  S   UNL     1      -5.988  18.276  68.362  1.00  0.00    -0.186 SA 
HETATM   16  C   UNL     1      -8.659  20.833  67.365  1.00  0.00    -0.218 C  
HETATM   17  C   UNL     1      -7.171  18.821  67.235  1.00  0.00    -0.209 A  
HETATM   18  C   UNL     1      -7.298  20.296  66.927  1.00  0.00    -0.327 C  
HETATM   19  C   UNL     1      -7.072  20.558  65.437  1.00  0.00    -0.142 C  
ENDBRANCH  11  12
ENDBRANCH   9  11
ENDBRANCH   7   9
ENDBRANCH   5   7
ENDBRANCH   3   5
BRANCH   3  20
HETATM   20  C   UNL     1      -9.590  11.208  67.734  1.00  0.00    -0.172 C  
HETATM   21  O   UNL     1     -10.784  11.289  67.452  1.00  0.00    -0.214 OA 
HETATM   22  N   UNL     1      -8.973   9.994  67.964  1.00  0.00    -0.128 N  
HETATM   23  H   UNL     1      -8.019   9.987  68.322  1.00  0.00     0.000 HD 
BRANCH  22  24
HETATM   24  C   UNL     1      -9.642   8.720  67.711  1.00  0.00    -0.148 C  
BRANCH  24  25
HETATM   25  C   UNL     1      -9.835   7.857  68.975  1.00  0.00    -0.171 C  
BRANCH  25  26
HETATM   26  C   UNL     1      -9.471   8.448  70.345  1.00  0.00    -0.168 C  
HETATM   27  H   UNL     1      -8.002   8.233  71.608  1.00  0.00     0.000 HD 
HETATM   28  O   UNL     1      -8.227   7.867  70.760  1.00  0.00    -0.106 OA 
BRANCH  26  29
HETATM   29  C   UNL     1     -10.529   8.285  71.478  1.00  0.00    -0.227 C  
BRANCH  29  30
HETATM   30  N   UNL     1     -11.249   9.524  71.776  1.00  0.00    -0.310 N  
HETATM   31  C   UNL     1     -11.926  10.199  70.798  1.00  0.00    -0.348 C  
HETATM   32  H   UNL     1     -11.245   9.889  72.729  1.00  0.00     0.000 HD 
HETATM   33  O   UNL     1     -12.383   9.679  69.799  1.00  0.00     0.321 OA 
BRANCH  31  34
HETATM   34  O   UNL     1     -11.965  11.518  71.082  1.00  0.00    -0.169 OA 
BRANCH  34  35
HETATM   35  C   UNL     1     -13.057  11.955  71.916  1.00  0.00    -0.369 C  
BRANCH  35  36
HETATM   36  C   UNL     1     -13.097  13.443  72.032  1.00  0.00    -0.377 A  
HETATM   37  N   UNL     1     -13.210  15.574  73.001  1.00  0.00    -0.498 NA 
HETATM   38  C   UNL     1     -13.233  14.205  73.178  1.00  0.00    -0.142 A  
HETATM   39  C   UNL     1     -13.064  15.839  71.722  1.00  0.00    -0.416 A  
HETATM   40  S   UNL     1     -12.890  14.484  70.685  1.00  0.00    -0.296 SA 
ENDBRANCH  35  36
ENDBRANCH  34  35
ENDBRANCH  31  34
ENDBRANCH  29  30
BRANCH  29  41
HETATM   41  C   UNL     1     -11.518   7.102  71.214  1.00  0.00    -0.314 C  
BRANCH  41  42
HETATM   42  C   UNL     1     -11.127   5.739  71.748  1.00  0.00    -0.301 A  
HETATM   43  C   UNL     1      -9.832   3.682  71.562  1.00  0.00    -0.227 A  
HETATM   44  C   UNL     1     -10.316   4.865  71.014  1.00  0.00    -0.217 A  
HETATM   45  C   UNL     1     -11.540   5.332  73.020  1.00  0.00    -0.290 A  
HETATM   46  C   UNL     1     -11.076   4.129  73.569  1.00  0.00    -0.359 A  
HETATM   47  C   UNL     1     -10.207   3.314  72.845  1.00  0.00    -0.235 A  
ENDBRANCH  41  42
ENDBRANCH  29  41
ENDBRANCH  26  29
ENDBRANCH  25  26
ENDBRANCH  24  25
BRANCH  24  48
HETATM   48  C   UNL     1      -8.930   7.989  66.554  1.00  0.00    -0.188 C  
BRANCH  48  49
HETATM   49  C   UNL     1      -8.158   8.870  65.600  1.00  0.00    -0.113 A  
HETATM   50  C   UNL     1      -8.088  10.231  63.589  1.00  0.00    -0.149 A  
HETATM   51  C   UNL     1      -8.797   9.438  64.491  1.00  0.00    -0.235 A  
HETATM   52  C   UNL     1      -6.729  10.459  63.781  1.00  0.00    -0.003 A  
HETATM   53  C   UNL     1      -6.077   9.895  64.877  1.00  0.00    -0.103 A  
HETATM   54  C   UNL     1      -6.785   9.098  65.778  1.00  0.00    -0.072 A  
ENDBRANCH  48  49
ENDBRANCH  24  48
ENDBRANCH  22  24
ENDBRANCH   3  20
TORSDOF 18
ENDMDL
MODEL       74
REMARK 921   NORMALIZED FREE ENERGY PREDICTED BY IDOCK:   -3.69 KCAL/MOL
REMARK 922        TOTAL FREE ENERGY PREDICTED BY IDOCK:  -12.19 KCAL/MOL
REMARK 923 INTER-LIGAND FREE ENERGY PREDICTED BY IDOCK:   -9.98 KCAL/MOL
REMARK 924 INTRA-LIGAND FREE ENERGY PREDICTED BY IDOCK:   -2.21 KCAL/MOL
REMARK 927      BINDING AFFINITY PREDICTED BY RF-SCORE:    0.00 PKD
ROOT
HETATM    1  C   UNL     1      -5.915  15.500  69.571  1.00  0.00    -0.126 C  
HETATM    2  C   UNL     1      -5.913  14.721  68.262  1.00  0.00    -0.122 C  
HETATM    3  C   UNL     1      -7.277  14.101  67.871  1.00  0.00    -0.158 C  
HETATM    4  C   UNL     1      -5.306  15.593  67.155  1.00  0.00     0.343 C  
ENDROOT
BRANCH   3   5
HETATM    5  N   UNL     1      -8.383  15.039  67.616  1.00  0.00    -0.153 N  
HETATM    6  H   UNL     1      -8.364  15.948  68.078  1.00  0.00     0.000 HD 
BRANCH   5   7
HETATM    7  C   UNL     1      -9.433  14.751  66.788  1.00  0.00    -0.254 C  
HETATM    8  O   UNL     1      -9.575  13.637  66.288  1.00  0.00    -0.276 OA 
BRANCH   7   9
HETATM    9  N   UNL     1     -10.283  15.793  66.479  1.00  0.00    -0.276 N  
HETATM   10  C   UNL     1     -10.827  16.131  65.172  1.00  0.00    -0.361 C  
BRANCH   9  11
HETATM   11  C   UNL     1     -10.739  16.641  67.588  1.00  0.00    -0.306 C  
BRANCH  11  12
HETATM   12  C   UNL     1     -10.142  18.021  67.514  1.00  0.00    -0.351 A  
HETATM   13  C   UNL     1     -10.833  19.194  67.268  1.00  0.00    -0.431 A  
HETATM   14  N   UNL     1      -8.781  18.209  67.778  1.00  0.00    -0.252 NA 
HETATM   15  S   UNL     1      -9.788  20.542  67.372  1.00  0.00    -0.350 SA 
HETATM   16  C   UNL     1      -6.088  19.624  67.014  1.00  0.00    -0.184 C  
HETATM   17  C   UNL     1      -8.478  19.491  67.754  1.00  0.00    -0.315 A  
HETATM   18  C   UNL     1      -7.113  20.066  68.057  1.00  0.00    -0.322 C  
HETATM   19  C   UNL     1      -6.657  19.665  69.461  1.00  0.00    -0.383 C  
ENDBRANCH  11  12
ENDBRANCH   9  11
ENDBRANCH   7   9
ENDBRANCH   5   7
ENDBRANCH   3   5
BRANCH   3  20
HETATM   20  C   UNL     1      -7.652  12.882  68.772  1.00  0.00    -0.025 C  
HETATM   21  O   UNL     1      -6.937  12.462  69.680  1.00  0.00     0.061 OA 
HETATM   22  N   UNL     1      -8.840  12.265  68.433  1.00  0.00    -0.289 N  
HETATM   23  H   UNL     1      -9.331  12.569  67.592  1.00  0.00     0.000 HD 
BRANCH  22  24
HETATM   24  C   UNL     1      -9.420  11.193  69.238  1.00  0.00     0.119 C  
BRANCH  24  25
HETATM   25  C   UNL     1      -8.703   9.836  69.076  1.00  0.00    -0.148 C  
BRANCH  25  26
HETATM   26  C   UNL     1      -8.817   8.795  70.198  1.00  0.00    -0.154 C  
HETATM   27  H   UNL     1      -7.953   8.504  71.921  1.00  0.00     0.000 HD 
HETATM   28  O   UNL     1      -7.882   9.149  71.227  1.00  0.00    -0.276 OA 
BRANCH  26  29
HETATM   29  C   UNL     1      -8.607   7.304  69.791  1.00  0.00    -0.141 C  
BRANCH  29  30
HETATM   30  N   UNL     1      -9.165   6.983  68.477  1.00  0.00    -0.137 N  
HETATM   31  C   UNL     1     -10.176   6.071  68.343  1.00  0.00    -0.181 C  
HETATM   32  H   UNL     1      -8.793   7.447  67.647  1.00  0.00     0.000 HD 
HETATM   33  O   UNL     1     -10.981   5.810  69.215  1.00  0.00    -0.330 OA 
BRANCH  31  34
HETATM   34  O   UNL     1     -10.112   5.477  67.132  1.00  0.00    -0.151 OA 
BRANCH  34  35
HETATM   35  C   UNL     1      -9.144   6.019  66.212  1.00  0.00    -0.150 C  
BRANCH  35  36
HETATM   36  C   UNL     1      -8.905   5.097  65.062  1.00  0.00    -0.134 A  
HETATM   37  N   UNL     1      -8.158   4.320  62.981  1.00  0.00    -0.079 NA 
HETATM   38  C   UNL     1      -8.269   5.373  63.866  1.00  0.00    -0.127 A  
HETATM   39  C   UNL     1      -8.720   3.255  63.509  1.00  0.00    -0.089 A  
HETATM   40  S   UNL     1      -9.347   3.440  65.095  1.00  0.00    -0.150 SA 
ENDBRANCH  35  36
ENDBRANCH  34  35
ENDBRANCH  31  34
ENDBRANCH  29  30
BRANCH  29  41
HETATM   41  C   UNL     1      -7.112   6.855  69.900  1.00  0.00    -0.071 C  
BRANCH  41  42
HETATM   42  C   UNL     1      -6.771   5.836  70.967  1.00  0.00    -0.053 A  
HETATM   43  C   UNL     1      -5.240   4.194  71.916  1.00  0.00     0.000 A  
HETATM   44  C   UNL     1      -5.638   5.019  70.870  1.00  0.00    -0.012 A  
HETATM   45  C   UNL     1      -7.568   5.713  72.109  1.00  0.00    -0.101 A  
HETATM   46  C   UNL     1      -7.186   4.864  73.156  1.00  0.00    -0.085 A  
HETATM   47  C   UNL     1      -6.011   4.119  73.066  1.00  0.00    -0.015 A  
ENDBRANCH  41  42
ENDBRANCH  29  41
ENDBRANCH  26  29
ENDBRANCH  25  26
ENDBRANCH  24  25
BRANCH  24  48
HETATM   48  C   UNL     1     -10.941  11.132  68.992  1.00  0.00    -0.286 C  
BRANCH  48  49
HETATM   49  C   UNL     1     -11.807  11.625  70.126  1.00  0.00    -0.428 A  
HETATM   50  C   UNL     1     -13.257  11.156  72.019  1.00  0.00    -0.428 A  
HETATM   51  C   UNL     1     -12.434  10.712  70.985  1.00  0.00    -0.515 A  
HETATM   52  C   UNL     1     -13.471  12.519  72.204  1.00  0.00    -0.523 A  
HETATM   53  C   UNL     1     -12.859  13.440  71.355  1.00  0.00    -0.420 A  
HETATM   54  C   UNL     1     -12.038  12.997  70.316  1.00  0.00    -0.388 A  
ENDBRANCH  48  49
ENDBRANCH  24  48
ENDBRANCH  22  24
ENDBRANCH   3  20
TORSDOF 18
ENDMDL
MODEL       75
REMARK 921   NORMALIZED FREE ENERGY PREDICTED BY IDOCK:   -3.69 KCAL/MOL
REMARK 922        TOTAL FREE ENERGY PREDICTED BY IDOCK:  -12.19 KCAL/MOL
REMARK 923 INTER-LIGAND FREE ENERGY PREDICTED BY IDOCK:  -12.13 KCAL/MOL
REMARK 924 INTRA-LIGAND FREE ENERGY PREDICTED BY IDOCK:   -0.06 KCAL/MOL
REMARK 927      BINDING AFFINITY PREDICTED BY RF-SCORE:    0.00 PKD
ROOT
HETATM    1  C   UNL     1     -11.835  14.339  69.398  1.00  0.00    -0.372 C  
HETATM    2  C   UNL     1     -10.366  14.012  69.160  1.00  0.00    -0.064 C  
HETATM    3  C   UNL     1     -10.108  12.904  68.110  1.00  0.00    -0.240 C  
HETATM    4  C   UNL     1      -9.599  15.309  68.872  1.00  0.00    -0.220 C  
ENDROOT
BRANCH   3   5
HETATM    5  N   UNL     1     -10.541  13.185  66.730  1.00  0.00    -0.262 N  
HETATM    6  H   UNL     1     -10.169  12.605  65.978  1.00  0.00     0.000 HD 
BRANCH   5   7
HETATM    7  C   UNL     1     -11.416  14.186  66.410  1.00  0.00    -0.354 C  
HETATM    8  O   UNL     1     -12.519  14.274  66.944  1.00  0.00    -0.338 OA 
BRANCH   7   9
HETATM    9  N   UNL     1     -11.032  15.046  65.401  1.00  0.00    -0.352 N  
HETATM   10  C   UNL     1     -11.846  15.531  64.297  1.00  0.00    -0.173 C  
BRANCH   9  11
HETATM   11  C   UNL     1      -9.666  15.581  65.457  1.00  0.00    -0.272 C  
BRANCH  11  12
HETATM   12  C   UNL     1      -9.651  17.022  65.894  1.00  0.00    -0.112 A  
HETATM   13  C   UNL     1     -10.742  17.749  66.338  1.00  0.00    -0.097 A  
HETATM   14  N   UNL     1      -8.442  17.724  65.945  1.00  0.00    -0.525 NA 
HETATM   15  S   UNL     1     -10.264  19.314  66.829  1.00  0.00    -0.447 SA 
HETATM   16  C   UNL     1      -6.882  20.389  65.390  1.00  0.00    -0.284 C  
HETATM   17  C   UNL     1      -8.630  18.932  66.439  1.00  0.00    -0.294 A  
HETATM   18  C   UNL     1      -7.537  19.944  66.697  1.00  0.00    -0.293 C  
HETATM   19  C   UNL     1      -6.489  19.375  67.655  1.00  0.00    -0.232 C  
ENDBRANCH  11  12
ENDBRANCH   9  11
ENDBRANCH   7   9
ENDBRANCH   5   7
ENDBRANCH   3   5
BRANCH   3  20
HETATM   20  C   UNL     1     -10.495  11.487  68.638  1.00  0.00    -0.202 C  
HETATM   21  O   UNL     1     -11.544  10.915  68.345  1.00  0.00    -0.339 OA 
HETATM   22  N   UNL     1      -9.582  10.936  69.516  1.00  0.00    -0.423 N  
HETATM   23  H   UNL     1      -8.795  11.503  69.828  1.00  0.00     0.000 HD 
BRANCH  22  24
HETATM   24  C   UNL     1      -9.707   9.568  70.013  1.00  0.00    -0.236 C  
BRANCH  24  25
HETATM   25  C   UNL     1      -9.820   8.508  68.898  1.00  0.00    -0.181 C  
BRANCH  25  26
HETATM   26  C   UNL     1      -8.538   7.975  68.243  1.00  0.00    -0.130 C  
HETATM   27  H   UNL     1      -6.648   8.452  68.292  1.00  0.00     0.000 HD 
HETATM   28  O   UNL     1      -7.441   8.781  68.697  1.00  0.00    -0.088 OA 
BRANCH  26  29
HETATM   29  C   UNL     1      -8.526   7.906  66.686  1.00  0.00    -0.131 C  
BRANCH  29  30
HETATM   30  N   UNL     1      -8.435   6.539  66.171  1.00  0.00    -0.132 N  
HETATM   31  C   UNL     1      -9.420   5.623  66.424  1.00  0.00    -0.155 C  
HETATM   32  H   UNL     1      -7.625   6.265  65.615  1.00  0.00     0.000 HD 
HETATM   33  O   UNL     1     -10.579   5.910  66.650  1.00  0.00    -0.263 OA 
BRANCH  31  34
HETATM   34  O   UNL     1      -8.905   4.375  66.435  1.00  0.00    -0.112 OA 
BRANCH  34  35
HETATM   35  C   UNL     1      -9.407   3.493  67.460  1.00  0.00    -0.206 C  
BRANCH  35  36
HETATM   36  C   UNL     1      -8.414   3.310  68.560  1.00  0.00    -0.083 A  
HETATM   37  N   UNL     1      -7.277   2.329  70.359  1.00  0.00    -0.033 NA 
HETATM   38  C   UNL     1      -8.316   2.260  69.454  1.00  0.00    -0.049 A  
HETATM   39  C   UNL     1      -6.599   3.436  70.151  1.00  0.00    -0.033 A  
HETATM   40  S   UNL     1      -7.127   4.408  68.839  1.00  0.00    -0.052 SA 
ENDBRANCH  35  36
ENDBRANCH  34  35
ENDBRANCH  31  34
ENDBRANCH  29  30
BRANCH  29  41
HETATM   41  C   UNL     1      -9.723   8.679  66.039  1.00  0.00    -0.238 C  
BRANCH  41  42
HETATM   42  C   UNL     1      -9.417   9.553  64.840  1.00  0.00    -0.230 A  
HETATM   43  C   UNL     1      -8.363   9.872  62.665  1.00  0.00    -0.161 A  
HETATM   44  C   UNL     1      -8.529   9.143  63.837  1.00  0.00    -0.189 A  
HETATM   45  C   UNL     1     -10.051  10.789  64.685  1.00  0.00    -0.410 A  
HETATM   46  C   UNL     1      -9.869  11.541  63.517  1.00  0.00    -0.407 A  
HETATM   47  C   UNL     1      -9.038  11.072  62.499  1.00  0.00    -0.362 A  
ENDBRANCH  41  42
ENDBRANCH  29  41
ENDBRANCH  26  29
ENDBRANCH  25  26
ENDBRANCH  24  25
BRANCH  24  48
HETATM   48  C   UNL     1     -10.840   9.504  71.058  1.00  0.00    -0.423 C  
BRANCH  48  49
HETATM   49  C   UNL     1     -10.950   8.208  71.825  1.00  0.00    -0.322 A  
HETATM   50  C   UNL     1     -10.237   6.789  73.664  1.00  0.00    -0.354 A  
HETATM   51  C   UNL     1     -10.163   7.992  72.964  1.00  0.00    -0.357 A  
HETATM   52  C   UNL     1     -11.094   5.781  73.229  1.00  0.00    -0.252 A  
HETATM   53  C   UNL     1     -11.878   5.978  72.094  1.00  0.00    -0.304 A  
HETATM   54  C   UNL     1     -11.802   7.181  71.389  1.00  0.00    -0.344 A  
ENDBRANCH  48  49
ENDBRANCH  24  48
ENDBRANCH  22  24
ENDBRANCH   3  20
TORSDOF 18
ENDMDL
MODEL       76
REMARK 921   NORMALIZED FREE ENERGY PREDICTED BY IDOCK:   -3.66 KCAL/MOL
REMARK 922        TOTAL FREE ENERGY PREDICTED BY IDOCK:  -12.12 KCAL/MOL
REMARK 923 INTER-LIGAND FREE ENERGY PREDICTED BY IDOCK:   -9.24 KCAL/MOL
REMARK 924 INTRA-LIGAND FREE ENERGY PREDICTED BY IDOCK:   -2.88 KCAL/MOL
REMARK 927      BINDING AFFINITY PREDICTED BY RF-SCORE:    0.00 PKD
ROOT
HETATM    1  C   UNL     1     -12.615   7.156  72.110  1.00  0.00    -0.160 C  
HETATM    2  C   UNL     1     -11.158   6.711  72.083  1.00  0.00    -0.288 C  
HETATM    3  C   UNL     1     -10.263   7.473  71.075  1.00  0.00    -0.190 C  
HETATM    4  C   UNL     1     -10.600   6.719  73.512  1.00  0.00    -0.358 C  
ENDROOT
BRANCH   3   5
HETATM    5  N   UNL     1     -10.093   8.918  71.301  1.00  0.00    -0.267 N  
HETATM    6  H   UNL     1      -9.391   9.224  71.975  1.00  0.00     0.000 HD 
BRANCH   5   7
HETATM    7  C   UNL     1     -10.829   9.869  70.650  1.00  0.00    -0.330 C  
HETATM    8  O   UNL     1     -11.916  10.250  71.078  1.00  0.00    -0.329 OA 
BRANCH   7   9
HETATM    9  N   UNL     1     -10.328  10.325  69.447  1.00  0.00    -0.221 N  
HETATM   10  C   UNL     1      -8.937  10.597  69.116  1.00  0.00    -0.128 C  
BRANCH   9  11
HETATM   11  C   UNL     1     -11.285  10.520  68.350  1.00  0.00    -0.279 C  
BRANCH  11  12
HETATM   12  C   UNL     1     -11.476  11.979  68.033  1.00  0.00    -0.328 A  
HETATM   13  C   UNL     1     -11.782  12.509  66.792  1.00  0.00    -0.384 A  
HETATM   14  N   UNL     1     -11.422  12.930  69.058  1.00  0.00    -0.289 NA 
HETATM   15  S   UNL     1     -12.011  14.199  66.897  1.00  0.00    -0.434 SA 
HETATM   16  C   UNL     1     -10.448  15.749  70.030  1.00  0.00    -0.313 C  
HETATM   17  C   UNL     1     -11.707  14.129  68.591  1.00  0.00    -0.350 A  
HETATM   18  C   UNL     1     -11.803  15.385  69.427  1.00  0.00    -0.372 C  
HETATM   19  C   UNL     1     -12.853  15.222  70.528  1.00  0.00    -0.421 C  
ENDBRANCH  11  12
ENDBRANCH   9  11
ENDBRANCH   7   9
ENDBRANCH   5   7
ENDBRANCH   3   5
BRANCH   3  20
HETATM   20  C   UNL     1     -10.569   7.076  69.596  1.00  0.00    -0.234 C  
HETATM   21  O   UNL     1     -11.685   6.747  69.198  1.00  0.00    -0.049 OA 
HETATM   22  N   UNL     1      -9.465   7.070  68.766  1.00  0.00    -0.137 N  
HETATM   23  H   UNL     1      -8.543   7.223  69.173  1.00  0.00     0.000 HD 
BRANCH  22  24
HETATM   24  C   UNL     1      -9.574   6.852  67.326  1.00  0.00    -0.142 C  
BRANCH  24  25
HETATM   25  C   UNL     1      -9.929   5.401  66.941  1.00  0.00    -0.209 C  
BRANCH  25  26
HETATM   26  C   UNL     1      -9.010   4.261  67.402  1.00  0.00    -0.120 C  
HETATM   27  H   UNL     1      -8.214   3.712  69.095  1.00  0.00     0.000 HD 
HETATM   28  O   UNL     1      -8.783   4.418  68.810  1.00  0.00    -0.090 OA 
BRANCH  26  29
HETATM   29  C   UNL     1      -7.643   4.124  66.665  1.00  0.00    -0.089 C  
BRANCH  29  30
HETATM   30  N   UNL     1      -6.526   3.853  67.570  1.00  0.00    -0.037 N  
HETATM   31  C   UNL     1      -6.468   2.693  68.293  1.00  0.00    -0.029 C  
HETATM   32  H   UNL     1      -5.777   4.540  67.662  1.00  0.00     0.000 HD 
HETATM   33  O   UNL     1      -6.999   1.652  67.958  1.00  0.00    -0.035 OA 
BRANCH  31  34
HETATM   34  O   UNL     1      -5.788   2.892  69.442  1.00  0.00    -0.021 OA 
BRANCH  34  35
HETATM   35  C   UNL     1      -5.404   4.253  69.722  1.00  0.00    -0.008 C  
BRANCH  35  36
HETATM   36  C   UNL     1      -5.980   4.729  71.015  1.00  0.00    -0.017 A  
HETATM   37  N   UNL     1      -6.623   6.185  72.735  1.00  0.00    -0.064 NA 
HETATM   38  C   UNL     1      -5.992   6.017  71.519  1.00  0.00    -0.035 A  
HETATM   39  C   UNL     1      -7.076   5.023  73.148  1.00  0.00    -0.084 A  
HETATM   40  S   UNL     1      -6.828   3.696  72.088  1.00  0.00    -0.023 SA 
ENDBRANCH  35  36
ENDBRANCH  34  35
ENDBRANCH  31  34
ENDBRANCH  29  30
BRANCH  29  41
HETATM   41  C   UNL     1      -7.691   3.087  65.494  1.00  0.00    -0.081 C  
BRANCH  41  42
HETATM   42  C   UNL     1      -8.623   3.389  64.339  1.00  0.00    -0.093 A  
HETATM   43  C   UNL     1     -10.745   3.056  63.186  1.00  0.00    -0.230 A  
HETATM   44  C   UNL     1      -9.818   2.682  64.152  1.00  0.00    -0.132 A  
HETATM   45  C   UNL     1      -8.329   4.420  63.442  1.00  0.00    -0.104 A  
HETATM   46  C   UNL     1      -9.249   4.787  62.451  1.00  0.00    -0.085 A  
HETATM   47  C   UNL     1     -10.465   4.115  62.336  1.00  0.00    -0.153 A  
ENDBRANCH  41  42
ENDBRANCH  29  41
ENDBRANCH  26  29
ENDBRANCH  25  26
ENDBRANCH  24  25
BRANCH  24  48
HETATM   48  C   UNL     1      -8.309   7.395  66.629  1.00  0.00    -0.124 C  
BRANCH  48  49
HETATM   49  C   UNL     1      -8.551   8.242  65.402  1.00  0.00    -0.176 A  
HETATM   50  C   UNL     1      -9.587  10.175  64.356  1.00  0.00    -0.366 A  
HETATM   51  C   UNL     1      -9.335   9.400  65.488  1.00  0.00    -0.315 A  
HETATM   52  C   UNL     1      -9.065   9.796  63.122  1.00  0.00    -0.270 A  
HETATM   53  C   UNL     1      -8.288   8.643  63.020  1.00  0.00    -0.153 A  
HETATM   54  C   UNL     1      -8.039   7.864  64.151  1.00  0.00    -0.093 A  
ENDBRANCH  48  49
ENDBRANCH  24  48
ENDBRANCH  22  24
ENDBRANCH   3  20
TORSDOF 18
ENDMDL
MODEL       77
REMARK 921   NORMALIZED FREE ENERGY PREDICTED BY IDOCK:   -3.66 KCAL/MOL
REMARK 922        TOTAL FREE ENERGY PREDICTED BY IDOCK:  -12.12 KCAL/MOL
REMARK 923 INTER-LIGAND FREE ENERGY PREDICTED BY IDOCK:  -10.45 KCAL/MOL
REMARK 924 INTRA-LIGAND FREE ENERGY PREDICTED BY IDOCK:   -1.67 KCAL/MOL
REMARK 927      BINDING AFFINITY PREDICTED BY RF-SCORE:    0.00 PKD
ROOT
HETATM    1  C   UNL     1      -8.353  10.589  69.692  1.00  0.00    -0.010 C  
HETATM    2  C   UNL     1      -7.972  11.315  68.408  1.00  0.00    -0.140 C  
HETATM    3  C   UNL     1      -9.167  11.713  67.507  1.00  0.00    -0.172 C  
HETATM    4  C   UNL     1      -7.052  12.494  68.747  1.00  0.00    -0.092 C  
ENDROOT
BRANCH   3   5
HETATM    5  N   UNL     1     -10.133  12.669  68.071  1.00  0.00    -0.223 N  
HETATM    6  H   UNL     1     -10.476  12.510  69.018  1.00  0.00     0.000 HD 
BRANCH   5   7
HETATM    7  C   UNL     1     -10.594  13.760  67.387  1.00  0.00    -0.260 C  
HETATM    8  O   UNL     1     -11.592  13.701  66.673  1.00  0.00    -0.332 OA 
BRANCH   7   9
HETATM    9  N   UNL     1      -9.838  14.912  67.476  1.00  0.00    -0.217 N  
HETATM   10  C   UNL     1      -9.308  15.529  68.682  1.00  0.00    -0.201 C  
BRANCH   9  11
HETATM   11  C   UNL     1      -9.479  15.579  66.218  1.00  0.00    -0.323 C  
BRANCH  11  12
HETATM   12  C   UNL     1      -9.603  17.076  66.328  1.00  0.00    -0.267 A  
HETATM   13  C   UNL     1     -10.783  17.798  66.313  1.00  0.00    -0.098 A  
HETATM   14  N   UNL     1      -8.462  17.857  66.538  1.00  0.00    -0.266 NA 
HETATM   15  S   UNL     1     -10.476  19.459  66.568  1.00  0.00    -0.489 SA 
HETATM   16  C   UNL     1      -6.850  20.459  65.851  1.00  0.00    -0.276 C  
HETATM   17  C   UNL     1      -8.792  19.123  66.700  1.00  0.00    -0.324 A  
HETATM   18  C   UNL     1      -7.821  20.240  67.009  1.00  0.00    -0.368 C  
HETATM   19  C   UNL     1      -7.058  19.950  68.303  1.00  0.00    -0.336 C  
ENDBRANCH  11  12
ENDBRANCH   9  11
ENDBRANCH   7   9
ENDBRANCH   5   7
ENDBRANCH   3   5
BRANCH   3  20
HETATM   20  C   UNL     1      -9.809  10.479  66.798  1.00  0.00    -0.193 C  
HETATM   21  O   UNL     1     -10.926  10.495  66.284  1.00  0.00    -0.063 OA 
HETATM   22  N   UNL     1      -9.040   9.332  66.838  1.00  0.00    -0.129 N  
HETATM   23  H   UNL     1      -8.181   9.335  67.388  1.00  0.00     0.000 HD 
BRANCH  22  24
HETATM   24  C   UNL     1      -9.414   8.117  66.120  1.00  0.00    -0.147 C  
BRANCH  24  25
HETATM   25  C   UNL     1     -10.187   7.097  66.982  1.00  0.00    -0.339 C  
BRANCH  25  26
HETATM   26  C   UNL     1     -10.243   7.297  68.503  1.00  0.00    -0.181 C  
HETATM   27  H   UNL     1      -8.934   7.604  69.916  1.00  0.00     0.000 HD 
HETATM   28  O   UNL     1      -8.900   7.480  68.974  1.00  0.00    -0.133 OA 
BRANCH  26  29
HETATM   29  C   UNL     1     -10.938   6.173  69.330  1.00  0.00    -0.385 C  
BRANCH  29  30
HETATM   30  N   UNL     1     -10.358   4.849  69.102  1.00  0.00    -0.117 N  
HETATM   31  C   UNL     1      -9.047   4.591  69.400  1.00  0.00    -0.112 C  
HETATM   32  H   UNL     1     -10.941   4.106  68.715  1.00  0.00     0.000 HD 
HETATM   33  O   UNL     1      -8.407   5.189  70.241  1.00  0.00    -0.094 OA 
BRANCH  31  34
HETATM   34  O   UNL     1      -8.567   3.621  68.592  1.00  0.00    -0.083 OA 
BRANCH  34  35
HETATM   35  C   UNL     1      -9.380   3.290  67.448  1.00  0.00    -0.201 C  
BRANCH  35  36
HETATM   36  C   UNL     1      -8.555   3.145  66.213  1.00  0.00    -0.119 A  
HETATM   37  N   UNL     1      -6.708   2.708  64.837  1.00  0.00    -0.038 NA 
HETATM   38  C   UNL     1      -7.220   2.798  66.116  1.00  0.00    -0.066 A  
HETATM   39  C   UNL     1      -7.657   2.996  63.974  1.00  0.00    -0.071 A  
HETATM   40  S   UNL     1      -9.205   3.327  64.637  1.00  0.00    -0.147 SA 
ENDBRANCH  35  36
ENDBRANCH  34  35
ENDBRANCH  31  34
ENDBRANCH  29  30
BRANCH  29  41
HETATM   41  C   UNL     1     -11.011   6.506  70.857  1.00  0.00    -0.325 C  
BRANCH  41  42
HETATM   42  C   UNL     1     -12.132   7.417  71.315  1.00  0.00    -0.359 A  
HETATM   43  C   UNL     1     -14.410   7.733  72.120  1.00  0.00    -0.376 A  
HETATM   44  C   UNL     1     -13.423   6.933  71.557  1.00  0.00    -0.290 A  
HETATM   45  C   UNL     1     -11.890   8.774  71.547  1.00  0.00    -0.377 A  
HETATM   46  C   UNL     1     -12.889   9.593  72.091  1.00  0.00    -0.460 A  
HETATM   47  C   UNL     1     -14.143   9.066  72.395  1.00  0.00    -0.478 A  
ENDBRANCH  41  42
ENDBRANCH  29  41
ENDBRANCH  26  29
ENDBRANCH  25  26
ENDBRANCH  24  25
BRANCH  24  48
HETATM   48  C   UNL     1      -8.169   7.531  65.421  1.00  0.00    -0.136 C  
BRANCH  48  49
HETATM   49  C   UNL     1      -7.370   8.504  64.587  1.00  0.00    -0.092 A  
HETATM   50  C   UNL     1      -7.256  10.115  62.771  1.00  0.00    -0.135 A  
HETATM   51  C   UNL     1      -7.991   9.234  63.564  1.00  0.00    -0.144 A  
HETATM   52  C   UNL     1      -5.890  10.271  62.984  1.00  0.00    -0.138 A  
HETATM   53  C   UNL     1      -5.257   9.547  63.994  1.00  0.00    -0.061 A  
HETATM   54  C   UNL     1      -5.990   8.662  64.786  1.00  0.00    -0.064 A  
ENDBRANCH  48  49
ENDBRANCH  24  48
ENDBRANCH  22  24
ENDBRANCH   3  20
TORSDOF 18
ENDMDL
MODEL       78
REMARK 921   NORMALIZED FREE ENERGY PREDICTED BY IDOCK:   -3.63 KCAL/MOL
REMARK 922        TOTAL FREE ENERGY PREDICTED BY IDOCK:  -12.05 KCAL/MOL
REMARK 923 INTER-LIGAND FREE ENERGY PREDICTED BY IDOCK:   -9.34 KCAL/MOL
REMARK 924 INTRA-LIGAND FREE ENERGY PREDICTED BY IDOCK:   -2.71 KCAL/MOL
REMARK 927      BINDING AFFINITY PREDICTED BY RF-SCORE:    0.00 PKD
ROOT
HETATM    1  C   UNL     1     -12.253  14.481  64.943  1.00  0.00    -0.409 C  
HETATM    2  C   UNL     1     -11.733  13.103  64.552  1.00  0.00    -0.417 C  
HETATM    3  C   UNL     1     -11.123  12.283  65.715  1.00  0.00    -0.323 C  
HETATM    4  C   UNL     1     -12.827  12.347  63.788  1.00  0.00    -0.379 C  
ENDROOT
BRANCH   3   5
HETATM    5  N   UNL     1     -12.031  11.918  66.815  1.00  0.00    -0.086 N  
HETATM    6  H   UNL     1     -13.016  11.764  66.600  1.00  0.00     0.000 HD 
BRANCH   5   7
HETATM    7  C   UNL     1     -11.617  11.774  68.111  1.00  0.00    -0.323 C  
HETATM    8  O   UNL     1     -11.736  12.681  68.931  1.00  0.00    -0.290 OA 
BRANCH   7   9
HETATM    9  N   UNL     1     -10.988  10.588  68.433  1.00  0.00    -0.242 N  
HETATM   10  C   UNL     1     -10.874   9.397  67.607  1.00  0.00    -0.154 C  
BRANCH   9  11
HETATM   11  C   UNL     1     -10.310  10.519  69.734  1.00  0.00    -0.166 C  
BRANCH  11  12
HETATM   12  C   UNL     1     -11.091   9.696  70.724  1.00  0.00    -0.334 A  
HETATM   13  C   UNL     1     -12.420   9.879  71.064  1.00  0.00    -0.346 A  
HETATM   14  N   UNL     1     -10.496   8.589  71.337  1.00  0.00    -0.219 NA 
HETATM   15  S   UNL     1     -12.937   8.664  72.147  1.00  0.00    -0.392 SA 
HETATM   16  C   UNL     1     -10.050   6.906  73.946  1.00  0.00    -0.391 C  
HETATM   17  C   UNL     1     -11.369   7.952  72.091  1.00  0.00    -0.313 A  
HETATM   18  C   UNL     1     -11.092   6.677  72.853  1.00  0.00    -0.263 C  
HETATM   19  C   UNL     1     -10.636   5.568  71.902  1.00  0.00    -0.293 C  
ENDBRANCH  11  12
ENDBRANCH   9  11
ENDBRANCH   7   9
ENDBRANCH   5   7
ENDBRANCH   3   5
BRANCH   3  20
HETATM   20  C   UNL     1      -9.739  12.844  66.171  1.00  0.00    -0.248 C  
HETATM   21  O   UNL     1      -9.503  14.043  66.310  1.00  0.00    -0.278 OA 
HETATM   22  N   UNL     1      -8.767  11.881  66.359  1.00  0.00    -0.327 N  
HETATM   23  H   UNL     1      -8.975  10.916  66.106  1.00  0.00     0.000 HD 
BRANCH  22  24
HETATM   24  C   UNL     1      -7.451  12.198  66.909  1.00  0.00    -0.019 C  
BRANCH  24  25
HETATM   25  C   UNL     1      -6.468  11.010  66.896  1.00  0.00    -0.108 C  
BRANCH  25  26
HETATM   26  C   UNL     1      -7.017   9.586  67.059  1.00  0.00    -0.085 C  
HETATM   27  H   UNL     1      -7.383   8.399  68.562  1.00  0.00     0.000 HD 
HETATM   28  O   UNL     1      -7.043   9.280  68.461  1.00  0.00    -0.070 OA 
BRANCH  26  29
HETATM   29  C   UNL     1      -6.267   8.456  66.292  1.00  0.00    -0.049 C  
BRANCH  29  30
HETATM   30  N   UNL     1      -5.814   7.371  67.163  1.00  0.00    -0.030 N  
HETATM   31  C   UNL     1      -5.544   6.127  66.661  1.00  0.00    -0.013 C  
HETATM   32  H   UNL     1      -5.699   7.545  68.162  1.00  0.00     0.000 HD 
HETATM   33  O   UNL     1      -5.204   5.912  65.514  1.00  0.00    -0.009 OA 
BRANCH  31  34
HETATM   34  O   UNL     1      -5.759   5.185  67.603  1.00  0.00    -0.016 OA 
BRANCH  34  35
HETATM   35  C   UNL     1      -6.841   5.443  68.521  1.00  0.00    -0.056 C  
BRANCH  35  36
HETATM   36  C   UNL     1      -7.678   4.226  68.738  1.00  0.00    -0.066 A  
HETATM   37  N   UNL     1      -8.755   2.463  69.845  1.00  0.00    -0.060 NA 
HETATM   38  C   UNL     1      -7.911   3.552  69.923  1.00  0.00    -0.047 A  
HETATM   39  C   UNL     1      -9.150   2.314  68.600  1.00  0.00    -0.149 A  
HETATM   40  S   UNL     1      -8.586   3.490  67.484  1.00  0.00    -0.109 SA 
ENDBRANCH  35  36
ENDBRANCH  34  35
ENDBRANCH  31  34
ENDBRANCH  29  30
BRANCH  29  41
HETATM   41  C   UNL     1      -7.085   7.905  65.077  1.00  0.00    -0.060 C  
BRANCH  41  42
HETATM   42  C   UNL     1      -7.598   8.916  64.072  1.00  0.00    -0.121 A  
HETATM   43  C   UNL     1      -9.399  10.303  63.192  1.00  0.00    -0.343 A  
HETATM   44  C   UNL     1      -8.952   9.268  64.006  1.00  0.00    -0.107 A  
HETATM   45  C   UNL     1      -6.714   9.559  63.201  1.00  0.00    -0.103 A  
HETATM   46  C   UNL     1      -7.163  10.585  62.359  1.00  0.00    -0.161 A  
HETATM   47  C   UNL     1      -8.503  10.969  62.370  1.00  0.00    -0.319 A  
ENDBRANCH  41  42
ENDBRANCH  29  41
ENDBRANCH  26  29
ENDBRANCH  25  26
ENDBRANCH  24  25
BRANCH  24  48
HETATM   48  C   UNL     1      -7.620  12.859  68.292  1.00  0.00    -0.134 C  
BRANCH  48  49
HETATM   49  C   UNL     1      -7.123  14.281  68.403  1.00  0.00    -0.105 A  
HETATM   50  C   UNL     1      -7.448  16.566  69.163  1.00  0.00    -0.218 A  
HETATM   51  C   UNL     1      -7.884  15.245  69.078  1.00  0.00    -0.184 A  
HETATM   52  C   UNL     1      -6.248  16.944  68.566  1.00  0.00    -0.146 A  
HETATM   53  C   UNL     1      -5.483  15.998  67.886  1.00  0.00    -0.145 A  
HETATM   54  C   UNL     1      -5.920  14.675  67.796  1.00  0.00    -0.119 A  
ENDBRANCH  48  49
ENDBRANCH  24  48
ENDBRANCH  22  24
ENDBRANCH   3  20
TORSDOF 18
ENDMDL
MODEL       79
REMARK 921   NORMALIZED FREE ENERGY PREDICTED BY IDOCK:   -3.62 KCAL/MOL
REMARK 922        TOTAL FREE ENERGY PREDICTED BY IDOCK:  -12.04 KCAL/MOL
REMARK 923 INTER-LIGAND FREE ENERGY PREDICTED BY IDOCK:   -9.42 KCAL/MOL
REMARK 924 INTRA-LIGAND FREE ENERGY PREDICTED BY IDOCK:   -2.62 KCAL/MOL
REMARK 927      BINDING AFFINITY PREDICTED BY RF-SCORE:    0.00 PKD
ROOT
HETATM    1  C   UNL     1     -14.304   7.855  71.327  1.00  0.00    -0.407 C  
HETATM    2  C   UNL     1     -13.087   8.491  71.989  1.00  0.00    -0.403 C  
HETATM    3  C   UNL     1     -11.878   8.713  71.048  1.00  0.00    -0.265 C  
HETATM    4  C   UNL     1     -13.520   9.763  72.727  1.00  0.00     0.145 C  
ENDROOT
BRANCH   3   5
HETATM    5  N   UNL     1     -12.076   9.638  69.920  1.00  0.00    -0.413 N  
HETATM    6  H   UNL     1     -12.936   9.563  69.376  1.00  0.00     0.000 HD 
BRANCH   5   7
HETATM    7  C   UNL     1     -11.164  10.593  69.566  1.00  0.00    -0.272 C  
HETATM    8  O   UNL     1      -9.959  10.355  69.534  1.00  0.00    -0.227 OA 
BRANCH   7   9
HETATM    9  N   UNL     1     -11.655  11.860  69.322  1.00  0.00    -0.290 N  
HETATM   10  C   UNL     1     -11.912  12.910  70.296  1.00  0.00    -0.283 C  
BRANCH   9  11
HETATM   11  C   UNL     1     -11.909  12.224  67.922  1.00  0.00    -0.293 C  
BRANCH  11  12
HETATM   12  C   UNL     1     -10.903  13.225  67.418  1.00  0.00    -0.267 A  
HETATM   13  C   UNL     1     -11.058  14.051  66.318  1.00  0.00    -0.307 A  
HETATM   14  N   UNL     1      -9.714  13.436  68.123  1.00  0.00    -0.222 NA 
HETATM   15  S   UNL     1      -9.720  15.102  66.161  1.00  0.00    -0.331 SA 
HETATM   16  C   UNL     1      -6.612  13.893  68.041  1.00  0.00    -0.145 C  
HETATM   17  C   UNL     1      -9.018  14.412  67.574  1.00  0.00    -0.190 A  
HETATM   18  C   UNL     1      -7.710  14.951  68.108  1.00  0.00    -0.117 C  
HETATM   19  C   UNL     1      -7.880  15.459  69.541  1.00  0.00    -0.204 C  
ENDBRANCH  11  12
ENDBRANCH   9  11
ENDBRANCH   7   9
ENDBRANCH   5   7
ENDBRANCH   3   5
BRANCH   3  20
HETATM   20  C   UNL     1     -11.165   7.374  70.676  1.00  0.00    -0.270 C  
HETATM   21  O   UNL     1     -11.499   6.668  69.726  1.00  0.00    -0.351 OA 
HETATM   22  N   UNL     1     -10.150   7.009  71.537  1.00  0.00    -0.188 N  
HETATM   23  H   UNL     1      -9.998   7.560  72.382  1.00  0.00     0.000 HD 
BRANCH  22  24
HETATM   24  C   UNL     1      -9.285   5.860  71.281  1.00  0.00    -0.143 C  
BRANCH  24  25
HETATM   25  C   UNL     1      -8.471   5.972  69.975  1.00  0.00    -0.131 C  
BRANCH  25  26
HETATM   26  C   UNL     1      -8.056   4.688  69.243  1.00  0.00    -0.069 C  
HETATM   27  H   UNL     1      -6.514   3.496  69.291  1.00  0.00     0.000 HD 
HETATM   28  O   UNL     1      -6.771   4.290  69.744  1.00  0.00    -0.033 OA 
BRANCH  26  29
HETATM   29  C   UNL     1      -8.012   4.755  67.686  1.00  0.00    -0.094 C  
BRANCH  29  30
HETATM   30  N   UNL     1      -7.697   3.469  67.064  1.00  0.00    -0.079 N  
HETATM   31  C   UNL     1      -7.031   3.406  65.870  1.00  0.00    -0.061 C  
HETATM   32  H   UNL     1      -7.978   2.605  67.528  1.00  0.00     0.000 HD 
HETATM   33  O   UNL     1      -6.273   4.265  65.464  1.00  0.00    -0.026 OA 
BRANCH  31  34
HETATM   34  O   UNL     1      -7.380   2.288  65.198  1.00  0.00    -0.056 OA 
BRANCH  34  35
HETATM   35  C   UNL     1      -8.748   1.858  65.353  1.00  0.00    -0.117 C  
BRANCH  35  36
HETATM   36  C   UNL     1      -9.589   2.282  64.194  1.00  0.00    -0.137 A  
HETATM   37  N   UNL     1     -11.244   2.221  62.536  1.00  0.00    -0.200 NA 
HETATM   38  C   UNL     1     -10.604   1.576  63.575  1.00  0.00    -0.107 A  
HETATM   39  C   UNL     1     -10.703   3.407  62.369  1.00  0.00    -0.170 A  
HETATM   40  S   UNL     1      -9.458   3.831  63.472  1.00  0.00    -0.138 SA 
ENDBRANCH  35  36
ENDBRANCH  34  35
ENDBRANCH  31  34
ENDBRANCH  29  30
BRANCH  29  41
HETATM   41  C   UNL     1      -9.308   5.381  67.073  1.00  0.00    -0.121 C  
BRANCH  41  42
HETATM   42  C   UNL     1      -9.190   6.765  66.467  1.00  0.00    -0.190 A  
HETATM   43  C   UNL     1      -8.341   8.254  64.734  1.00  0.00    -0.129 A  
HETATM   44  C   UNL     1      -8.338   7.026  65.387  1.00  0.00    -0.121 A  
HETATM   45  C   UNL     1      -9.968   7.819  66.955  1.00  0.00    -0.331 A  
HETATM   46  C   UNL     1      -9.956   9.067  66.317  1.00  0.00    -0.352 A  
HETATM   47  C   UNL     1      -9.156   9.277  65.195  1.00  0.00    -0.263 A  
ENDBRANCH  41  42
ENDBRANCH  29  41
ENDBRANCH  26  29
ENDBRANCH  25  26
ENDBRANCH  24  25
BRANCH  24  48
HETATM   48  C   UNL     1     -10.111   4.562  71.396  1.00  0.00    -0.230 C  
BRANCH  48  49
HETATM   49  C   UNL     1      -9.686   3.612  72.491  1.00  0.00    -0.207 A  
HETATM   50  C   UNL     1      -7.954   2.721  73.943  1.00  0.00    -0.060 A  
HETATM   51  C   UNL     1      -8.363   3.612  72.952  1.00  0.00    -0.086 A  
HETATM   52  C   UNL     1      -8.861   1.812  74.481  1.00  0.00    -0.066 A  
HETATM   53  C   UNL     1     -10.179   1.796  74.029  1.00  0.00    -0.152 A  
HETATM   54  C   UNL     1     -10.590   2.684  73.033  1.00  0.00    -0.247 A  
ENDBRANCH  48  49
ENDBRANCH  24  48
ENDBRANCH  22  24
ENDBRANCH   3  20
TORSDOF 18
ENDMDL
MODEL       80
REMARK 921   NORMALIZED FREE ENERGY PREDICTED BY IDOCK:   -3.54 KCAL/MOL
REMARK 922        TOTAL FREE ENERGY PREDICTED BY IDOCK:  -11.87 KCAL/MOL
REMARK 923 INTER-LIGAND FREE ENERGY PREDICTED BY IDOCK:  -10.06 KCAL/MOL
REMARK 924 INTRA-LIGAND FREE ENERGY PREDICTED BY IDOCK:   -1.81 KCAL/MOL
REMARK 927      BINDING AFFINITY PREDICTED BY RF-SCORE:    0.00 PKD
ROOT
HETATM    1  C   UNL     1      -6.642  11.976  67.406  1.00  0.00    -0.134 C  
HETATM    2  C   UNL     1      -6.840  11.703  68.892  1.00  0.00    -0.101 C  
HETATM    3  C   UNL     1      -7.337  10.277  69.231  1.00  0.00    -0.099 C  
HETATM    4  C   UNL     1      -5.566  12.095  69.652  1.00  0.00    -0.090 C  
ENDROOT
BRANCH   3   5
HETATM    5  N   UNL     1      -6.444   9.161  68.875  1.00  0.00    -0.048 N  
HETATM    6  H   UNL     1      -5.556   9.376  68.423  1.00  0.00     0.000 HD 
BRANCH   5   7
HETATM    7  C   UNL     1      -6.749   7.851  69.122  1.00  0.00    -0.048 C  
HETATM    8  O   UNL     1      -7.091   7.467  70.238  1.00  0.00    -0.062 OA 
BRANCH   7   9
HETATM    9  N   UNL     1      -6.578   6.967  68.076  1.00  0.00    -0.056 N  
HETATM   10  C   UNL     1      -5.372   6.230  67.730  1.00  0.00    -0.005 C  
BRANCH   9  11
HETATM   11  C   UNL     1      -7.749   6.688  67.233  1.00  0.00    -0.104 C  
BRANCH  11  12
HETATM   12  C   UNL     1      -8.189   5.253  67.351  1.00  0.00    -0.103 A  
HETATM   13  C   UNL     1      -8.676   4.643  68.493  1.00  0.00    -0.098 A  
HETATM   14  N   UNL     1      -8.195   4.429  66.221  1.00  0.00    -0.102 NA 
HETATM   15  S   UNL     1      -9.153   3.036  68.161  1.00  0.00    -0.187 SA 
HETATM   16  C   UNL     1      -7.587   1.618  64.967  1.00  0.00    -0.062 C  
HETATM   17  C   UNL     1      -8.699   3.247  66.513  1.00  0.00    -0.129 A  
HETATM   18  C   UNL     1      -8.916   2.127  65.521  1.00  0.00    -0.120 C  
HETATM   19  C   UNL     1      -9.832   2.583  64.383  1.00  0.00    -0.052 C  
ENDBRANCH  11  12
ENDBRANCH   9  11
ENDBRANCH   7   9
ENDBRANCH   5   7
ENDBRANCH   3   5
BRANCH   3  20
HETATM   20  C   UNL     1      -8.833  10.064  68.838  1.00  0.00    -0.148 C  
HETATM   21  O   UNL     1      -9.192   9.500  67.805  1.00  0.00    -0.125 OA 
HETATM   22  N   UNL     1      -9.740  10.612  69.724  1.00  0.00    -0.414 N  
HETATM   23  H   UNL     1      -9.392  11.182  70.495  1.00  0.00     0.000 HD 
BRANCH  22  24
HETATM   24  C   UNL     1     -11.180  10.405  69.594  1.00  0.00    -0.277 C  
BRANCH  24  25
HETATM   25  C   UNL     1     -11.936  11.621  69.019  1.00  0.00    -0.368 C  
BRANCH  25  26
HETATM   26  C   UNL     1     -11.139  12.866  68.606  1.00  0.00    -0.269 C  
HETATM   27  H   UNL     1     -10.005  14.161  69.522  1.00  0.00     0.000 HD 
HETATM   28  O   UNL     1     -10.498  13.391  69.778  1.00  0.00     0.433 OA 
BRANCH  26  29
HETATM   29  C   UNL     1     -11.936  14.001  67.894  1.00  0.00    -0.351 C  
BRANCH  29  30
HETATM   30  N   UNL     1     -11.138  15.204  67.659  1.00  0.00    -0.310 N  
HETATM   31  C   UNL     1      -9.812  15.120  67.334  1.00  0.00    -0.224 C  
HETATM   32  H   UNL     1     -11.578  16.122  67.739  1.00  0.00     0.000 HD 
HETATM   33  O   UNL     1      -9.303  14.165  66.779  1.00  0.00    -0.261 OA 
BRANCH  31  34
HETATM   34  O   UNL     1      -9.155  16.218  67.762  1.00  0.00    -0.194 OA 
BRANCH  34  35
HETATM   35  C   UNL     1      -9.958  17.400  67.960  1.00  0.00    -0.302 C  
BRANCH  35  36
HETATM   36  C   UNL     1      -9.518  18.517  67.072  1.00  0.00    -0.288 A  
HETATM   37  N   UNL     1      -9.632  20.298  65.553  1.00  0.00    -0.032 NA 
HETATM   38  C   UNL     1     -10.297  19.310  66.250  1.00  0.00    -0.480 A  
HETATM   39  C   UNL     1      -8.351  20.241  65.846  1.00  0.00     0.019 A  
HETATM   40  S   UNL     1      -7.893  19.058  67.000  1.00  0.00    -0.248 SA 
ENDBRANCH  35  36
ENDBRANCH  34  35
ENDBRANCH  31  34
ENDBRANCH  29  30
BRANCH  29  41
HETATM   41  C   UNL     1     -12.633  13.515  66.580  1.00  0.00    -0.181 C  
BRANCH  41  42
HETATM   42  C   UNL     1     -11.779  12.764  65.579  1.00  0.00    -0.436 A  
HETATM   43  C   UNL     1     -10.478  10.798  64.957  1.00  0.00    -0.307 A  
HETATM   44  C   UNL     1     -11.135  11.566  65.913  1.00  0.00    -0.274 A  
HETATM   45  C   UNL     1     -11.642  13.235  64.271  1.00  0.00    -0.444 A  
HETATM   46  C   UNL     1     -10.960  12.479  63.308  1.00  0.00    -0.248 A  
HETATM   47  C   UNL     1     -10.394  11.251  63.650  1.00  0.00    -0.464 A  
ENDBRANCH  41  42
ENDBRANCH  29  41
ENDBRANCH  26  29
ENDBRANCH  25  26
ENDBRANCH  24  25
BRANCH  24  48
HETATM   48  C   UNL     1     -11.746   9.890  70.934  1.00  0.00    -0.449 C  
BRANCH  48  49
HETATM   49  C   UNL     1     -11.271   8.522  71.362  1.00  0.00    -0.327 A  
HETATM   50  C   UNL     1     -10.011   7.121  72.896  1.00  0.00    -0.233 A  
HETATM   51  C   UNL     1     -10.477   8.376  72.507  1.00  0.00    -0.372 A  
HETATM   52  C   UNL     1     -10.327   5.995  72.141  1.00  0.00    -0.232 A  
HETATM   53  C   UNL     1     -11.111   6.125  70.995  1.00  0.00    -0.359 A  
HETATM   54  C   UNL     1     -11.574   7.381  70.602  1.00  0.00    -0.295 A  
ENDBRANCH  48  49
ENDBRANCH  24  48
ENDBRANCH  22  24
ENDBRANCH   3  20
TORSDOF 18
ENDMDL
MODEL       81
REMARK 921   NORMALIZED FREE ENERGY PREDICTED BY IDOCK:   -3.32 KCAL/MOL
REMARK 922        TOTAL FREE ENERGY PREDICTED BY IDOCK:  -11.42 KCAL/MOL
REMARK 923 INTER-LIGAND FREE ENERGY PREDICTED BY IDOCK:   -8.96 KCAL/MOL
REMARK 924 INTRA-LIGAND FREE ENERGY PREDICTED BY IDOCK:   -2.46 KCAL/MOL
REMARK 927      BINDING AFFINITY PREDICTED BY RF-SCORE:    0.00 PKD
ROOT
HETATM    1  C   UNL     1      -8.802   9.035  70.842  1.00  0.00    -0.294 C  
HETATM    2  C   UNL     1      -7.917   9.596  69.736  1.00  0.00    -0.154 C  
HETATM    3  C   UNL     1      -8.680  10.292  68.582  1.00  0.00    -0.133 C  
HETATM    4  C   UNL     1      -6.828  10.479  70.359  1.00  0.00    -0.012 C  
ENDROOT
BRANCH   3   5
HETATM    5  N   UNL     1      -9.458  11.493  68.931  1.00  0.00    -0.399 N  
HETATM    6  H   UNL     1      -9.795  11.590  69.888  1.00  0.00     0.000 HD 
BRANCH   5   7
HETATM    7  C   UNL     1      -9.749  12.483  68.034  1.00  0.00    -0.215 C  
HETATM    8  O   UNL     1     -10.770  12.456  67.351  1.00  0.00    -0.222 OA 
BRANCH   7   9
HETATM    9  N   UNL     1      -8.802  13.474  67.876  1.00  0.00    -0.179 N  
HETATM   10  C   UNL     1      -7.635  13.721  68.708  1.00  0.00    -0.099 C  
BRANCH   9  11
HETATM   11  C   UNL     1      -8.946  14.362  66.714  1.00  0.00    -0.233 C  
BRANCH  11  12
HETATM   12  C   UNL     1      -9.414  15.735  67.120  1.00  0.00    -0.213 A  
HETATM   13  C   UNL     1     -10.662  16.053  67.624  1.00  0.00    -0.320 A  
HETATM   14  N   UNL     1      -8.528  16.817  67.072  1.00  0.00    -0.188 NA 
HETATM   15  S   UNL     1     -10.738  17.706  68.049  1.00  0.00    -0.244 SA 
HETATM   16  C   UNL     1      -8.041  19.832  66.355  1.00  0.00    -0.350 C  
HETATM   17  C   UNL     1      -9.100  17.903  67.553  1.00  0.00    -0.245 A  
HETATM   18  C   UNL     1      -8.419  19.244  67.712  1.00  0.00    -0.340 C  
HETATM   19  C   UNL     1      -7.184  19.119  68.606  1.00  0.00    -0.356 C  
ENDBRANCH  11  12
ENDBRANCH   9  11
ENDBRANCH   7   9
ENDBRANCH   5   7
ENDBRANCH   3   5
BRANCH   3  20
HETATM   20  C   UNL     1      -9.431   9.271  67.671  1.00  0.00    -0.132 C  
HETATM   21  O   UNL     1     -10.657   9.204  67.591  1.00  0.00    -0.258 OA 
HETATM   22  N   UNL     1      -8.606   8.398  66.990  1.00  0.00    -0.121 N  
HETATM   23  H   UNL     1      -7.606   8.409  67.189  1.00  0.00     0.000 HD 
BRANCH  22  24
HETATM   24  C   UNL     1      -9.115   7.460  65.993  1.00  0.00    -0.085 C  
BRANCH  24  25
HETATM   25  C   UNL     1      -9.523   6.092  66.577  1.00  0.00    -0.177 C  
BRANCH  25  26
HETATM   26  C   UNL     1      -9.299   5.822  68.071  1.00  0.00    -0.109 C  
HETATM   27  H   UNL     1      -7.771   5.877  69.281  1.00  0.00     0.000 HD 
HETATM   28  O   UNL     1      -7.910   6.044  68.357  1.00  0.00    -0.103 OA 
BRANCH  26  29
HETATM   29  C   UNL     1      -9.722   4.417  68.598  1.00  0.00    -0.120 C  
BRANCH  29  30
HETATM   30  N   UNL     1      -9.455   3.340  67.644  1.00  0.00    -0.225 N  
HETATM   31  C   UNL     1      -8.232   2.729  67.594  1.00  0.00    -0.080 C  
HETATM   32  H   UNL     1     -10.193   3.040  67.007  1.00  0.00     0.000 HD 
HETATM   33  O   UNL     1      -7.465   2.656  68.534  1.00  0.00    -0.048 OA 
BRANCH  31  34
HETATM   34  O   UNL     1      -7.989   2.272  66.347  1.00  0.00    -0.075 OA 
BRANCH  34  35
HETATM   35  C   UNL     1      -7.850   3.276  65.321  1.00  0.00    -0.082 C  
BRANCH  35  36
HETATM   36  C   UNL     1      -8.918   3.151  64.285  1.00  0.00    -0.108 A  
HETATM   37  N   UNL     1     -10.154   3.561  62.336  1.00  0.00    -0.118 NA 
HETATM   38  C   UNL     1      -9.091   3.912  63.143  1.00  0.00    -0.111 A  
HETATM   39  C   UNL     1     -10.784   2.541  62.876  1.00  0.00    -0.196 A  
HETATM   40  S   UNL     1     -10.111   1.920  64.326  1.00  0.00     0.184 SA 
ENDBRANCH  35  36
ENDBRANCH  34  35
ENDBRANCH  31  34
ENDBRANCH  29  30
BRANCH  29  41
HETATM   41  C   UNL     1      -9.118   4.094  70.005  1.00  0.00    -0.182 C  
BRANCH  41  42
HETATM   42  C   UNL     1      -9.903   4.549  71.218  1.00  0.00    -0.260 A  
HETATM   43  C   UNL     1     -10.565   4.257  73.546  1.00  0.00    -0.291 A  
HETATM   44  C   UNL     1      -9.975   3.775  72.383  1.00  0.00    -0.232 A  
HETATM   45  C   UNL     1     -10.551   5.788  71.217  1.00  0.00    -0.319 A  
HETATM   46  C   UNL     1     -11.169   6.269  72.379  1.00  0.00    -0.320 A  
HETATM   47  C   UNL     1     -11.159   5.510  73.548  1.00  0.00    -0.220 A  
ENDBRANCH  41  42
ENDBRANCH  29  41
ENDBRANCH  26  29
ENDBRANCH  25  26
ENDBRANCH  24  25
BRANCH  24  48
HETATM   48  C   UNL     1      -8.120   7.370  64.818  1.00  0.00    -0.104 C  
BRANCH  48  49
HETATM   49  C   UNL     1      -7.940   8.637  64.015  1.00  0.00    -0.158 A  
HETATM   50  C   UNL     1      -8.879  10.645  63.021  1.00  0.00    -0.236 A  
HETATM   51  C   UNL     1      -9.029   9.487  63.783  1.00  0.00    -0.211 A  
HETATM   52  C   UNL     1      -7.639  10.964  62.474  1.00  0.00    -0.054 A  
HETATM   53  C   UNL     1      -6.547  10.125  62.692  1.00  0.00    -0.127 A  
HETATM   54  C   UNL     1      -6.696   8.963  63.451  1.00  0.00    -0.089 A  
ENDBRANCH  48  49
ENDBRANCH  24  48
ENDBRANCH  22  24
ENDBRANCH   3  20
TORSDOF 18
ENDMDL
MODEL       82
REMARK 921   NORMALIZED FREE ENERGY PREDICTED BY IDOCK:   -3.32 KCAL/MOL
REMARK 922        TOTAL FREE ENERGY PREDICTED BY IDOCK:  -11.42 KCAL/MOL
REMARK 923 INTER-LIGAND FREE ENERGY PREDICTED BY IDOCK:   -8.11 KCAL/MOL
REMARK 924 INTRA-LIGAND FREE ENERGY PREDICTED BY IDOCK:   -3.31 KCAL/MOL
REMARK 927      BINDING AFFINITY PREDICTED BY RF-SCORE:    0.00 PKD
ROOT
HETATM    1  C   UNL     1      -9.093   8.129  71.990  1.00  0.00    -0.241 C  
HETATM    2  C   UNL     1      -9.844   9.076  71.061  1.00  0.00    -0.352 C  
HETATM    3  C   UNL     1      -9.838   8.663  69.568  1.00  0.00    -0.187 C  
HETATM    4  C   UNL     1     -11.253   9.317  71.615  1.00  0.00    -0.449 C  
ENDROOT
BRANCH   3   5
HETATM    5  N   UNL     1     -10.494   7.389  69.230  1.00  0.00    -0.217 N  
HETATM    6  H   UNL     1     -11.512   7.350  69.244  1.00  0.00     0.000 HD 
BRANCH   5   7
HETATM    7  C   UNL     1      -9.802   6.257  68.898  1.00  0.00    -0.134 C  
HETATM    8  O   UNL     1      -9.076   5.683  69.706  1.00  0.00    -0.134 OA 
BRANCH   7   9
HETATM    9  N   UNL     1      -9.899   5.833  67.588  1.00  0.00    -0.119 N  
HETATM   10  C   UNL     1     -10.262   6.631  66.426  1.00  0.00     0.043 C  
BRANCH   9  11
HETATM   11  C   UNL     1      -9.556   4.433  67.307  1.00  0.00    -0.189 C  
BRANCH  11  12
HETATM   12  C   UNL     1      -8.216   4.315  66.630  1.00  0.00    -0.102 A  
HETATM   13  C   UNL     1      -6.994   4.179  67.265  1.00  0.00    -0.059 A  
HETATM   14  N   UNL     1      -8.140   4.261  65.235  1.00  0.00    -0.100 NA 
HETATM   15  S   UNL     1      -5.741   3.976  66.121  1.00  0.00    -0.019 SA 
HETATM   16  C   UNL     1      -6.686   5.168  62.607  1.00  0.00    -0.026 C  
HETATM   17  C   UNL     1      -6.896   4.064  64.847  1.00  0.00    -0.049 A  
HETATM   18  C   UNL     1      -6.451   3.891  63.412  1.00  0.00    -0.026 C  
HETATM   19  C   UNL     1      -7.171   2.708  62.762  1.00  0.00    -0.043 C  
ENDBRANCH  11  12
ENDBRANCH   9  11
ENDBRANCH   7   9
ENDBRANCH   5   7
ENDBRANCH   3   5
BRANCH   3  20
HETATM   20  C   UNL     1      -8.441   8.874  68.903  1.00  0.00    -0.131 C  
HETATM   21  O   UNL     1      -7.403   8.369  69.326  1.00  0.00    -0.068 OA 
HETATM   22  N   UNL     1      -8.449   9.727  67.817  1.00  0.00    -0.121 N  
HETATM   23  H   UNL     1      -9.310  10.222  67.585  1.00  0.00     0.000 HD 
BRANCH  22  24
HETATM   24  C   UNL     1      -7.266   9.945  66.988  1.00  0.00    -0.090 C  
BRANCH  24  25
HETATM   25  C   UNL     1      -6.936  11.434  66.752  1.00  0.00    -0.128 C  
BRANCH  25  26
HETATM   26  C   UNL     1      -6.314  12.249  67.894  1.00  0.00    -0.088 C  
HETATM   27  H   UNL     1      -5.341  11.834  69.532  1.00  0.00     0.000 HD 
HETATM   28  O   UNL     1      -5.726  11.329  68.826  1.00  0.00    -0.043 OA 
BRANCH  26  29
HETATM   29  C   UNL     1      -7.263  13.226  68.652  1.00  0.00    -0.106 C  
BRANCH  29  30
HETATM   30  N   UNL     1      -6.973  14.635  68.383  1.00  0.00    -0.105 N  
HETATM   31  C   UNL     1      -6.188  15.369  69.229  1.00  0.00    -0.124 C  
HETATM   32  H   UNL     1      -7.363  15.077  67.550  1.00  0.00     0.000 HD 
HETATM   33  O   UNL     1      -5.331  14.896  69.950  1.00  0.00    -0.094 OA 
BRANCH  31  34
HETATM   34  O   UNL     1      -6.539  16.672  69.181  1.00  0.00    -0.181 OA 
BRANCH  34  35
HETATM   35  C   UNL     1      -5.459  17.612  69.006  1.00  0.00    -0.175 C  
BRANCH  35  36
HETATM   36  C   UNL     1      -5.854  18.737  68.107  1.00  0.00    -0.207 A  
HETATM   37  N   UNL     1      -5.951  20.109  66.209  1.00  0.00    -0.172 NA 
HETATM   38  C   UNL     1      -5.392  19.012  66.833  1.00  0.00    -0.155 A  
HETATM   39  C   UNL     1      -6.827  20.662  67.018  1.00  0.00    -0.301 A  
HETATM   40  S   UNL     1      -7.068  19.874  68.523  1.00  0.00    -0.276 SA 
ENDBRANCH  35  36
ENDBRANCH  34  35
ENDBRANCH  31  34
ENDBRANCH  29  30
BRANCH  29  41
HETATM   41  C   UNL     1      -8.775  12.901  68.417  1.00  0.00    -0.119 C  
BRANCH  41  42
HETATM   42  C   UNL     1      -9.517  13.751  67.405  1.00  0.00    -0.224 A  
HETATM   43  C   UNL     1     -10.375  14.094  65.150  1.00  0.00    -0.429 A  
HETATM   44  C   UNL     1      -9.572  13.403  66.050  1.00  0.00    -0.174 A  
HETATM   45  C   UNL     1     -10.206  14.896  67.813  1.00  0.00    -0.236 A  
HETATM   46  C   UNL     1     -10.998  15.612  66.905  1.00  0.00    -0.243 A  
HETATM   47  C   UNL     1     -11.096  15.199  65.577  1.00  0.00    -0.347 A  
ENDBRANCH  41  42
ENDBRANCH  29  41
ENDBRANCH  26  29
ENDBRANCH  25  26
ENDBRANCH  24  25
BRANCH  24  48
HETATM   48  C   UNL     1      -7.388   9.116  65.693  1.00  0.00    -0.086 C  
BRANCH  48  49
HETATM   49  C   UNL     1      -8.086   9.801  64.542  1.00  0.00    -0.146 A  
HETATM   50  C   UNL     1      -7.983  10.892  62.373  1.00  0.00    -0.200 A  
HETATM   51  C   UNL     1      -7.353  10.235  63.429  1.00  0.00    -0.097 A  
HETATM   52  C   UNL     1      -9.354  11.130  62.419  1.00  0.00    -0.186 A  
HETATM   53  C   UNL     1     -10.096  10.710  63.521  1.00  0.00    -0.288 A  
HETATM   54  C   UNL     1      -9.466  10.056  64.582  1.00  0.00    -0.367 A  
ENDBRANCH  48  49
ENDBRANCH  24  48
ENDBRANCH  22  24
ENDBRANCH   3  20
TORSDOF 18
ENDMDL
MODEL       83
REMARK 921   NORMALIZED FREE ENERGY PREDICTED BY IDOCK:   -3.18 KCAL/MOL
REMARK 922        TOTAL FREE ENERGY PREDICTED BY IDOCK:  -11.14 KCAL/MOL
REMARK 923 INTER-LIGAND FREE ENERGY PREDICTED BY IDOCK:   -9.09 KCAL/MOL
REMARK 924 INTRA-LIGAND FREE ENERGY PREDICTED BY IDOCK:   -2.05 KCAL/MOL
REMARK 927      BINDING AFFINITY PREDICTED BY RF-SCORE:    0.00 PKD
ROOT
HETATM    1  C   UNL     1     -12.538   6.864  71.922  1.00  0.00    -0.336 C  
HETATM    2  C   UNL     1     -11.024   6.731  71.802  1.00  0.00    -0.266 C  
HETATM    3  C   UNL     1     -10.354   7.757  70.856  1.00  0.00    -0.200 C  
HETATM    4  C   UNL     1     -10.406   6.709  73.206  1.00  0.00    -0.275 C  
ENDROOT
BRANCH   3   5
HETATM    5  N   UNL     1     -10.464   9.176  71.233  1.00  0.00    -0.302 N  
HETATM    6  H   UNL     1      -9.871   9.525  71.986  1.00  0.00     0.000 HD 
BRANCH   5   7
HETATM    7  C   UNL     1     -11.322  10.049  70.622  1.00  0.00    -0.348 C  
HETATM    8  O   UNL     1     -12.504  10.127  70.947  1.00  0.00    -0.317 OA 
BRANCH   7   9
HETATM    9  N   UNL     1     -10.813  10.784  69.570  1.00  0.00    -0.238 N  
HETATM   10  C   UNL     1      -9.413  11.011  69.247  1.00  0.00     0.043 C  
BRANCH   9  11
HETATM   11  C   UNL     1     -11.779  11.371  68.631  1.00  0.00    -0.329 C  
BRANCH  11  12
HETATM   12  C   UNL     1     -11.661  12.871  68.580  1.00  0.00    -0.316 A  
HETATM   13  C   UNL     1     -12.073  13.754  69.563  1.00  0.00    -0.334 A  
HETATM   14  N   UNL     1     -11.022  13.485  67.498  1.00  0.00    -0.264 NA 
HETATM   15  S   UNL     1     -11.659  15.358  69.145  1.00  0.00    -0.357 SA 
HETATM   16  C   UNL     1     -10.976  15.823  65.406  1.00  0.00    -0.317 C  
HETATM   17  C   UNL     1     -10.940  14.787  67.687  1.00  0.00    -0.291 A  
HETATM   18  C   UNL     1     -10.257  15.759  66.752  1.00  0.00    -0.284 C  
HETATM   19  C   UNL     1      -8.788  15.380  66.558  1.00  0.00    -0.347 C  
ENDBRANCH  11  12
ENDBRANCH   9  11
ENDBRANCH   7   9
ENDBRANCH   5   7
ENDBRANCH   3   5
BRANCH   3  20
HETATM   20  C   UNL     1     -10.652   7.457  69.353  1.00  0.00    -0.226 C  
HETATM   21  O   UNL     1     -11.733   7.038  68.945  1.00  0.00     0.271 OA 
HETATM   22  N   UNL     1      -9.576   7.649  68.508  1.00  0.00    -0.147 N  
HETATM   23  H   UNL     1      -8.667   7.871  68.912  1.00  0.00     0.000 HD 
BRANCH  22  24
HETATM   24  C   UNL     1      -9.697   7.545  67.057  1.00  0.00    -0.198 C  
BRANCH  24  25
HETATM   25  C   UNL     1      -9.680   6.095  66.532  1.00  0.00    -0.184 C  
BRANCH  25  26
HETATM   26  C   UNL     1      -8.738   5.076  67.188  1.00  0.00    -0.103 C  
HETATM   27  H   UNL     1      -8.589   4.247  68.947  1.00  0.00     0.000 HD 
HETATM   28  O   UNL     1      -9.173   4.877  68.541  1.00  0.00    -0.109 OA 
BRANCH  26  29
HETATM   29  C   UNL     1      -7.217   5.421  67.173  1.00  0.00    -0.075 C  
BRANCH  29  30
HETATM   30  N   UNL     1      -6.396   4.429  67.869  1.00  0.00    -0.036 N  
HETATM   31  C   UNL     1      -6.810   3.131  67.994  1.00  0.00    -0.049 C  
HETATM   32  H   UNL     1      -5.499   4.711  68.266  1.00  0.00     0.000 HD 
HETATM   33  O   UNL     1      -7.570   2.579  67.223  1.00  0.00    -0.060 OA 
BRANCH  31  34
HETATM   34  O   UNL     1      -6.296   2.582  69.115  1.00  0.00    -0.028 OA 
BRANCH  34  35
HETATM   35  C   UNL     1      -6.404   3.375  70.315  1.00  0.00    -0.028 C  
BRANCH  35  36
HETATM   36  C   UNL     1      -7.648   3.053  71.073  1.00  0.00    -0.036 A  
HETATM   37  N   UNL     1      -9.558   1.893  71.781  1.00  0.00    -0.114 NA 
HETATM   38  C   UNL     1      -8.481   1.959  70.921  1.00  0.00    -0.050 A  
HETATM   39  C   UNL     1      -9.539   2.941  72.574  1.00  0.00    -0.117 A  
HETATM   40  S   UNL     1      -8.216   4.015  72.374  1.00  0.00    -0.099 SA 
ENDBRANCH  35  36
ENDBRANCH  34  35
ENDBRANCH  31  34
ENDBRANCH  29  30
BRANCH  29  41
HETATM   41  C   UNL     1      -6.676   5.697  65.731  1.00  0.00    -0.055 C  
BRANCH  41  42
HETATM   42  C   UNL     1      -7.350   4.969  64.587  1.00  0.00    -0.063 A  
HETATM   43  C   UNL     1      -8.008   2.893  63.492  1.00  0.00    -0.077 A  
HETATM   44  C   UNL     1      -7.269   3.577  64.450  1.00  0.00    -0.059 A  
HETATM   45  C   UNL     1      -8.110   5.673  63.650  1.00  0.00    -0.116 A  
HETATM   46  C   UNL     1      -8.839   4.991  62.666  1.00  0.00    -0.082 A  
HETATM   47  C   UNL     1      -8.801   3.599  62.600  1.00  0.00    -0.090 A  
ENDBRANCH  41  42
ENDBRANCH  29  41
ENDBRANCH  26  29
ENDBRANCH  25  26
ENDBRANCH  24  25
BRANCH  24  48
HETATM   48  C   UNL     1      -8.654   8.466  66.389  1.00  0.00    -0.139 C  
BRANCH  48  49
HETATM   49  C   UNL     1      -9.182   9.368  65.299  1.00  0.00    -0.299 A  
HETATM   50  C   UNL     1      -9.147  10.108  62.984  1.00  0.00    -0.296 A  
HETATM   51  C   UNL     1      -8.686   9.262  63.992  1.00  0.00    -0.198 A  
HETATM   52  C   UNL     1     -10.104  11.077  63.271  1.00  0.00    -0.400 A  
HETATM   53  C   UNL     1     -10.602  11.200  64.567  1.00  0.00    -0.397 A  
HETATM   54  C   UNL     1     -10.139  10.356  65.579  1.00  0.00    -0.352 A  
ENDBRANCH  48  49
ENDBRANCH  24  48
ENDBRANCH  22  24
ENDBRANCH   3  20
TORSDOF 18
ENDMDL
MODEL       84
REMARK 921   NORMALIZED FREE ENERGY PREDICTED BY IDOCK:   -3.17 KCAL/MOL
REMARK 922        TOTAL FREE ENERGY PREDICTED BY IDOCK:  -11.12 KCAL/MOL
REMARK 923 INTER-LIGAND FREE ENERGY PREDICTED BY IDOCK:   -9.54 KCAL/MOL
REMARK 924 INTRA-LIGAND FREE ENERGY PREDICTED BY IDOCK:   -1.57 KCAL/MOL
REMARK 927      BINDING AFFINITY PREDICTED BY RF-SCORE:    0.00 PKD
ROOT
HETATM    1  C   UNL     1     -11.169  12.044  68.785  1.00  0.00    -0.316 C  
HETATM    2  C   UNL     1     -10.220  11.652  67.658  1.00  0.00    -0.206 C  
HETATM    3  C   UNL     1      -8.758  11.397  68.099  1.00  0.00    -0.154 C  
HETATM    4  C   UNL     1     -10.826  10.485  66.869  1.00  0.00    -0.252 C  
ENDROOT
BRANCH   3   5
HETATM    5  N   UNL     1      -8.532  10.281  69.032  1.00  0.00    -0.140 N  
HETATM    6  H   UNL     1      -8.808  10.400  70.007  1.00  0.00     0.000 HD 
BRANCH   5   7
HETATM    7  C   UNL     1      -7.971   9.092  68.655  1.00  0.00    -0.102 C  
HETATM    8  O   UNL     1      -6.783   9.006  68.352  1.00  0.00    -0.059 OA 
BRANCH   7   9
HETATM    9  N   UNL     1      -8.820   8.008  68.557  1.00  0.00    -0.134 N  
HETATM   10  C   UNL     1      -8.628   6.806  67.761  1.00  0.00    -0.121 C  
BRANCH   9  11
HETATM   11  C   UNL     1     -10.038   8.032  69.378  1.00  0.00    -0.197 C  
BRANCH  11  12
HETATM   12  C   UNL     1      -9.749   7.671  70.811  1.00  0.00    -0.173 A  
HETATM   13  C   UNL     1     -10.060   8.436  71.921  1.00  0.00    -0.267 A  
HETATM   14  N   UNL     1      -9.178   6.432  71.118  1.00  0.00    -0.156 NA 
HETATM   15  S   UNL     1      -9.648   7.609  73.358  1.00  0.00    -0.290 SA 
HETATM   16  C   UNL     1      -7.106   4.797  72.813  1.00  0.00    -0.078 C  
HETATM   17  C   UNL     1      -9.094   6.272  72.423  1.00  0.00    -0.138 A  
HETATM   18  C   UNL     1      -8.586   5.027  73.115  1.00  0.00    -0.110 C  
HETATM   19  C   UNL     1      -9.413   3.807  72.705  1.00  0.00    -0.171 C  
ENDBRANCH  11  12
ENDBRANCH   9  11
ENDBRANCH   7   9
ENDBRANCH   5   7
ENDBRANCH   3   5
BRANCH   3  20
HETATM   20  C   UNL     1      -8.013  12.718  68.471  1.00  0.00    -0.095 C  
HETATM   21  O   UNL     1      -7.026  12.759  69.203  1.00  0.00    -0.090 OA 
HETATM   22  N   UNL     1      -8.587  13.862  67.952  1.00  0.00    -0.168 N  
HETATM   23  H   UNL     1      -9.477  13.788  67.460  1.00  0.00     0.000 HD 
BRANCH  22  24
HETATM   24  C   UNL     1      -7.962  15.176  68.083  1.00  0.00    -0.125 C  
BRANCH  24  25
HETATM   25  C   UNL     1      -8.746  16.152  68.983  1.00  0.00    -0.254 C  
BRANCH  25  26
HETATM   26  C   UNL     1     -10.086  15.701  69.582  1.00  0.00    -0.291 C  
HETATM   27  H   UNL     1     -10.833  14.013  70.208  1.00  0.00     0.000 HD 
HETATM   28  O   UNL     1     -10.004  14.292  69.839  1.00  0.00     0.406 OA 
BRANCH  26  29
HETATM   29  C   UNL     1     -11.363  16.005  68.741  1.00  0.00    -0.380 C  
BRANCH  29  30
HETATM   30  N   UNL     1     -11.708  14.931  67.809  1.00  0.00    -0.400 N  
HETATM   31  C   UNL     1     -11.637  15.120  66.455  1.00  0.00    -0.105 C  
HETATM   32  H   UNL     1     -12.006  14.026  68.175  1.00  0.00     0.000 HD 
HETATM   33  O   UNL     1     -10.903  15.924  65.915  1.00  0.00    -0.305 OA 
BRANCH  31  34
HETATM   34  O   UNL     1     -12.530  14.328  65.825  1.00  0.00    -0.441 OA 
BRANCH  34  35
HETATM   35  C   UNL     1     -12.358  14.189  64.400  1.00  0.00    -0.381 C  
BRANCH  35  36
HETATM   36  C   UNL     1     -11.424  13.072  64.067  1.00  0.00    -0.421 A  
HETATM   37  N   UNL     1      -9.458  11.801  63.971  1.00  0.00    -0.073 NA 
HETATM   38  C   UNL     1     -10.081  12.963  64.379  1.00  0.00    -0.240 A  
HETATM   39  C   UNL     1     -10.330  11.042  63.346  1.00  0.00    -0.312 A  
HETATM   40  S   UNL     1     -11.935  11.645  63.267  1.00  0.00     0.094 SA 
ENDBRANCH  35  36
ENDBRANCH  34  35
ENDBRANCH  31  34
ENDBRANCH  29  30
BRANCH  29  41
HETATM   41  C   UNL     1     -12.589  16.403  69.629  1.00  0.00     1.395 C  
BRANCH  41  42
HETATM   42  C   UNL     1     -12.726  15.712  70.970  1.00  0.00    -0.517 A  
HETATM   43  C   UNL     1     -13.393  13.782  72.302  1.00  0.00    -0.617 A  
HETATM   44  C   UNL     1     -13.397  14.491  71.105  1.00  0.00    -0.415 A  
HETATM   45  C   UNL     1     -12.143  16.266  72.114  1.00  0.00    -0.530 A  
HETATM   46  C   UNL     1     -12.157  15.569  73.329  1.00  0.00    -0.600 A  
HETATM   47  C   UNL     1     -12.767  14.318  73.417  1.00  0.00    -0.122 A  
ENDBRANCH  41  42
ENDBRANCH  29  41
ENDBRANCH  26  29
ENDBRANCH  25  26
ENDBRANCH  24  25
BRANCH  24  48
HETATM   48  C   UNL     1      -7.643  15.734  66.680  1.00  0.00    -0.083 C  
BRANCH  48  49
HETATM   49  C   UNL     1      -7.297  17.202  66.624  1.00  0.00    -0.285 A  
HETATM   50  C   UNL     1      -5.701  18.999  66.982  1.00  0.00    -0.158 A  
HETATM   51  C   UNL     1      -6.022  17.643  67.005  1.00  0.00    -0.174 A  
HETATM   52  C   UNL     1      -6.652  19.934  66.585  1.00  0.00    -0.214 A  
HETATM   53  C   UNL     1      -7.926  19.512  66.208  1.00  0.00    -0.332 A  
HETATM   54  C   UNL     1      -8.251  18.155  66.234  1.00  0.00    -0.243 A  
ENDBRANCH  48  49
ENDBRANCH  24  48
ENDBRANCH  22  24
ENDBRANCH   3  20
TORSDOF 18
ENDMDL
MODEL       85
REMARK 921   NORMALIZED FREE ENERGY PREDICTED BY IDOCK:   -3.16 KCAL/MOL
REMARK 922        TOTAL FREE ENERGY PREDICTED BY IDOCK:  -11.09 KCAL/MOL
REMARK 923 INTER-LIGAND FREE ENERGY PREDICTED BY IDOCK:   -9.68 KCAL/MOL
REMARK 924 INTRA-LIGAND FREE ENERGY PREDICTED BY IDOCK:   -1.41 KCAL/MOL
REMARK 927      BINDING AFFINITY PREDICTED BY RF-SCORE:    0.00 PKD
ROOT
HETATM    1  C   UNL     1      -5.859  15.538  69.572  1.00  0.00    -0.121 C  
HETATM    2  C   UNL     1      -5.829  14.694  68.304  1.00  0.00    -0.116 C  
HETATM    3  C   UNL     1      -7.197  14.100  67.885  1.00  0.00    -0.158 C  
HETATM    4  C   UNL     1      -5.147  15.488  67.183  1.00  0.00     0.427 C  
ENDROOT
BRANCH   3   5
HETATM    5  N   UNL     1      -8.257  15.061  67.536  1.00  0.00    -0.168 N  
HETATM    6  H   UNL     1      -8.164  16.024  67.857  1.00  0.00     0.000 HD 
BRANCH   5   7
HETATM    7  C   UNL     1      -9.361  14.723  66.802  1.00  0.00    -0.249 C  
HETATM    8  O   UNL     1      -9.592  13.559  66.482  1.00  0.00    -0.269 OA 
BRANCH   7   9
HETATM    9  N   UNL     1     -10.162  15.762  66.373  1.00  0.00    -0.280 N  
HETATM   10  C   UNL     1     -10.523  16.089  65.002  1.00  0.00    -0.220 C  
BRANCH   9  11
HETATM   11  C   UNL     1     -10.765  16.616  67.403  1.00  0.00    -0.253 C  
BRANCH  11  12
HETATM   12  C   UNL     1     -10.155  17.993  67.410  1.00  0.00    -0.349 A  
HETATM   13  C   UNL     1     -10.839  19.187  67.265  1.00  0.00    -0.431 A  
HETATM   14  N   UNL     1      -8.785  18.149  67.649  1.00  0.00    -0.246 NA 
HETATM   15  S   UNL     1      -9.776  20.514  67.435  1.00  0.00    -0.380 SA 
HETATM   16  C   UNL     1      -6.098  19.589  66.912  1.00  0.00    -0.178 C  
HETATM   17  C   UNL     1      -8.468  19.427  67.707  1.00  0.00    -0.310 A  
HETATM   18  C   UNL     1      -7.089  19.966  68.011  1.00  0.00    -0.319 C  
HETATM   19  C   UNL     1      -6.601  19.463  69.371  1.00  0.00    -0.364 C  
ENDBRANCH  11  12
ENDBRANCH   9  11
ENDBRANCH   7   9
ENDBRANCH   5   7
ENDBRANCH   3   5
BRANCH   3  20
HETATM   20  C   UNL     1      -7.652  12.941  68.827  1.00  0.00    -0.025 C  
HETATM   21  O   UNL     1      -6.993  12.548  69.788  1.00  0.00     0.141 OA 
HETATM   22  N   UNL     1      -8.842  12.343  68.463  1.00  0.00    -0.349 N  
HETATM   23  H   UNL     1      -9.283  12.617  67.585  1.00  0.00     0.000 HD 
BRANCH  22  24
HETATM   24  C   UNL     1      -9.492  11.331  69.292  1.00  0.00     0.202 C  
BRANCH  24  25
HETATM   25  C   UNL     1      -8.851   9.932  69.183  1.00  0.00    -0.165 C  
BRANCH  25  26
HETATM   26  C   UNL     1      -9.593   8.725  69.775  1.00  0.00    -0.172 C  
HETATM   27  H   UNL     1      -9.747   7.916  71.543  1.00  0.00     0.000 HD 
HETATM   28  O   UNL     1      -9.288   8.663  71.176  1.00  0.00    -0.176 OA 
BRANCH  26  29
HETATM   29  C   UNL     1      -9.309   7.340  69.118  1.00  0.00    -0.146 C  
BRANCH  29  30
HETATM   30  N   UNL     1      -9.252   7.398  67.657  1.00  0.00    -0.127 N  
HETATM   31  C   UNL     1      -8.531   6.481  66.941  1.00  0.00    -0.114 C  
HETATM   32  H   UNL     1      -9.758   8.135  67.164  1.00  0.00     0.000 HD 
HETATM   33  O   UNL     1      -8.284   5.355  67.326  1.00  0.00    -0.104 OA 
BRANCH  31  34
HETATM   34  O   UNL     1      -8.098   7.027  65.785  1.00  0.00    -0.109 OA 
BRANCH  34  35
HETATM   35  C   UNL     1      -8.660   8.310  65.441  1.00  0.00    -0.151 C  
BRANCH  35  36
HETATM   36  C   UNL     1      -7.918   8.947  64.312  1.00  0.00    -0.146 A  
HETATM   37  N   UNL     1      -6.501   9.177  62.459  1.00  0.00    -0.094 NA 
HETATM   38  C   UNL     1      -7.025   8.356  63.438  1.00  0.00    -0.089 A  
HETATM   39  C   UNL     1      -6.995  10.386  62.604  1.00  0.00    -0.125 A  
HETATM   40  S   UNL     1      -8.143  10.587  63.864  1.00  0.00     0.044 SA 
ENDBRANCH  35  36
ENDBRANCH  34  35
ENDBRANCH  31  34
ENDBRANCH  29  30
BRANCH  29  41
HETATM   41  C   UNL     1      -8.041   6.640  69.709  1.00  0.00    -0.126 C  
BRANCH  41  42
HETATM   42  C   UNL     1      -8.268   5.539  70.725  1.00  0.00    -0.117 A  
HETATM   43  C   UNL     1      -9.756   3.981  71.865  1.00  0.00    -0.236 A  
HETATM   44  C   UNL     1      -9.553   5.090  71.050  1.00  0.00    -0.232 A  
HETATM   45  C   UNL     1      -7.182   4.911  71.341  1.00  0.00    -0.061 A  
HETATM   46  C   UNL     1      -7.380   3.809  72.183  1.00  0.00    -0.056 A  
HETATM   47  C   UNL     1      -8.668   3.333  72.429  1.00  0.00    -0.101 A  
ENDBRANCH  41  42
ENDBRANCH  29  41
ENDBRANCH  26  29
ENDBRANCH  25  26
ENDBRANCH  24  25
BRANCH  24  48
HETATM   48  C   UNL     1     -11.011  11.349  69.025  1.00  0.00    -0.288 C  
BRANCH  48  49
HETATM   49  C   UNL     1     -11.863  11.923  70.133  1.00  0.00    -0.390 A  
HETATM   50  C   UNL     1     -13.330  11.592  72.041  1.00  0.00    -0.397 A  
HETATM   51  C   UNL     1     -12.520  11.073  71.032  1.00  0.00    -0.512 A  
HETATM   52  C   UNL     1     -13.500  12.969  72.160  1.00  0.00    -0.638 A  
HETATM   53  C   UNL     1     -12.857  13.827  71.269  1.00  0.00    -0.434 A  
HETATM   54  C   UNL     1     -12.049  13.309  70.255  1.00  0.00    -0.405 A  
ENDBRANCH  48  49
ENDBRANCH  24  48
ENDBRANCH  22  24
ENDBRANCH   3  20
TORSDOF 18
ENDMDL
MODEL       86
REMARK 921   NORMALIZED FREE ENERGY PREDICTED BY IDOCK:   -3.12 KCAL/MOL
REMARK 922        TOTAL FREE ENERGY PREDICTED BY IDOCK:  -11.02 KCAL/MOL
REMARK 923 INTER-LIGAND FREE ENERGY PREDICTED BY IDOCK:   -9.92 KCAL/MOL
REMARK 924 INTRA-LIGAND FREE ENERGY PREDICTED BY IDOCK:   -1.10 KCAL/MOL
REMARK 927      BINDING AFFINITY PREDICTED BY RF-SCORE:    0.00 PKD
ROOT
HETATM    1  C   UNL     1     -10.509  13.185  64.191  1.00  0.00    -0.348 C  
HETATM    2  C   UNL     1     -11.570  12.599  65.114  1.00  0.00    -0.386 C  
HETATM    3  C   UNL     1     -11.219  12.645  66.621  1.00  0.00    -0.300 C  
HETATM    4  C   UNL     1     -12.928  13.235  64.790  1.00  0.00    -0.140 C  
ENDROOT
BRANCH   3   5
HETATM    5  N   UNL     1     -11.055  13.978  67.224  1.00  0.00    -0.295 N  
HETATM    6  H   UNL     1     -11.879  14.443  67.604  1.00  0.00     0.000 HD 
BRANCH   5   7
HETATM    7  C   UNL     1      -9.851  14.623  67.298  1.00  0.00    -0.231 C  
HETATM    8  O   UNL     1      -8.964  14.433  66.469  1.00  0.00    -0.239 OA 
BRANCH   7   9
HETATM    9  N   UNL     1      -9.651  15.439  68.393  1.00  0.00    -0.197 N  
HETATM   10  C   UNL     1     -10.473  15.526  69.591  1.00  0.00    -0.286 C  
BRANCH   9  11
HETATM   11  C   UNL     1      -8.453  16.289  68.389  1.00  0.00    -0.195 C  
BRANCH  11  12
HETATM   12  C   UNL     1      -8.682  17.567  67.626  1.00  0.00    -0.223 A  
HETATM   13  C   UNL     1      -9.910  18.074  67.238  1.00  0.00    -0.306 A  
HETATM   14  N   UNL     1      -7.601  18.396  67.312  1.00  0.00    -0.220 NA 
HETATM   15  S   UNL     1      -9.722  19.595  66.485  1.00  0.00    -0.430 SA 
HETATM   16  C   UNL     1      -6.169  20.227  65.205  1.00  0.00    -0.290 C  
HETATM   17  C   UNL     1      -8.020  19.502  66.731  1.00  0.00    -0.287 A  
HETATM   18  C   UNL     1      -7.133  20.652  66.311  1.00  0.00    -0.209 C  
HETATM   19  C   UNL     1      -6.362  21.205  67.512  1.00  0.00    -0.433 C  
ENDBRANCH  11  12
ENDBRANCH   9  11
ENDBRANCH   7   9
ENDBRANCH   5   7
ENDBRANCH   3   5
BRANCH   3  20
HETATM   20  C   UNL     1     -10.106  11.617  67.000  1.00  0.00    -0.209 C  
HETATM   21  O   UNL     1      -9.807  11.335  68.159  1.00  0.00    -0.172 OA 
HETATM   22  N   UNL     1      -9.434  11.079  65.920  1.00  0.00    -0.205 N  
HETATM   23  H   UNL     1      -9.630  11.442  64.987  1.00  0.00     0.000 HD 
BRANCH  22  24
HETATM   24  C   UNL     1      -8.452  10.008  66.067  1.00  0.00    -0.131 C  
BRANCH  24  25
HETATM   25  C   UNL     1      -8.668   9.133  67.319  1.00  0.00    -0.122 C  
BRANCH  25  26
HETATM   26  C   UNL     1      -9.403   7.793  67.175  1.00  0.00    -0.150 C  
HETATM   27  H   UNL     1     -11.254   7.242  66.906  1.00  0.00     0.000 HD 
HETATM   28  O   UNL     1     -10.799   8.072  66.995  1.00  0.00    -0.283 OA 
BRANCH  26  29
HETATM   29  C   UNL     1      -9.219   6.767  68.334  1.00  0.00    -0.123 C  
BRANCH  29  30
HETATM   30  N   UNL     1      -9.891   7.170  69.570  1.00  0.00    -0.161 N  
HETATM   31  C   UNL     1      -9.183   7.680  70.625  1.00  0.00    -0.162 C  
HETATM   32  H   UNL     1     -10.903   7.070  69.647  1.00  0.00     0.000 HD 
HETATM   33  O   UNL     1      -8.119   8.257  70.519  1.00  0.00    -0.098 OA 
BRANCH  31  34
HETATM   34  O   UNL     1      -9.811   7.402  71.787  1.00  0.00    -0.167 OA 
BRANCH  34  35
HETATM   35  C   UNL     1     -10.283   8.538  72.539  1.00  0.00    -0.253 C  
BRANCH  35  36
HETATM   36  C   UNL     1     -11.516   9.122  71.934  1.00  0.00    -0.353 A  
HETATM   37  N   UNL     1     -12.900  10.583  70.732  1.00  0.00    -0.374 NA 
HETATM   38  C   UNL     1     -11.637  10.291  71.204  1.00  0.00    -0.300 A  
HETATM   39  C   UNL     1     -13.730   9.639  71.115  1.00  0.00    -0.095 A  
HETATM   40  S   UNL     1     -13.040   8.338  71.996  1.00  0.00    -0.305 SA 
ENDBRANCH  35  36
ENDBRANCH  34  35
ENDBRANCH  31  34
ENDBRANCH  29  30
BRANCH  29  41
HETATM   41  C   UNL     1      -9.616   5.312  67.919  1.00  0.00    -0.161 C  
BRANCH  41  42
HETATM   42  C   UNL     1      -8.660   4.564  67.013  1.00  0.00    -0.104 A  
HETATM   43  C   UNL     1      -7.002   2.811  66.666  1.00  0.00    -0.049 A  
HETATM   44  C   UNL     1      -7.771   3.604  67.511  1.00  0.00    -0.078 A  
HETATM   45  C   UNL     1      -8.670   4.791  65.634  1.00  0.00    -0.131 A  
HETATM   46  C   UNL     1      -7.880   4.012  64.778  1.00  0.00    -0.085 A  
HETATM   47  C   UNL     1      -7.060   3.010  65.294  1.00  0.00    -0.061 A  
ENDBRANCH  41  42
ENDBRANCH  29  41
ENDBRANCH  26  29
ENDBRANCH  25  26
ENDBRANCH  24  25
BRANCH  24  48
HETATM   48  C   UNL     1      -7.031  10.597  65.950  1.00  0.00    -0.116 C  
BRANCH  48  49
HETATM   49  C   UNL     1      -6.444  11.148  67.228  1.00  0.00    -0.079 A  
HETATM   50  C   UNL     1      -5.260  10.793  69.320  1.00  0.00    -0.041 A  
HETATM   51  C   UNL     1      -5.782  10.299  68.125  1.00  0.00    -0.037 A  
HETATM   52  C   UNL     1      -5.399  12.141  69.637  1.00  0.00    -0.077 A  
HETATM   53  C   UNL     1      -6.060  12.997  68.757  1.00  0.00    -0.075 A  
HETATM   54  C   UNL     1      -6.588  12.504  67.563  1.00  0.00    -0.150 A  
ENDBRANCH  48  49
ENDBRANCH  24  48
ENDBRANCH  22  24
ENDBRANCH   3  20
TORSDOF 18
ENDMDL
MODEL       87
REMARK 921   NORMALIZED FREE ENERGY PREDICTED BY IDOCK:   -3.10 KCAL/MOL
REMARK 922        TOTAL FREE ENERGY PREDICTED BY IDOCK:  -10.98 KCAL/MOL
REMARK 923 INTER-LIGAND FREE ENERGY PREDICTED BY IDOCK:   -9.61 KCAL/MOL
REMARK 924 INTRA-LIGAND FREE ENERGY PREDICTED BY IDOCK:   -1.37 KCAL/MOL
REMARK 927      BINDING AFFINITY PREDICTED BY RF-SCORE:    0.00 PKD
ROOT
HETATM    1  C   UNL     1     -10.396  13.625  64.723  1.00  0.00    -0.414 C  
HETATM    2  C   UNL     1     -11.562  12.873  65.353  1.00  0.00    -0.386 C  
HETATM    3  C   UNL     1     -11.442  12.650  66.881  1.00  0.00    -0.343 C  
HETATM    4  C   UNL     1     -12.878  13.544  64.942  1.00  0.00    -0.269 C  
ENDROOT
BRANCH   3   5
HETATM    5  N   UNL     1     -11.419  13.855  67.727  1.00  0.00    -0.304 N  
HETATM    6  H   UNL     1     -12.305  14.219  68.076  1.00  0.00     0.000 HD 
BRANCH   5   7
HETATM    7  C   UNL     1     -10.267  14.509  68.066  1.00  0.00    -0.233 C  
HETATM    8  O   UNL     1      -9.174  14.166  67.620  1.00  0.00    -0.181 OA 
BRANCH   7   9
HETATM    9  N   UNL     1     -10.380  15.524  68.994  1.00  0.00    -0.223 N  
HETATM   10  C   UNL     1     -11.474  15.750  69.926  1.00  0.00    -0.346 C  
BRANCH   9  11
HETATM   11  C   UNL     1      -9.258  16.466  69.101  1.00  0.00    -0.216 C  
BRANCH  11  12
HETATM   12  C   UNL     1      -9.358  17.567  68.079  1.00  0.00    -0.272 A  
HETATM   13  C   UNL     1     -10.529  18.088  67.556  1.00  0.00    -0.396 A  
HETATM   14  N   UNL     1      -8.200  18.211  67.630  1.00  0.00    -0.240 NA 
HETATM   15  S   UNL     1     -10.192  19.391  66.504  1.00  0.00    -0.491 SA 
HETATM   16  C   UNL     1      -6.582  19.415  65.228  1.00  0.00    -0.300 C  
HETATM   17  C   UNL     1      -8.508  19.201  66.815  1.00  0.00    -0.303 A  
HETATM   18  C   UNL     1      -7.513  20.151  66.189  1.00  0.00    -0.306 C  
HETATM   19  C   UNL     1      -6.706  20.875  67.268  1.00  0.00    -0.414 C  
ENDBRANCH  11  12
ENDBRANCH   9  11
ENDBRANCH   7   9
ENDBRANCH   5   7
ENDBRANCH   3   5
BRANCH   3  20
HETATM   20  C   UNL     1     -10.362  11.581  67.239  1.00  0.00    -0.206 C  
HETATM   21  O   UNL     1     -10.233  11.095  68.361  1.00  0.00    -0.174 OA 
HETATM   22  N   UNL     1      -9.512  11.257  66.200  1.00  0.00    -0.202 N  
HETATM   23  H   UNL     1      -9.577  11.782  65.329  1.00  0.00     0.000 HD 
BRANCH  22  24
HETATM   24  C   UNL     1      -8.524  10.186  66.306  1.00  0.00    -0.128 C  
BRANCH  24  25
HETATM   25  C   UNL     1      -8.973   9.011  67.198  1.00  0.00    -0.144 C  
BRANCH  25  26
HETATM   26  C   UNL     1      -9.662   7.802  66.548  1.00  0.00    -0.195 C  
HETATM   27  H   UNL     1     -11.436   6.998  66.634  1.00  0.00     0.000 HD 
HETATM   28  O   UNL     1     -11.010   7.746  67.036  1.00  0.00    -0.247 OA 
BRANCH  26  29
HETATM   29  C   UNL     1      -8.975   6.417  66.748  1.00  0.00    -0.130 C  
BRANCH  29  30
HETATM   30  N   UNL     1      -7.964   6.423  67.806  1.00  0.00    -0.113 N  
HETATM   31  C   UNL     1      -6.884   5.584  67.755  1.00  0.00    -0.064 C  
HETATM   32  H   UNL     1      -8.066   7.063  68.594  1.00  0.00     0.000 HD 
HETATM   33  O   UNL     1      -6.413   5.138  66.727  1.00  0.00    -0.039 OA 
BRANCH  31  34
HETATM   34  O   UNL     1      -6.460   5.292  69.003  1.00  0.00    -0.039 OA 
BRANCH  34  35
HETATM   35  C   UNL     1      -7.253   5.827  70.082  1.00  0.00    -0.072 C  
BRANCH  35  36
HETATM   36  C   UNL     1      -8.085   4.767  70.727  1.00  0.00    -0.085 A  
HETATM   37  N   UNL     1      -8.682   2.707  71.670  1.00  0.00    -0.071 NA 
HETATM   38  C   UNL     1      -7.718   3.473  71.047  1.00  0.00    -0.047 A  
HETATM   39  C   UNL     1      -9.775   3.423  71.810  1.00  0.00    -0.166 A  
HETATM   40  S   UNL     1      -9.688   5.048  71.266  1.00  0.00    -0.182 SA 
ENDBRANCH  35  36
ENDBRANCH  34  35
ENDBRANCH  31  34
ENDBRANCH  29  30
BRANCH  29  41
HETATM   41  C   UNL     1     -10.006   5.257  66.954  1.00  0.00    -0.219 C  
BRANCH  41  42
HETATM   42  C   UNL     1      -9.871   4.043  66.059  1.00  0.00    -0.177 A  
HETATM   43  C   UNL     1     -10.073   2.992  63.869  1.00  0.00    -0.171 A  
HETATM   44  C   UNL     1     -10.331   4.047  64.736  1.00  0.00    -0.212 A  
HETATM   45  C   UNL     1      -9.240   2.886  66.526  1.00  0.00    -0.122 A  
HETATM   46  C   UNL     1      -8.999   1.808  65.664  1.00  0.00    -0.109 A  
HETATM   47  C   UNL     1      -9.400   1.870  64.330  1.00  0.00    -0.132 A  
ENDBRANCH  41  42
ENDBRANCH  29  41
ENDBRANCH  26  29
ENDBRANCH  25  26
ENDBRANCH  24  25
BRANCH  24  48
HETATM   48  C   UNL     1      -7.159  10.787  66.699  1.00  0.00    -0.133 C  
BRANCH  48  49
HETATM   49  C   UNL     1      -6.619  10.360  68.043  1.00  0.00    -0.061 A  
HETATM   50  C   UNL     1      -6.455  10.697  70.444  1.00  0.00    -0.102 A  
HETATM   51  C   UNL     1      -6.969  11.066  69.201  1.00  0.00    -0.104 A  
HETATM   52  C   UNL     1      -5.577   9.621  70.543  1.00  0.00    -0.048 A  
HETATM   53  C   UNL     1      -5.214   8.913  69.399  1.00  0.00    -0.035 A  
HETATM   54  C   UNL     1      -5.725   9.284  68.153  1.00  0.00    -0.038 A  
ENDBRANCH  48  49
ENDBRANCH  24  48
ENDBRANCH  22  24
ENDBRANCH   3  20
TORSDOF 18
ENDMDL
MODEL       88
REMARK 921   NORMALIZED FREE ENERGY PREDICTED BY IDOCK:   -3.09 KCAL/MOL
REMARK 922        TOTAL FREE ENERGY PREDICTED BY IDOCK:  -10.96 KCAL/MOL
REMARK 923 INTER-LIGAND FREE ENERGY PREDICTED BY IDOCK:  -10.42 KCAL/MOL
REMARK 924 INTRA-LIGAND FREE ENERGY PREDICTED BY IDOCK:   -0.54 KCAL/MOL
REMARK 927      BINDING AFFINITY PREDICTED BY RF-SCORE:    0.00 PKD
ROOT
HETATM    1  C   UNL     1     -10.477  13.576  64.697  1.00  0.00    -0.439 C  
HETATM    2  C   UNL     1     -11.566  12.948  65.558  1.00  0.00    -0.395 C  
HETATM    3  C   UNL     1     -11.240  12.879  67.070  1.00  0.00    -0.288 C  
HETATM    4  C   UNL     1     -12.905  13.635  65.260  1.00  0.00    -0.421 C  
ENDROOT
BRANCH   3   5
HETATM    5  N   UNL     1     -11.059  14.162  67.769  1.00  0.00    -0.269 N  
HETATM    6  H   UNL     1     -11.889  14.673  68.067  1.00  0.00     0.000 HD 
BRANCH   5   7
HETATM    7  C   UNL     1      -9.831  14.700  68.039  1.00  0.00    -0.216 C  
HETATM    8  O   UNL     1      -8.823  14.345  67.433  1.00  0.00    -0.182 OA 
BRANCH   7   9
HETATM    9  N   UNL     1      -9.766  15.606  69.079  1.00  0.00    -0.224 N  
HETATM   10  C   UNL     1     -10.636  15.679  70.242  1.00  0.00    -0.313 C  
BRANCH   9  11
HETATM   11  C   UNL     1      -8.672  16.586  69.049  1.00  0.00    -0.215 C  
BRANCH  11  12
HETATM   12  C   UNL     1      -8.925  17.670  68.035  1.00  0.00    -0.264 A  
HETATM   13  C   UNL     1     -10.165  18.119  67.616  1.00  0.00    -0.374 A  
HETATM   14  N   UNL     1      -7.850  18.373  67.481  1.00  0.00    -0.230 NA 
HETATM   15  S   UNL     1      -9.997  19.428  66.532  1.00  0.00    -0.433 SA 
HETATM   16  C   UNL     1      -6.521  19.643  64.939  1.00  0.00    -0.275 C  
HETATM   17  C   UNL     1      -8.284  19.336  66.693  1.00  0.00    -0.293 A  
HETATM   18  C   UNL     1      -7.404  20.334  65.976  1.00  0.00    -0.265 C  
HETATM   19  C   UNL     1      -6.547  21.114  66.976  1.00  0.00    -0.405 C  
ENDBRANCH  11  12
ENDBRANCH   9  11
ENDBRANCH   7   9
ENDBRANCH   5   7
ENDBRANCH   3   5
BRANCH   3  20
HETATM   20  C   UNL     1     -10.155  11.803  67.392  1.00  0.00    -0.195 C  
HETATM   21  O   UNL     1      -9.996  11.310  68.507  1.00  0.00    -0.190 OA 
HETATM   22  N   UNL     1      -9.337  11.480  66.326  1.00  0.00    -0.208 N  
HETATM   23  H   UNL     1      -9.425  12.011  65.460  1.00  0.00     0.000 HD 
BRANCH  22  24
HETATM   24  C   UNL     1      -8.352  10.405  66.398  1.00  0.00    -0.139 C  
BRANCH  24  25
HETATM   25  C   UNL     1      -8.779   9.227  67.298  1.00  0.00    -0.132 C  
BRANCH  25  26
HETATM   26  C   UNL     1      -9.635   8.102  66.698  1.00  0.00    -0.229 C  
HETATM   27  H   UNL     1     -11.544   7.756  66.508  1.00  0.00     0.000 HD 
HETATM   28  O   UNL     1     -11.015   8.452  66.879  1.00  0.00    -0.086 OA 
BRANCH  26  29
HETATM   29  C   UNL     1      -9.383   6.665  67.246  1.00  0.00    -0.132 C  
BRANCH  29  30
HETATM   30  N   UNL     1      -9.214   6.625  68.699  1.00  0.00    -0.129 N  
HETATM   31  C   UNL     1     -10.296   6.657  69.537  1.00  0.00    -0.202 C  
HETATM   32  H   UNL     1      -8.274   6.573  69.094  1.00  0.00     0.000 HD 
HETATM   33  O   UNL     1     -11.407   6.270  69.234  1.00  0.00    -0.410 OA 
BRANCH  31  34
HETATM   34  O   UNL     1      -9.958   7.223  70.715  1.00  0.00    -0.186 OA 
BRANCH  34  35
HETATM   35  C   UNL     1      -9.544   6.317  71.758  1.00  0.00    -0.153 C  
BRANCH  35  36
HETATM   36  C   UNL     1      -8.463   6.908  72.601  1.00  0.00    -0.116 A  
HETATM   37  N   UNL     1      -7.420   8.034  74.372  1.00  0.00    -0.175 NA 
HETATM   38  C   UNL     1      -8.596   7.625  73.777  1.00  0.00    -0.227 A  
HETATM   39  C   UNL     1      -6.405   7.633  73.639  1.00  0.00    -0.074 A  
HETATM   40  S   UNL     1      -6.797   6.706  72.250  1.00  0.00    -0.068 SA 
ENDBRANCH  35  36
ENDBRANCH  34  35
ENDBRANCH  31  34
ENDBRANCH  29  30
BRANCH  29  41
HETATM   41  C   UNL     1     -10.466   5.640  66.772  1.00  0.00    -0.353 C  
BRANCH  41  42
HETATM   42  C   UNL     1      -9.979   4.287  66.297  1.00  0.00    -0.229 A  
HETATM   43  C   UNL     1      -9.556   2.698  64.497  1.00  0.00    -0.123 A  
HETATM   44  C   UNL     1     -10.136   3.871  64.969  1.00  0.00    -0.167 A  
HETATM   45  C   UNL     1      -9.318   3.425  67.177  1.00  0.00    -0.224 A  
HETATM   46  C   UNL     1      -8.753   2.229  66.713  1.00  0.00    -0.130 A  
HETATM   47  C   UNL     1      -8.858   1.876  65.368  1.00  0.00    -0.120 A  
ENDBRANCH  41  42
ENDBRANCH  29  41
ENDBRANCH  26  29
ENDBRANCH  25  26
ENDBRANCH  24  25
BRANCH  24  48
HETATM   48  C   UNL     1      -6.972  10.997  66.752  1.00  0.00    -0.131 C  
BRANCH  48  49
HETATM   49  C   UNL     1      -6.386  10.549  68.069  1.00  0.00    -0.058 A  
HETATM   50  C   UNL     1      -5.856  11.006  70.396  1.00  0.00    -0.137 A  
HETATM   51  C   UNL     1      -6.417  11.399  69.182  1.00  0.00    -0.085 A  
HETATM   52  C   UNL     1      -5.249   9.758  70.511  1.00  0.00    -0.039 A  
HETATM   53  C   UNL     1      -5.204   8.903  69.412  1.00  0.00    -0.035 A  
HETATM   54  C   UNL     1      -5.762   9.297  68.194  1.00  0.00    -0.038 A  
ENDBRANCH  48  49
ENDBRANCH  24  48
ENDBRANCH  22  24
ENDBRANCH   3  20
TORSDOF 18
ENDMDL
MODEL       89
REMARK 921   NORMALIZED FREE ENERGY PREDICTED BY IDOCK:   -3.07 KCAL/MOL
REMARK 922        TOTAL FREE ENERGY PREDICTED BY IDOCK:  -10.91 KCAL/MOL
REMARK 923 INTER-LIGAND FREE ENERGY PREDICTED BY IDOCK:  -10.23 KCAL/MOL
REMARK 924 INTRA-LIGAND FREE ENERGY PREDICTED BY IDOCK:   -0.68 KCAL/MOL
REMARK 927      BINDING AFFINITY PREDICTED BY RF-SCORE:    0.00 PKD
ROOT
HETATM    1  C   UNL     1      -9.485   7.560  72.203  1.00  0.00    -0.185 C  
HETATM    2  C   UNL     1     -10.670   8.364  71.681  1.00  0.00    -0.333 C  
HETATM    3  C   UNL     1     -11.025   8.110  70.196  1.00  0.00    -0.223 C  
HETATM    4  C   UNL     1     -11.862   8.180  72.628  1.00  0.00    -0.389 C  
ENDROOT
BRANCH   3   5
HETATM    5  N   UNL     1     -11.457   6.748  69.841  1.00  0.00    -0.525 N  
HETATM    6  H   UNL     1     -12.258   6.350  70.330  1.00  0.00     0.000 HD 
BRANCH   5   7
HETATM    7  C   UNL     1     -10.834   5.990  68.888  1.00  0.00    -0.331 C  
HETATM    8  O   UNL     1     -11.157   6.049  67.704  1.00  0.00    -0.297 OA 
BRANCH   7   9
HETATM    9  N   UNL     1      -9.878   5.098  69.331  1.00  0.00    -0.180 N  
HETATM   10  C   UNL     1     -10.085   3.922  70.161  1.00  0.00     0.257 C  
BRANCH   9  11
HETATM   11  C   UNL     1      -8.496   5.319  68.886  1.00  0.00    -0.091 C  
BRANCH  11  12
HETATM   12  C   UNL     1      -7.502   4.708  69.839  1.00  0.00    -0.054 A  
HETATM   13  C   UNL     1      -6.712   3.600  69.589  1.00  0.00    -0.034 A  
HETATM   14  N   UNL     1      -7.261   5.310  71.078  1.00  0.00    -0.067 NA 
HETATM   15  S   UNL     1      -5.654   3.307  70.899  1.00  0.00    -0.013 SA 
HETATM   16  C   UNL     1      -6.781   4.970  74.159  1.00  0.00    -0.071 C  
HETATM   17  C   UNL     1      -6.296   4.680  71.718  1.00  0.00    -0.022 A  
HETATM   18  C   UNL     1      -5.730   5.092  73.058  1.00  0.00    -0.021 C  
HETATM   19  C   UNL     1      -5.181   6.519  72.996  1.00  0.00    -0.036 C  
ENDBRANCH  11  12
ENDBRANCH   9  11
ENDBRANCH   7   9
ENDBRANCH   5   7
ENDBRANCH   3   5
BRANCH   3  20
HETATM   20  C   UNL     1      -9.978   8.736  69.222  1.00  0.00    -0.194 C  
HETATM   21  O   UNL     1      -8.766   8.547  69.314  1.00  0.00    -0.131 OA 
HETATM   22  N   UNL     1     -10.516   9.575  68.266  1.00  0.00    -0.214 N  
HETATM   23  H   UNL     1     -11.509   9.801  68.313  1.00  0.00     0.000 HD 
BRANCH  22  24
HETATM   24  C   UNL     1      -9.712  10.149  67.190  1.00  0.00    -0.173 C  
BRANCH  24  25
HETATM   25  C   UNL     1      -9.602  11.686  67.248  1.00  0.00    -0.182 C  
BRANCH  25  26
HETATM   26  C   UNL     1      -8.388  12.321  67.941  1.00  0.00    -0.163 C  
HETATM   27  H   UNL     1      -7.160  11.790  69.360  1.00  0.00     0.000 HD 
HETATM   28  O   UNL     1      -7.911  11.398  68.931  1.00  0.00    -0.142 OA 
BRANCH  26  29
HETATM   29  C   UNL     1      -8.609  13.719  68.595  1.00  0.00    -0.057 C  
BRANCH  29  30
HETATM   30  N   UNL     1      -7.693  14.742  68.089  1.00  0.00    -0.114 N  
HETATM   31  C   UNL     1      -7.945  16.073  68.281  1.00  0.00    -0.145 C  
HETATM   32  H   UNL     1      -6.853  14.458  67.585  1.00  0.00     0.000 HD 
HETATM   33  O   UNL     1      -8.604  16.518  69.199  1.00  0.00    -0.230 OA 
BRANCH  31  34
HETATM   34  O   UNL     1      -7.403  16.800  67.281  1.00  0.00    -0.151 OA 
BRANCH  34  35
HETATM   35  C   UNL     1      -7.076  18.168  67.599  1.00  0.00    -0.200 C  
BRANCH  35  36
HETATM   36  C   UNL     1      -8.199  19.093  67.262  1.00  0.00    -0.276 A  
HETATM   37  N   UNL     1      -9.735  20.318  65.984  1.00  0.00    -0.332 NA 
HETATM   38  C   UNL     1      -8.651  19.464  66.009  1.00  0.00    -0.183 A  
HETATM   39  C   UNL     1     -10.092  20.595  67.219  1.00  0.00    -0.209 A  
HETATM   40  S   UNL     1      -9.198  19.810  68.456  1.00  0.00    -0.209 SA 
ENDBRANCH  35  36
ENDBRANCH  34  35
ENDBRANCH  31  34
ENDBRANCH  29  30
BRANCH  29  41
HETATM   41  C   UNL     1     -10.097  14.196  68.509  1.00  0.00    -0.243 C  
BRANCH  41  42
HETATM   42  C   UNL     1     -10.755  14.172  67.145  1.00  0.00    -0.280 A  
HETATM   43  C   UNL     1     -10.603  14.318  64.716  1.00  0.00    -0.434 A  
HETATM   44  C   UNL     1     -10.045  14.486  65.979  1.00  0.00    -0.336 A  
HETATM   45  C   UNL     1     -12.094  13.793  67.011  1.00  0.00    -0.436 A  
HETATM   46  C   UNL     1     -12.669  13.646  65.742  1.00  0.00    -0.470 A  
HETATM   47  C   UNL     1     -11.917  13.892  64.595  1.00  0.00    -0.443 A  
ENDBRANCH  41  42
ENDBRANCH  29  41
ENDBRANCH  26  29
ENDBRANCH  25  26
ENDBRANCH  24  25
BRANCH  24  48
HETATM   48  C   UNL     1     -10.208   9.605  65.834  1.00  0.00    -0.219 C  
BRANCH  48  49
HETATM   49  C   UNL     1      -9.399  10.020  64.628  1.00  0.00    -0.338 A  
HETATM   50  C   UNL     1      -9.154  11.381  62.630  1.00  0.00    -0.242 A  
HETATM   51  C   UNL     1      -9.880  11.010  63.761  1.00  0.00    -0.379 A  
HETATM   52  C   UNL     1      -7.940  10.761  62.347  1.00  0.00    -0.215 A  
HETATM   53  C   UNL     1      -7.451   9.770  63.197  1.00  0.00    -0.120 A  
HETATM   54  C   UNL     1      -8.179   9.394  64.328  1.00  0.00    -0.153 A  
ENDBRANCH  48  49
ENDBRANCH  24  48
ENDBRANCH  22  24
ENDBRANCH   3  20
TORSDOF 18
ENDMDL
MODEL       90
REMARK 921   NORMALIZED FREE ENERGY PREDICTED BY IDOCK:   -2.95 KCAL/MOL
REMARK 922        TOTAL FREE ENERGY PREDICTED BY IDOCK:  -10.66 KCAL/MOL
REMARK 923 INTER-LIGAND FREE ENERGY PREDICTED BY IDOCK:   -9.48 KCAL/MOL
REMARK 924 INTRA-LIGAND FREE ENERGY PREDICTED BY IDOCK:   -1.18 KCAL/MOL
REMARK 927      BINDING AFFINITY PREDICTED BY RF-SCORE:    0.00 PKD
ROOT
HETATM    1  C   UNL     1     -12.431  14.850  68.065  1.00  0.00     0.434 C  
HETATM    2  C   UNL     1     -12.114  14.261  69.434  1.00  0.00    -0.361 C  
HETATM    3  C   UNL     1     -10.645  13.811  69.625  1.00  0.00     0.313 C  
HETATM    4  C   UNL     1     -12.597  15.227  70.524  1.00  0.00    -0.450 C  
ENDROOT
BRANCH   3   5
HETATM    5  N   UNL     1      -9.615  14.860  69.546  1.00  0.00    -0.426 N  
HETATM    6  H   UNL     1      -8.934  14.929  70.302  1.00  0.00     0.000 HD 
BRANCH   5   7
HETATM    7  C   UNL     1      -9.527  15.746  68.508  1.00  0.00    -0.201 C  
HETATM    8  O   UNL     1     -10.317  16.680  68.387  1.00  0.00    -0.266 OA 
BRANCH   7   9
HETATM    9  N   UNL     1      -8.555  15.497  67.561  1.00  0.00    -0.164 N  
HETATM   10  C   UNL     1      -7.357  14.685  67.717  1.00  0.00    -0.173 C  
BRANCH   9  11
HETATM   11  C   UNL     1      -8.758  16.067  66.222  1.00  0.00    -0.336 C  
BRANCH  11  12
HETATM   12  C   UNL     1      -9.943  15.447  65.529  1.00  0.00    -0.344 A  
HETATM   13  C   UNL     1     -11.021  16.130  64.995  1.00  0.00    -0.344 A  
HETATM   14  N   UNL     1      -9.982  14.066  65.313  1.00  0.00    -0.296 NA 
HETATM   15  S   UNL     1     -12.089  15.050  64.211  1.00  0.00    -0.148 SA 
HETATM   16  C   UNL     1     -11.655  11.412  65.323  1.00  0.00     0.121 C  
HETATM   17  C   UNL     1     -11.049  13.737  64.613  1.00  0.00    -0.388 A  
HETATM   18  C   UNL     1     -11.382  12.340  64.141  1.00  0.00    -0.442 C  
HETATM   19  C   UNL     1     -10.254  11.782  63.270  1.00  0.00    -0.452 C  
ENDBRANCH  11  12
ENDBRANCH   9  11
ENDBRANCH   7   9
ENDBRANCH   5   7
ENDBRANCH   3   5
BRANCH   3  20
HETATM   20  C   UNL     1     -10.316  12.513  68.822  1.00  0.00    -0.117 C  
HETATM   21  O   UNL     1     -11.157  11.866  68.200  1.00  0.00    -0.211 OA 
HETATM   22  N   UNL     1      -8.998  12.107  68.908  1.00  0.00    -0.373 N  
HETATM   23  H   UNL     1      -8.371  12.603  69.540  1.00  0.00     0.000 HD 
BRANCH  22  24
HETATM   24  C   UNL     1      -8.473  10.993  68.123  1.00  0.00    -0.135 C  
BRANCH  24  25
HETATM   25  C   UNL     1      -7.180  10.381  68.699  1.00  0.00    -0.082 C  
BRANCH  25  26
HETATM   26  C   UNL     1      -7.282   9.361  69.842  1.00  0.00    -0.083 C  
HETATM   27  H   UNL     1      -6.036   8.560  71.109  1.00  0.00     0.000 HD 
HETATM   28  O   UNL     1      -5.972   9.191  70.402  1.00  0.00    -0.036 OA 
BRANCH  26  29
HETATM   29  C   UNL     1      -7.881   7.967  69.482  1.00  0.00    -0.105 C  
BRANCH  29  30
HETATM   30  N   UNL     1      -7.758   6.991  70.565  1.00  0.00    -0.094 N  
HETATM   31  C   UNL     1      -7.786   7.384  71.876  1.00  0.00    -0.085 C  
HETATM   32  H   UNL     1      -7.651   6.002  70.340  1.00  0.00     0.000 HD 
HETATM   33  O   UNL     1      -8.340   8.388  72.277  1.00  0.00    -0.154 OA 
BRANCH  31  34
HETATM   34  O   UNL     1      -7.070   6.528  72.636  1.00  0.00    -0.073 OA 
BRANCH  34  35
HETATM   35  C   UNL     1      -7.381   5.129  72.477  1.00  0.00    -0.094 C  
BRANCH  35  36
HETATM   36  C   UNL     1      -8.762   4.818  72.950  1.00  0.00    -0.114 A  
HETATM   37  N   UNL     1     -10.922   3.909  72.996  1.00  0.00    -0.133 NA 
HETATM   38  C   UNL     1      -9.731   4.062  72.316  1.00  0.00    -0.156 A  
HETATM   39  C   UNL     1     -10.851   4.557  74.137  1.00  0.00    -0.206 A  
HETATM   40  S   UNL     1      -9.354   5.323  74.478  1.00  0.00    -0.136 SA 
ENDBRANCH  35  36
ENDBRANCH  34  35
ENDBRANCH  31  34
ENDBRANCH  29  30
BRANCH  29  41
HETATM   41  C   UNL     1      -9.355   8.060  68.965  1.00  0.00    -0.147 C  
BRANCH  41  42
HETATM   42  C   UNL     1     -10.451   8.149  70.007  1.00  0.00    -0.231 A  
HETATM   43  C   UNL     1     -12.121   7.079  71.423  1.00  0.00    -0.396 A  
HETATM   44  C   UNL     1     -11.222   7.036  70.363  1.00  0.00    -0.339 A  
HETATM   45  C   UNL     1     -10.696   9.353  70.674  1.00  0.00    -0.353 A  
HETATM   46  C   UNL     1     -11.619   9.409  71.727  1.00  0.00    -0.433 A  
HETATM   47  C   UNL     1     -12.318   8.266  72.112  1.00  0.00    -0.410 A  
ENDBRANCH  41  42
ENDBRANCH  29  41
ENDBRANCH  26  29
ENDBRANCH  25  26
ENDBRANCH  24  25
BRANCH  24  48
HETATM   48  C   UNL     1      -8.364  11.415  66.643  1.00  0.00    -0.172 C  
BRANCH  48  49
HETATM   49  C   UNL     1      -8.000  10.315  65.675  1.00  0.00    -0.150 A  
HETATM   50  C   UNL     1      -8.400   8.095  64.771  1.00  0.00    -0.113 A  
HETATM   51  C   UNL     1      -8.743   9.128  65.643  1.00  0.00    -0.203 A  
HETATM   52  C   UNL     1      -7.303   8.234  63.924  1.00  0.00    -0.100 A  
HETATM   53  C   UNL     1      -6.550   9.407  63.949  1.00  0.00    -0.095 A  
HETATM   54  C   UNL     1      -6.890  10.440  64.824  1.00  0.00    -0.028 A  
ENDBRANCH  48  49
ENDBRANCH  24  48
ENDBRANCH  22  24
ENDBRANCH   3  20
TORSDOF 18
ENDMDL
MODEL       91
REMARK 921   NORMALIZED FREE ENERGY PREDICTED BY IDOCK:   -2.74 KCAL/MOL
REMARK 922        TOTAL FREE ENERGY PREDICTED BY IDOCK:  -10.23 KCAL/MOL
REMARK 923 INTER-LIGAND FREE ENERGY PREDICTED BY IDOCK:   -7.76 KCAL/MOL
REMARK 924 INTRA-LIGAND FREE ENERGY PREDICTED BY IDOCK:   -2.47 KCAL/MOL
REMARK 927      BINDING AFFINITY PREDICTED BY RF-SCORE:    0.00 PKD
ROOT
HETATM    1  C   UNL     1     -13.033  10.027  69.856  1.00  0.00     0.532 C  
HETATM    2  C   UNL     1     -11.521  10.045  70.047  1.00  0.00    -0.310 C  
HETATM    3  C   UNL     1     -10.769  11.088  69.185  1.00  0.00    -0.234 C  
HETATM    4  C   UNL     1     -11.201  10.153  71.543  1.00  0.00     0.171 C  
ENDROOT
BRANCH   3   5
HETATM    5  N   UNL     1     -11.081  12.505  69.436  1.00  0.00    -0.452 N  
HETATM    6  H   UNL     1     -11.471  12.762  70.342  1.00  0.00     0.000 HD 
BRANCH   5   7
HETATM    7  C   UNL     1     -10.873  13.492  68.513  1.00  0.00    -0.264 C  
HETATM    8  O   UNL     1     -11.800  14.163  68.065  1.00  0.00    -0.341 OA 
BRANCH   7   9
HETATM    9  N   UNL     1      -9.582  13.647  68.051  1.00  0.00    -0.210 N  
HETATM   10  C   UNL     1      -9.132  13.633  66.667  1.00  0.00    -0.174 C  
BRANCH   9  11
HETATM   11  C   UNL     1      -8.536  13.902  69.050  1.00  0.00     0.198 C  
BRANCH  11  12
HETATM   12  C   UNL     1      -7.571  14.960  68.586  1.00  0.00    -0.124 A  
HETATM   13  C   UNL     1      -6.295  14.741  68.097  1.00  0.00    -0.138 A  
HETATM   14  N   UNL     1      -7.967  16.302  68.556  1.00  0.00    -0.174 NA 
HETATM   15  S   UNL     1      -5.584  16.209  67.589  1.00  0.00    -0.137 SA 
HETATM   16  C   UNL     1      -7.250  19.306  69.103  1.00  0.00    -0.360 C  
HETATM   17  C   UNL     1      -7.018  17.052  68.033  1.00  0.00    -0.165 A  
HETATM   18  C   UNL     1      -7.125  18.540  67.787  1.00  0.00    -0.222 C  
HETATM   19  C   UNL     1      -8.309  18.853  66.870  1.00  0.00    -0.289 C  
ENDBRANCH  11  12
ENDBRANCH   9  11
ENDBRANCH   7   9
ENDBRANCH   5   7
ENDBRANCH   3   5
BRANCH   3  20
HETATM   20  C   UNL     1     -10.726  10.688  67.676  1.00  0.00    -0.267 C  
HETATM   21  O   UNL     1     -11.540  11.085  66.844  1.00  0.00    -0.378 OA 
HETATM   22  N   UNL     1      -9.723   9.796  67.350  1.00  0.00    -0.157 N  
HETATM   23  H   UNL     1      -9.158   9.396  68.098  1.00  0.00     0.000 HD 
BRANCH  22  24
HETATM   24  C   UNL     1      -9.445   9.407  65.970  1.00  0.00    -0.241 C  
BRANCH  24  25
HETATM   25  C   UNL     1      -8.878   7.979  65.827  1.00  0.00    -0.170 C  
BRANCH  25  26
HETATM   26  C   UNL     1      -9.761   6.784  66.213  1.00  0.00     0.009 C  
HETATM   27  H   UNL     1     -11.463   6.552  67.134  1.00  0.00     0.000 HD 
HETATM   28  O   UNL     1     -10.917   7.291  66.896  1.00  0.00    -0.343 OA 
BRANCH  26  29
HETATM   29  C   UNL     1      -9.092   5.671  67.075  1.00  0.00    -0.113 C  
BRANCH  29  30
HETATM   30  N   UNL     1      -8.084   6.188  68.002  1.00  0.00    -0.113 N  
HETATM   31  C   UNL     1      -6.997   5.436  68.355  1.00  0.00    -0.061 C  
HETATM   32  H   UNL     1      -8.194   7.125  68.391  1.00  0.00     0.000 HD 
HETATM   33  O   UNL     1      -6.518   4.559  67.662  1.00  0.00    -0.043 OA 
BRANCH  31  34
HETATM   34  O   UNL     1      -6.575   5.776  69.591  1.00  0.00    -0.046 OA 
BRANCH  34  35
HETATM   35  C   UNL     1      -7.247   6.895  70.204  1.00  0.00    -0.076 C  
BRANCH  35  36
HETATM   36  C   UNL     1      -7.049   6.909  71.684  1.00  0.00    -0.074 A  
HETATM   37  N   UNL     1      -6.538   6.158  73.844  1.00  0.00    -0.071 NA 
HETATM   38  C   UNL     1      -6.678   5.860  72.504  1.00  0.00    -0.069 A  
HETATM   39  C   UNL     1      -6.814   7.430  74.032  1.00  0.00    -0.084 A  
HETATM   40  S   UNL     1      -7.190   8.336  72.624  1.00  0.00    -0.079 SA 
ENDBRANCH  35  36
ENDBRANCH  34  35
ENDBRANCH  31  34
ENDBRANCH  29  30
BRANCH  29  41
HETATM   41  C   UNL     1     -10.137   4.772  67.815  1.00  0.00    -0.129 C  
BRANCH  41  42
HETATM   42  C   UNL     1     -10.323   5.005  69.300  1.00  0.00    -0.199 A  
HETATM   43  C   UNL     1      -9.820   4.431  71.615  1.00  0.00    -0.255 A  
HETATM   44  C   UNL     1      -9.780   4.138  70.256  1.00  0.00    -0.277 A  
HETATM   45  C   UNL     1     -11.018   6.128  69.758  1.00  0.00    -0.459 A  
HETATM   46  C   UNL     1     -11.083   6.416  71.128  1.00  0.00    -0.344 A  
HETATM   47  C   UNL     1     -10.467   5.576  72.054  1.00  0.00    -0.277 A  
ENDBRANCH  41  42
ENDBRANCH  29  41
ENDBRANCH  26  29
ENDBRANCH  25  26
ENDBRANCH  24  25
BRANCH  24  48
HETATM   48  C   UNL     1      -8.584  10.495  65.295  1.00  0.00    -0.185 C  
BRANCH  48  49
HETATM   49  C   UNL     1      -7.576   9.998  64.286  1.00  0.00    -0.141 A  
HETATM   50  C   UNL     1      -5.326  10.042  63.369  1.00  0.00    -0.104 A  
HETATM   51  C   UNL     1      -6.258  10.474  64.312  1.00  0.00     0.010 A  
HETATM   52  C   UNL     1      -5.702   9.135  62.382  1.00  0.00    -0.086 A  
HETATM   53  C   UNL     1      -7.011   8.658  62.339  1.00  0.00    -0.094 A  
HETATM   54  C   UNL     1      -7.947   9.092  63.280  1.00  0.00    -0.147 A  
ENDBRANCH  48  49
ENDBRANCH  24  48
ENDBRANCH  22  24
ENDBRANCH   3  20
TORSDOF 18
ENDMDL
MODEL       92
REMARK 921   NORMALIZED FREE ENERGY PREDICTED BY IDOCK:   -2.73 KCAL/MOL
REMARK 922        TOTAL FREE ENERGY PREDICTED BY IDOCK:  -10.21 KCAL/MOL
REMARK 923 INTER-LIGAND FREE ENERGY PREDICTED BY IDOCK:  -11.35 KCAL/MOL
REMARK 924 INTRA-LIGAND FREE ENERGY PREDICTED BY IDOCK:    1.14 KCAL/MOL
REMARK 927      BINDING AFFINITY PREDICTED BY RF-SCORE:    0.00 PKD
ROOT
HETATM    1  C   UNL     1      -6.530  12.415  67.344  1.00  0.00    -0.154 C  
HETATM    2  C   UNL     1      -6.925  12.177  68.797  1.00  0.00    -0.101 C  
HETATM    3  C   UNL     1      -7.762  10.899  69.043  1.00  0.00    -0.135 C  
HETATM    4  C   UNL     1      -5.674  12.260  69.681  1.00  0.00    -0.101 C  
ENDROOT
BRANCH   3   5
HETATM    5  N   UNL     1      -7.115   9.613  68.733  1.00  0.00    -0.067 N  
HETATM    6  H   UNL     1      -6.155   9.623  68.390  1.00  0.00     0.000 HD 
BRANCH   5   7
HETATM    7  C   UNL     1      -7.739   8.405  68.885  1.00  0.00    -0.105 C  
HETATM    8  O   UNL     1      -8.418   8.149  69.877  1.00  0.00    -0.122 OA 
BRANCH   7   9
HETATM    9  N   UNL     1      -7.507   7.459  67.907  1.00  0.00    -0.099 N  
HETATM   10  C   UNL     1      -6.305   6.662  67.719  1.00  0.00    -0.044 C  
BRANCH   9  11
HETATM   11  C   UNL     1      -8.602   7.178  66.970  1.00  0.00    -0.122 C  
BRANCH  11  12
HETATM   12  C   UNL     1      -8.851   5.699  66.836  1.00  0.00    -0.113 A  
HETATM   13  C   UNL     1      -9.069   4.813  67.877  1.00  0.00    -0.116 A  
HETATM   14  N   UNL     1      -8.954   5.120  65.567  1.00  0.00    -0.155 NA 
HETATM   15  S   UNL     1      -9.410   3.250  67.277  1.00  0.00    -0.152 SA 
HETATM   16  C   UNL     1      -8.252   2.726  63.665  1.00  0.00    -0.085 C  
HETATM   17  C   UNL     1      -9.266   3.843  65.666  1.00  0.00    -0.152 A  
HETATM   18  C   UNL     1      -9.519   2.918  64.497  1.00  0.00    -0.146 C  
HETATM   19  C   UNL     1     -10.657   3.450  63.624  1.00  0.00    -0.270 C  
ENDBRANCH  11  12
ENDBRANCH   9  11
ENDBRANCH   7   9
ENDBRANCH   5   7
ENDBRANCH   3   5
BRANCH   3  20
HETATM   20  C   UNL     1      -9.223  11.037  68.510  1.00  0.00    -0.177 C  
HETATM   21  O   UNL     1      -9.650  10.431  67.529  1.00  0.00    -0.154 OA 
HETATM   22  N   UNL     1      -9.999  11.948  69.201  1.00  0.00    -0.406 N  
HETATM   23  H   UNL     1      -9.562  12.520  69.923  1.00  0.00     0.000 HD 
BRANCH  22  24
HETATM   24  C   UNL     1     -11.424  12.119  68.933  1.00  0.00    -0.297 C  
BRANCH  24  25
HETATM   25  C   UNL     1     -11.762  13.412  68.161  1.00  0.00    -0.397 C  
BRANCH  25  26
HETATM   26  C   UNL     1     -10.618  14.327  67.703  1.00  0.00    -0.253 C  
HETATM   27  H   UNL     1      -9.210  15.345  68.587  1.00  0.00     0.000 HD 
HETATM   28  O   UNL     1      -9.918  14.779  68.871  1.00  0.00    -0.226 OA 
BRANCH  26  29
HETATM   29  C   UNL     1     -11.014  15.552  66.824  1.00  0.00    -0.257 C  
BRANCH  29  30
HETATM   30  N   UNL     1      -9.858  16.278  66.296  1.00  0.00    -0.292 N  
HETATM   31  C   UNL     1      -8.599  15.745  66.361  1.00  0.00    -0.311 C  
HETATM   32  H   UNL     1      -9.993  17.197  65.873  1.00  0.00     0.000 HD 
HETATM   33  O   UNL     1      -8.363  14.554  66.402  1.00  0.00     0.129 OA 
BRANCH  31  34
HETATM   34  O   UNL     1      -7.678  16.730  66.425  1.00  0.00    -0.272 OA 
BRANCH  34  35
HETATM   35  C   UNL     1      -6.373  16.345  66.903  1.00  0.00    -0.074 C  
BRANCH  35  36
HETATM   36  C   UNL     1      -6.086  16.934  68.245  1.00  0.00    -0.133 A  
HETATM   37  N   UNL     1      -5.413  17.087  70.485  1.00  0.00    -0.217 NA 
HETATM   38  C   UNL     1      -5.620  16.291  69.377  1.00  0.00    -0.132 A  
HETATM   39  C   UNL     1      -5.731  18.327  70.188  1.00  0.00    -0.224 A  
HETATM   40  S   UNL     1      -6.231  18.611  68.571  1.00  0.00    -0.219 SA 
ENDBRANCH  35  36
ENDBRANCH  34  35
ENDBRANCH  31  34
ENDBRANCH  29  30
BRANCH  29  41
HETATM   41  C   UNL     1     -12.018  15.177  65.684  1.00  0.00     0.141 C  
BRANCH  41  42
HETATM   42  C   UNL     1     -11.814  13.846  64.990  1.00  0.00    -0.383 A  
HETATM   43  C   UNL     1     -12.722  11.821  63.982  1.00  0.00    -0.247 A  
HETATM   44  C   UNL     1     -12.879  12.969  64.750  1.00  0.00    -0.336 A  
HETATM   45  C   UNL     1     -10.547  13.474  64.533  1.00  0.00    -0.439 A  
HETATM   46  C   UNL     1     -10.377  12.305  63.779  1.00  0.00    -0.464 A  
HETATM   47  C   UNL     1     -11.469  11.489  63.489  1.00  0.00    -0.334 A  
ENDBRANCH  41  42
ENDBRANCH  29  41
ENDBRANCH  26  29
ENDBRANCH  25  26
ENDBRANCH  24  25
BRANCH  24  48
HETATM   48  C   UNL     1     -12.217  11.946  70.245  1.00  0.00    -0.353 C  
BRANCH  48  49
HETATM   49  C   UNL     1     -12.689  13.223  70.897  1.00  0.00    -0.332 A  
HETATM   50  C   UNL     1     -13.015  15.630  70.811  1.00  0.00    -0.413 A  
HETATM   51  C   UNL     1     -12.607  14.441  70.208  1.00  0.00    -0.380 A  
HETATM   52  C   UNL     1     -13.505  15.618  72.114  1.00  0.00    -0.561 A  
HETATM   53  C   UNL     1     -13.588  14.416  72.815  1.00  0.00    -0.531 A  
HETATM   54  C   UNL     1     -13.175  13.225  72.214  1.00  0.00    -0.567 A  
ENDBRANCH  48  49
ENDBRANCH  24  48
ENDBRANCH  22  24
ENDBRANCH   3  20
TORSDOF 18
ENDMDL
MODEL       93
REMARK 921   NORMALIZED FREE ENERGY PREDICTED BY IDOCK:   -2.66 KCAL/MOL
REMARK 922        TOTAL FREE ENERGY PREDICTED BY IDOCK:  -10.08 KCAL/MOL
REMARK 923 INTER-LIGAND FREE ENERGY PREDICTED BY IDOCK:   -8.53 KCAL/MOL
REMARK 924 INTRA-LIGAND FREE ENERGY PREDICTED BY IDOCK:   -1.55 KCAL/MOL
REMARK 927      BINDING AFFINITY PREDICTED BY RF-SCORE:    0.00 PKD
ROOT
HETATM    1  C   UNL     1     -10.447  15.602  65.433  1.00  0.00    -0.435 C  
HETATM    2  C   UNL     1     -10.934  14.159  65.391  1.00  0.00    -0.328 C  
HETATM    3  C   UNL     1     -10.719  13.361  66.700  1.00  0.00    -0.282 C  
HETATM    4  C   UNL     1     -12.386  14.130  64.898  1.00  0.00    -0.446 C  
ENDROOT
BRANCH   3   5
HETATM    5  N   UNL     1     -11.431  13.844  67.895  1.00  0.00    -0.299 N  
HETATM    6  H   UNL     1     -11.855  13.157  68.518  1.00  0.00     0.000 HD 
BRANCH   5   7
HETATM    7  C   UNL     1     -11.550  15.170  68.211  1.00  0.00    -0.339 C  
HETATM    8  O   UNL     1     -12.466  15.859  67.769  1.00  0.00     0.881 OA 
BRANCH   7   9
HETATM    9  N   UNL     1     -10.548  15.714  68.989  1.00  0.00    -0.222 N  
HETATM   10  C   UNL     1      -9.375  15.037  69.519  1.00  0.00    -0.062 C  
BRANCH   9  11
HETATM   11  C   UNL     1     -10.632  17.150  69.285  1.00  0.00    -0.220 C  
BRANCH  11  12
HETATM   12  C   UNL     1     -10.100  17.984  68.150  1.00  0.00    -0.372 A  
HETATM   13  C   UNL     1     -10.839  18.842  67.355  1.00  0.00    -0.374 A  
HETATM   14  N   UNL     1      -8.730  17.988  67.869  1.00  0.00    -0.252 NA 
HETATM   15  S   UNL     1      -9.825  19.667  66.254  1.00  0.00    -0.461 SA 
HETATM   16  C   UNL     1      -6.451  17.938  65.714  1.00  0.00    -0.263 C  
HETATM   17  C   UNL     1      -8.457  18.847  66.907  1.00  0.00    -0.286 A  
HETATM   18  C   UNL     1      -7.072  19.159  66.389  1.00  0.00    -0.240 C  
HETATM   19  C   UNL     1      -6.173  19.663  67.520  1.00  0.00    -0.214 C  
ENDBRANCH  11  12
ENDBRANCH   9  11
ENDBRANCH   7   9
ENDBRANCH   5   7
ENDBRANCH   3   5
BRANCH   3  20
HETATM   20  C   UNL     1      -9.217  13.007  66.936  1.00  0.00    -0.236 C  
HETATM   21  O   UNL     1      -8.292  13.790  66.726  1.00  0.00    -0.078 OA 
HETATM   22  N   UNL     1      -8.995  11.708  67.352  1.00  0.00    -0.162 N  
HETATM   23  H   UNL     1      -9.782  11.061  67.385  1.00  0.00     0.000 HD 
BRANCH  22  24
HETATM   24  C   UNL     1      -7.672  11.232  67.747  1.00  0.00    -0.113 C  
BRANCH  24  25
HETATM   25  C   UNL     1      -7.086  10.165  66.799  1.00  0.00    -0.092 C  
BRANCH  25  26
HETATM   26  C   UNL     1      -7.949   8.955  66.413  1.00  0.00    -0.103 C  
HETATM   27  H   UNL     1      -9.859   8.607  66.237  1.00  0.00     0.000 HD 
HETATM   28  O   UNL     1      -9.325   9.356  66.475  1.00  0.00    -0.151 OA 
BRANCH  26  29
HETATM   29  C   UNL     1      -7.745   7.657  67.252  1.00  0.00    -0.113 C  
BRANCH  29  30
HETATM   30  N   UNL     1      -8.212   6.450  66.568  1.00  0.00    -0.110 N  
HETATM   31  C   UNL     1      -8.842   5.448  67.255  1.00  0.00    -0.105 C  
HETATM   32  H   UNL     1      -8.066   6.355  65.563  1.00  0.00     0.000 HD 
HETATM   33  O   UNL     1      -9.464   5.613  68.286  1.00  0.00    -0.110 OA 
BRANCH  31  34
HETATM   34  O   UNL     1      -8.628   4.261  66.650  1.00  0.00    -0.111 OA 
BRANCH  34  35
HETATM   35  C   UNL     1      -8.427   4.305  65.222  1.00  0.00    -0.115 C  
BRANCH  35  36
HETATM   36  C   UNL     1      -9.353   3.374  64.510  1.00  0.00    -0.143 A  
HETATM   37  N   UNL     1     -11.187   2.622  63.260  1.00  0.00    -0.288 NA 
HETATM   38  C   UNL     1     -10.539   3.678  63.867  1.00  0.00    -0.277 A  
HETATM   39  C   UNL     1     -10.492   1.523  63.455  1.00  0.00    -0.138 A  
HETATM   40  S   UNL     1      -9.016   1.705  64.311  1.00  0.00    -0.109 SA 
ENDBRANCH  35  36
ENDBRANCH  34  35
ENDBRANCH  31  34
ENDBRANCH  29  30
BRANCH  29  41
HETATM   41  C   UNL     1      -6.273   7.490  67.757  1.00  0.00    -0.048 C  
BRANCH  41  42
HETATM   42  C   UNL     1      -6.056   7.434  69.255  1.00  0.00    -0.031 A  
HETATM   43  C   UNL     1      -5.311   8.477  71.328  1.00  0.00    -0.033 A  
HETATM   44  C   UNL     1      -5.379   8.450  69.940  1.00  0.00    -0.026 A  
HETATM   45  C   UNL     1      -6.568   6.371  70.005  1.00  0.00    -0.048 A  
HETATM   46  C   UNL     1      -6.482   6.380  71.403  1.00  0.00    -0.050 A  
HETATM   47  C   UNL     1      -5.869   7.443  72.065  1.00  0.00    -0.036 A  
ENDBRANCH  41  42
ENDBRANCH  29  41
ENDBRANCH  26  29
ENDBRANCH  25  26
ENDBRANCH  24  25
BRANCH  24  48
HETATM   48  C   UNL     1      -7.702  10.805  69.229  1.00  0.00    -0.129 C  
BRANCH  48  49
HETATM   49  C   UNL     1      -9.024  10.273  69.730  1.00  0.00    -0.079 A  
HETATM   50  C   UNL     1     -11.424  10.532  70.005  1.00  0.00    -0.393 A  
HETATM   51  C   UNL     1     -10.203  11.002  69.524  1.00  0.00    -0.032 A  
HETATM   52  C   UNL     1     -11.481   9.330  70.706  1.00  0.00    -0.351 A  
HETATM   53  C   UNL     1     -10.316   8.597  70.924  1.00  0.00    -0.262 A  
HETATM   54  C   UNL     1      -9.092   9.068  70.446  1.00  0.00    -0.242 A  
ENDBRANCH  48  49
ENDBRANCH  24  48
ENDBRANCH  22  24
ENDBRANCH   3  20
TORSDOF 18
ENDMDL
MODEL       94
REMARK 921   NORMALIZED FREE ENERGY PREDICTED BY IDOCK:   -2.50 KCAL/MOL
REMARK 922        TOTAL FREE ENERGY PREDICTED BY IDOCK:   -9.75 KCAL/MOL
REMARK 923 INTER-LIGAND FREE ENERGY PREDICTED BY IDOCK:   -8.64 KCAL/MOL
REMARK 924 INTRA-LIGAND FREE ENERGY PREDICTED BY IDOCK:   -1.12 KCAL/MOL
REMARK 927      BINDING AFFINITY PREDICTED BY RF-SCORE:    0.00 PKD
ROOT
HETATM    1  C   UNL     1     -11.104  11.444  70.299  1.00  0.00     0.206 C  
HETATM    2  C   UNL     1     -10.714  11.263  68.837  1.00  0.00    -0.246 C  
HETATM    3  C   UNL     1      -9.266  10.764  68.608  1.00  0.00    -0.184 C  
HETATM    4  C   UNL     1     -11.769  10.400  68.135  1.00  0.00     0.123 C  
ENDROOT
BRANCH   3   5
HETATM    5  N   UNL     1      -8.933   9.430  69.135  1.00  0.00    -0.142 N  
HETATM    6  H   UNL     1      -8.391   9.371  69.996  1.00  0.00     0.000 HD 
BRANCH   5   7
HETATM    7  C   UNL     1      -9.318   8.268  68.526  1.00  0.00    -0.138 C  
HETATM    8  O   UNL     1      -9.230   8.116  67.309  1.00  0.00    -0.134 OA 
BRANCH   7   9
HETATM    9  N   UNL     1      -9.881   7.301  69.334  1.00  0.00    -0.162 N  
HETATM   10  C   UNL     1     -11.194   6.691  69.197  1.00  0.00    -0.242 C  
BRANCH   9  11
HETATM   11  C   UNL     1      -9.058   6.781  70.434  1.00  0.00    -0.153 C  
BRANCH  11  12
HETATM   12  C   UNL     1      -7.968   5.872  69.931  1.00  0.00    -0.104 A  
HETATM   13  C   UNL     1      -6.663   5.835  70.390  1.00  0.00    -0.048 A  
HETATM   14  N   UNL     1      -8.256   4.907  68.961  1.00  0.00    -0.082 NA 
HETATM   15  S   UNL     1      -5.788   4.588  69.617  1.00  0.00    -0.018 SA 
HETATM   16  C   UNL     1      -7.386   3.419  66.340  1.00  0.00    -0.075 C  
HETATM   17  C   UNL     1      -7.198   4.156  68.727  1.00  0.00    -0.055 A  
HETATM   18  C   UNL     1      -7.163   2.975  67.784  1.00  0.00    -0.053 C  
HETATM   19  C   UNL     1      -8.202   1.929  68.191  1.00  0.00    -0.071 C  
ENDBRANCH  11  12
ENDBRANCH   9  11
ENDBRANCH   7   9
ENDBRANCH   5   7
ENDBRANCH   3   5
BRANCH   3  20
HETATM   20  C   UNL     1      -8.205  11.868  68.912  1.00  0.00     0.093 C  
HETATM   21  O   UNL     1      -7.109  11.637  69.421  1.00  0.00    -0.092 OA 
HETATM   22  N   UNL     1      -8.615  13.153  68.613  1.00  0.00    -0.365 N  
HETATM   23  H   UNL     1      -9.578  13.306  68.316  1.00  0.00     0.000 HD 
BRANCH  22  24
HETATM   24  C   UNL     1      -7.716  14.300  68.707  1.00  0.00    -0.134 C  
BRANCH  24  25
HETATM   25  C   UNL     1      -8.361  15.546  69.349  1.00  0.00    -0.249 C  
BRANCH  25  26
HETATM   26  C   UNL     1      -9.839  15.492  69.760  1.00  0.00    -0.262 C  
HETATM   27  H   UNL     1     -10.959  14.254  70.768  1.00  0.00     0.000 HD 
HETATM   28  O   UNL     1     -10.045  14.288  70.514  1.00  0.00     1.083 OA 
BRANCH  26  29
HETATM   29  C   UNL     1     -10.888  15.574  68.610  1.00  0.00    -0.267 C  
BRANCH  29  30
HETATM   30  N   UNL     1     -10.833  14.429  67.699  1.00  0.00    -0.269 N  
HETATM   31  C   UNL     1     -11.173  14.560  66.380  1.00  0.00    -0.341 C  
HETATM   32  H   UNL     1     -10.536  13.520  68.054  1.00  0.00     0.000 HD 
HETATM   33  O   UNL     1     -11.094  15.598  65.753  1.00  0.00    -0.280 OA 
BRANCH  31  34
HETATM   34  O   UNL     1     -11.650  13.391  65.902  1.00  0.00    -0.322 OA 
BRANCH  34  35
HETATM   35  C   UNL     1     -11.568  13.210  64.474  1.00  0.00    -0.364 C  
BRANCH  35  36
HETATM   36  C   UNL     1     -10.688  12.057  64.117  1.00  0.00    -0.357 A  
HETATM   37  N   UNL     1      -9.622  10.418  62.825  1.00  0.00    -0.313 NA 
HETATM   38  C   UNL     1     -10.530  11.456  62.882  1.00  0.00    -0.027 A  
HETATM   39  C   UNL     1      -9.104  10.235  64.019  1.00  0.00    -0.251 A  
HETATM   40  S   UNL     1      -9.625  11.320  65.242  1.00  0.00    -0.232 SA 
ENDBRANCH  35  36
ENDBRANCH  34  35
ENDBRANCH  31  34
ENDBRANCH  29  30
BRANCH  29  41
HETATM   41  C   UNL     1     -12.342  15.813  69.135  1.00  0.00     0.049 C  
BRANCH  41  42
HETATM   42  C   UNL     1     -12.625  15.453  70.579  1.00  0.00    -0.471 A  
HETATM   43  C   UNL     1     -13.423  13.867  72.250  1.00  0.00    -0.623 A  
HETATM   44  C   UNL     1     -13.296  14.274  70.926  1.00  0.00    -0.266 A  
HETATM   45  C   UNL     1     -12.183  16.280  71.615  1.00  0.00    -0.264 A  
HETATM   46  C   UNL     1     -12.329  15.888  72.952  1.00  0.00    -0.593 A  
HETATM   47  C   UNL     1     -12.933  14.672  73.267  1.00  0.00    -0.569 A  
ENDBRANCH  41  42
ENDBRANCH  29  41
ENDBRANCH  26  29
ENDBRANCH  25  26
ENDBRANCH  24  25
BRANCH  24  48
HETATM   48  C   UNL     1      -7.076  14.564  67.329  1.00  0.00    -0.002 C  
BRANCH  48  49
HETATM   49  C   UNL     1      -6.817  16.014  66.995  1.00  0.00    -0.180 A  
HETATM   50  C   UNL     1      -5.363  17.959  67.072  1.00  0.00    -0.159 A  
HETATM   51  C   UNL     1      -5.602  16.614  67.352  1.00  0.00    -0.180 A  
HETATM   52  C   UNL     1      -6.339  18.723  66.438  1.00  0.00    -0.218 A  
HETATM   53  C   UNL     1      -7.554  18.142  66.081  1.00  0.00    -0.278 A  
HETATM   54  C   UNL     1      -7.797  16.796  66.365  1.00  0.00    -0.353 A  
ENDBRANCH  48  49
ENDBRANCH  24  48
ENDBRANCH  22  24
ENDBRANCH   3  20
TORSDOF 18
ENDMDL
MODEL       95
REMARK 921   NORMALIZED FREE ENERGY PREDICTED BY IDOCK:   -2.46 KCAL/MOL
REMARK 922        TOTAL FREE ENERGY PREDICTED BY IDOCK:   -9.67 KCAL/MOL
REMARK 923 INTER-LIGAND FREE ENERGY PREDICTED BY IDOCK:   -8.11 KCAL/MOL
REMARK 924 INTRA-LIGAND FREE ENERGY PREDICTED BY IDOCK:   -1.56 KCAL/MOL
REMARK 927      BINDING AFFINITY PREDICTED BY RF-SCORE:    0.00 PKD
ROOT
HETATM    1  C   UNL     1      -9.079   7.254  73.370  1.00  0.00    -0.213 C  
HETATM    2  C   UNL     1      -9.941   7.605  72.164  1.00  0.00    -0.232 C  
HETATM    3  C   UNL     1      -9.263   7.378  70.790  1.00  0.00    -0.159 C  
HETATM    4  C   UNL     1     -11.299   6.903  72.290  1.00  0.00    -0.306 C  
ENDROOT
BRANCH   3   5
HETATM    5  N   UNL     1      -8.894   5.993  70.454  1.00  0.00    -0.146 N  
HETATM    6  H   UNL     1      -8.128   5.557  70.966  1.00  0.00     0.000 HD 
BRANCH   5   7
HETATM    7  C   UNL     1      -9.531   5.262  69.489  1.00  0.00    -0.138 C  
HETATM    8  O   UNL     1     -10.614   5.610  69.025  1.00  0.00    -0.245 OA 
BRANCH   7   9
HETATM    9  N   UNL     1      -8.935   4.075  69.116  1.00  0.00    -0.100 N  
HETATM   10  C   UNL     1      -9.456   3.077  68.193  1.00  0.00    -0.159 C  
BRANCH   9  11
HETATM   11  C   UNL     1      -7.603   3.789  69.665  1.00  0.00    -0.052 C  
BRANCH  11  12
HETATM   12  C   UNL     1      -7.690   3.049  70.974  1.00  0.00    -0.043 A  
HETATM   13  C   UNL     1      -6.702   2.253  71.525  1.00  0.00    -0.023 A  
HETATM   14  N   UNL     1      -8.820   3.195  71.785  1.00  0.00    -0.083 NA 
HETATM   15  S   UNL     1      -7.174   1.687  73.067  1.00  0.00    -0.028 SA 
HETATM   16  C   UNL     1     -10.955   1.851  73.650  1.00  0.00    -0.267 C  
HETATM   17  C   UNL     1      -8.660   2.545  72.921  1.00  0.00    -0.071 A  
HETATM   18  C   UNL     1      -9.652   2.535  74.062  1.00  0.00    -0.118 C  
HETATM   19  C   UNL     1      -9.925   3.958  74.553  1.00  0.00    -0.205 C  
ENDBRANCH  11  12
ENDBRANCH   9  11
ENDBRANCH   7   9
ENDBRANCH   5   7
ENDBRANCH   3   5
BRANCH   3  20
HETATM   20  C   UNL     1      -8.154   8.437  70.497  1.00  0.00    -0.107 C  
HETATM   21  O   UNL     1      -7.255   8.718  71.288  1.00  0.00    -0.080 OA 
HETATM   22  N   UNL     1      -8.290   9.086  69.285  1.00  0.00    -0.120 N  
HETATM   23  H   UNL     1      -9.123   8.911  68.724  1.00  0.00     0.000 HD 
BRANCH  22  24
HETATM   24  C   UNL     1      -7.280  10.012  68.779  1.00  0.00    -0.076 C  
BRANCH  24  25
HETATM   25  C   UNL     1      -7.729  11.489  68.790  1.00  0.00    -0.124 C  
BRANCH  25  26
HETATM   26  C   UNL     1      -7.170  12.445  67.728  1.00  0.00    -0.119 C  
HETATM   27  H   UNL     1      -5.479  13.370  67.438  1.00  0.00     0.000 HD 
HETATM   28  O   UNL     1      -5.824  12.778  68.096  1.00  0.00    -0.066 OA 
BRANCH  26  29
HETATM   29  C   UNL     1      -7.980  13.752  67.470  1.00  0.00    -0.181 C  
BRANCH  29  30
HETATM   30  N   UNL     1      -9.425  13.530  67.402  1.00  0.00    -0.218 N  
HETATM   31  C   UNL     1     -10.154  13.947  66.321  1.00  0.00    -0.300 C  
HETATM   32  H   UNL     1      -9.896  13.056  68.173  1.00  0.00     0.000 HD 
HETATM   33  O   UNL     1      -9.698  14.089  65.204  1.00  0.00    -0.173 OA 
BRANCH  31  34
HETATM   34  O   UNL     1     -11.422  14.223  66.691  1.00  0.00    -0.336 OA 
BRANCH  34  35
HETATM   35  C   UNL     1     -12.105  13.188  67.428  1.00  0.00    -0.263 C  
BRANCH  35  36
HETATM   36  C   UNL     1     -12.033  13.425  68.900  1.00  0.00    -0.324 A  
HETATM   37  N   UNL     1     -12.072  14.556  70.953  1.00  0.00    -0.317 NA 
HETATM   38  C   UNL     1     -12.149  14.626  69.577  1.00  0.00    -0.295 A  
HETATM   39  C   UNL     1     -11.888  13.304  71.309  1.00  0.00     0.694 A  
HETATM   40  S   UNL     1     -11.860  12.153  70.037  1.00  0.00    -0.244 SA 
ENDBRANCH  35  36
ENDBRANCH  34  35
ENDBRANCH  31  34
ENDBRANCH  29  30
BRANCH  29  41
HETATM   41  C   UNL     1      -7.627  14.890  68.485  1.00  0.00    -0.121 C  
BRANCH  41  42
HETATM   42  C   UNL     1      -7.442  16.285  67.925  1.00  0.00    -0.142 A  
HETATM   43  C   UNL     1      -6.989  18.657  68.254  1.00  0.00    -0.262 A  
HETATM   44  C   UNL     1      -7.310  17.402  68.759  1.00  0.00    -0.257 A  
HETATM   45  C   UNL     1      -7.357  16.488  66.545  1.00  0.00    -0.229 A  
HETATM   46  C   UNL     1      -7.059  17.756  66.028  1.00  0.00    -0.335 A  
HETATM   47  C   UNL     1      -6.856  18.836  66.886  1.00  0.00    -0.211 A  
ENDBRANCH  41  42
ENDBRANCH  29  41
ENDBRANCH  26  29
ENDBRANCH  25  26
ENDBRANCH  24  25
BRANCH  24  48
HETATM   48  C   UNL     1      -6.774   9.520  67.408  1.00  0.00    -0.071 C  
BRANCH  48  49
HETATM   49  C   UNL     1      -7.735   9.693  66.256  1.00  0.00    -0.101 A  
HETATM   50  C   UNL     1      -8.130   9.979  63.875  1.00  0.00    -0.152 A  
HETATM   51  C   UNL     1      -7.254   9.793  64.943  1.00  0.00    -0.129 A  
HETATM   52  C   UNL     1      -9.500  10.075  64.106  1.00  0.00    -0.314 A  
HETATM   53  C   UNL     1      -9.994   9.983  65.406  1.00  0.00    -0.364 A  
HETATM   54  C   UNL     1      -9.117   9.801  66.478  1.00  0.00    -0.182 A  
ENDBRANCH  48  49
ENDBRANCH  24  48
ENDBRANCH  22  24
ENDBRANCH   3  20
TORSDOF 18
ENDMDL
MODEL       96
REMARK 921   NORMALIZED FREE ENERGY PREDICTED BY IDOCK:   -2.46 KCAL/MOL
REMARK 922        TOTAL FREE ENERGY PREDICTED BY IDOCK:   -9.66 KCAL/MOL
REMARK 923 INTER-LIGAND FREE ENERGY PREDICTED BY IDOCK:   -8.61 KCAL/MOL
REMARK 924 INTRA-LIGAND FREE ENERGY PREDICTED BY IDOCK:   -1.05 KCAL/MOL
REMARK 927      BINDING AFFINITY PREDICTED BY RF-SCORE:    0.00 PKD
ROOT
HETATM    1  C   UNL     1     -13.542   7.488  71.013  1.00  0.00    -0.120 C  
HETATM    2  C   UNL     1     -12.345   8.101  71.730  1.00  0.00    -0.357 C  
HETATM    3  C   UNL     1     -11.158   8.474  70.809  1.00  0.00    -0.254 C  
HETATM    4  C   UNL     1     -12.822   9.267  72.604  1.00  0.00    -0.245 C  
ENDROOT
BRANCH   3   5
HETATM    5  N   UNL     1     -11.409   9.505  69.788  1.00  0.00    -0.418 N  
HETATM    6  H   UNL     1     -12.354   9.601  69.418  1.00  0.00     0.000 HD 
BRANCH   5   7
HETATM    7  C   UNL     1     -10.436  10.342  69.314  1.00  0.00    -0.228 C  
HETATM    8  O   UNL     1      -9.258  10.212  69.640  1.00  0.00    -0.214 OA 
BRANCH   7   9
HETATM    9  N   UNL     1     -10.852  11.386  68.513  1.00  0.00    -0.197 N  
HETATM   10  C   UNL     1     -12.034  11.432  67.666  1.00  0.00     0.083 C  
BRANCH   9  11
HETATM   11  C   UNL     1     -10.049  12.616  68.541  1.00  0.00    -0.178 C  
BRANCH  11  12
HETATM   12  C   UNL     1     -10.846  13.787  69.053  1.00  0.00    -0.217 A  
HETATM   13  C   UNL     1     -11.140  14.941  68.348  1.00  0.00    -0.273 A  
HETATM   14  N   UNL     1     -11.428  13.733  70.323  1.00  0.00    -0.103 NA 
HETATM   15  S   UNL     1     -12.152  15.966  69.267  1.00  0.00     0.002 SA 
HETATM   16  C   UNL     1     -12.085  15.199  73.018  1.00  0.00    -0.483 C  
HETATM   17  C   UNL     1     -12.156  14.809  70.544  1.00  0.00    -0.315 A  
HETATM   18  C   UNL     1     -12.979  15.061  71.787  1.00  0.00    -0.429 C  
HETATM   19  C   UNL     1     -14.004  13.944  71.991  1.00  0.00    -0.585 C  
ENDBRANCH  11  12
ENDBRANCH   9  11
ENDBRANCH   7   9
ENDBRANCH   5   7
ENDBRANCH   3   5
BRANCH   3  20
HETATM   20  C   UNL     1     -10.394   7.215  70.289  1.00  0.00    -0.201 C  
HETATM   21  O   UNL     1     -10.706   6.604  69.269  1.00  0.00    -0.224 OA 
HETATM   22  N   UNL     1      -9.358   6.799  71.103  1.00  0.00    -0.159 N  
HETATM   23  H   UNL     1      -9.223   7.260  72.002  1.00  0.00     0.000 HD 
BRANCH  22  24
HETATM   24  C   UNL     1      -8.450   5.722  70.718  1.00  0.00    -0.125 C  
BRANCH  24  25
HETATM   25  C   UNL     1      -7.631   6.022  69.446  1.00  0.00    -0.097 C  
BRANCH  25  26
HETATM   26  C   UNL     1      -7.866   5.171  68.190  1.00  0.00    -0.087 C  
HETATM   27  H   UNL     1      -7.772   3.272  67.757  1.00  0.00     0.000 HD 
HETATM   28  O   UNL     1      -7.626   3.799  68.534  1.00  0.00    -0.054 OA 
BRANCH  26  29
HETATM   29  C   UNL     1      -7.034   5.546  66.926  1.00  0.00    -0.065 C  
BRANCH  29  30
HETATM   30  N   UNL     1      -6.361   4.397  66.319  1.00  0.00    -0.032 N  
HETATM   31  C   UNL     1      -6.377   4.205  64.964  1.00  0.00    -0.034 C  
HETATM   32  H   UNL     1      -5.873   3.729  66.915  1.00  0.00     0.000 HD 
HETATM   33  O   UNL     1      -6.501   5.098  64.148  1.00  0.00    -0.035 OA 
BRANCH  31  34
HETATM   34  O   UNL     1      -6.288   2.889  64.677  1.00  0.00    -0.022 OA 
BRANCH  34  35
HETATM   35  C   UNL     1      -7.448   2.093  64.993  1.00  0.00    -0.066 C  
BRANCH  35  36
HETATM   36  C   UNL     1      -8.638   2.521  64.200  1.00  0.00    -0.087 A  
HETATM   37  N   UNL     1     -10.704   3.502  63.685  1.00  0.00    -0.270 NA 
HETATM   38  C   UNL     1      -9.757   3.204  64.644  1.00  0.00    -0.125 A  
HETATM   39  C   UNL     1     -10.301   3.037  62.524  1.00  0.00    -0.126 A  
HETATM   40  S   UNL     1      -8.761   2.281  62.507  1.00  0.00    -0.074 SA 
ENDBRANCH  35  36
ENDBRANCH  34  35
ENDBRANCH  31  34
ENDBRANCH  29  30
BRANCH  29  41
HETATM   41  C   UNL     1      -7.869   6.341  65.868  1.00  0.00    -0.104 C  
BRANCH  41  42
HETATM   42  C   UNL     1      -7.968   7.842  66.050  1.00  0.00    -0.108 A  
HETATM   43  C   UNL     1      -6.920   9.996  66.500  1.00  0.00    -0.095 A  
HETATM   44  C   UNL     1      -6.876   8.606  66.479  1.00  0.00    -0.072 A  
HETATM   45  C   UNL     1      -9.158   8.513  65.752  1.00  0.00    -0.222 A  
HETATM   46  C   UNL     1      -9.216   9.913  65.796  1.00  0.00    -0.228 A  
HETATM   47  C   UNL     1      -8.090  10.654  66.152  1.00  0.00    -0.154 A  
ENDBRANCH  41  42
ENDBRANCH  29  41
ENDBRANCH  26  29
ENDBRANCH  25  26
ENDBRANCH  24  25
BRANCH  24  48
HETATM   48  C   UNL     1      -9.227   4.391  70.665  1.00  0.00    -0.198 C  
BRANCH  48  49
HETATM   49  C   UNL     1      -9.545   3.765  72.002  1.00  0.00    -0.213 A  
HETATM   50  C   UNL     1     -10.598   1.999  73.298  1.00  0.00    -0.229 A  
HETATM   51  C   UNL     1     -10.276   2.571  72.068  1.00  0.00    -0.125 A  
HETATM   52  C   UNL     1     -10.199   2.618  74.480  1.00  0.00    -0.190 A  
HETATM   53  C   UNL     1      -9.476   3.809  74.431  1.00  0.00    -0.128 A  
HETATM   54  C   UNL     1      -9.157   4.385  73.200  1.00  0.00    -0.126 A  
ENDBRANCH  48  49
ENDBRANCH  24  48
ENDBRANCH  22  24
ENDBRANCH   3  20
TORSDOF 18
ENDMDL
MODEL       97
REMARK 921   NORMALIZED FREE ENERGY PREDICTED BY IDOCK:   -2.43 KCAL/MOL
REMARK 922        TOTAL FREE ENERGY PREDICTED BY IDOCK:   -9.59 KCAL/MOL
REMARK 923 INTER-LIGAND FREE ENERGY PREDICTED BY IDOCK:   -8.81 KCAL/MOL
REMARK 924 INTRA-LIGAND FREE ENERGY PREDICTED BY IDOCK:   -0.78 KCAL/MOL
REMARK 927      BINDING AFFINITY PREDICTED BY RF-SCORE:    0.00 PKD
ROOT
HETATM    1  C   UNL     1     -12.234  14.545  68.027  1.00  0.00    -0.127 C  
HETATM    2  C   UNL     1     -11.749  14.026  69.376  1.00  0.00    -0.365 C  
HETATM    3  C   UNL     1     -10.229  13.742  69.455  1.00  0.00     0.463 C  
HETATM    4  C   UNL     1     -12.248  14.960  70.486  1.00  0.00    -0.388 C  
ENDROOT
BRANCH   3   5
HETATM    5  N   UNL     1      -9.329  14.894  69.279  1.00  0.00    -0.371 N  
HETATM    6  H   UNL     1      -8.604  15.054  69.977  1.00  0.00     0.000 HD 
BRANCH   5   7
HETATM    7  C   UNL     1      -9.419  15.758  68.223  1.00  0.00    -0.200 C  
HETATM    8  O   UNL     1     -10.313  16.599  68.150  1.00  0.00    -0.275 OA 
BRANCH   7   9
HETATM    9  N   UNL     1      -8.503  15.591  67.204  1.00  0.00    -0.195 N  
HETATM   10  C   UNL     1      -7.190  14.970  67.291  1.00  0.00    -0.140 C  
BRANCH   9  11
HETATM   11  C   UNL     1      -8.898  16.042  65.863  1.00  0.00    -0.156 C  
BRANCH  11  12
HETATM   12  C   UNL     1      -9.979  15.170  65.281  1.00  0.00    -0.290 A  
HETATM   13  C   UNL     1     -11.218  15.598  64.838  1.00  0.00    -0.369 A  
HETATM   14  N   UNL     1      -9.744  13.806  65.079  1.00  0.00    -0.024 NA 
HETATM   15  S   UNL     1     -12.097  14.299  64.159  1.00  0.00    -0.292 SA 
HETATM   16  C   UNL     1     -10.812  10.862  65.255  1.00  0.00    -0.123 C  
HETATM   17  C   UNL     1     -10.773  13.244  64.477  1.00  0.00    -0.411 A  
HETATM   18  C   UNL     1     -10.841  11.796  64.047  1.00  0.00    -0.446 C  
HETATM   19  C   UNL     1      -9.699  11.464  63.085  1.00  0.00    -0.413 C  
ENDBRANCH  11  12
ENDBRANCH   9  11
ENDBRANCH   7   9
ENDBRANCH   5   7
ENDBRANCH   3   5
BRANCH   3  20
HETATM   20  C   UNL     1      -9.824  12.468  68.649  1.00  0.00    -0.075 C  
HETATM   21  O   UNL     1     -10.608  11.824  67.954  1.00  0.00    -0.191 OA 
HETATM   22  N   UNL     1      -8.509  12.079  68.818  1.00  0.00    -0.356 N  
HETATM   23  H   UNL     1      -7.936  12.568  69.505  1.00  0.00     0.000 HD 
BRANCH  22  24
HETATM   24  C   UNL     1      -7.912  10.991  68.048  1.00  0.00    -0.115 C  
BRANCH  24  25
HETATM   25  C   UNL     1      -6.912  10.135  68.851  1.00  0.00    -0.063 C  
BRANCH  25  26
HETATM   26  C   UNL     1      -7.433   9.264  70.003  1.00  0.00    -0.094 C  
HETATM   27  H   UNL     1      -7.382   9.356  71.950  1.00  0.00     0.000 HD 
HETATM   28  O   UNL     1      -7.060   9.894  71.237  1.00  0.00    -0.293 OA 
BRANCH  26  29
HETATM   29  C   UNL     1      -6.972   7.775  70.017  1.00  0.00    -0.050 C  
BRANCH  29  30
HETATM   30  N   UNL     1      -7.633   6.978  71.050  1.00  0.00    -0.085 N  
HETATM   31  C   UNL     1      -8.916   7.252  71.442  1.00  0.00    -0.138 C  
HETATM   32  H   UNL     1      -7.130   6.204  71.486  1.00  0.00     0.000 HD 
HETATM   33  O   UNL     1      -9.744   7.795  70.737  1.00  0.00    -0.173 OA 
BRANCH  31  34
HETATM   34  O   UNL     1      -9.102   6.882  72.726  1.00  0.00    -0.134 OA 
BRANCH  34  35
HETATM   35  C   UNL     1     -10.384   6.300  73.038  1.00  0.00    -0.212 C  
BRANCH  35  36
HETATM   36  C   UNL     1     -11.507   7.184  72.603  1.00  0.00    -0.235 A  
HETATM   37  N   UNL     1     -12.894   9.067  72.449  1.00  0.00    -0.401 NA 
HETATM   38  C   UNL     1     -11.808   8.459  73.045  1.00  0.00     0.317 A  
HETATM   39  C   UNL     1     -13.413   8.244  71.564  1.00  0.00    -0.289 A  
HETATM   40  S   UNL     1     -12.604   6.746  71.360  1.00  0.00    -0.218 SA 
ENDBRANCH  35  36
ENDBRANCH  34  35
ENDBRANCH  31  34
ENDBRANCH  29  30
BRANCH  29  41
HETATM   41  C   UNL     1      -7.089   7.095  68.612  1.00  0.00    -0.085 C  
BRANCH  41  42
HETATM   42  C   UNL     1      -8.479   6.730  68.133  1.00  0.00    -0.121 A  
HETATM   43  C   UNL     1     -10.277   5.102  67.891  1.00  0.00    -0.180 A  
HETATM   44  C   UNL     1      -8.955   5.414  68.186  1.00  0.00    -0.111 A  
HETATM   45  C   UNL     1      -9.345   7.718  67.656  1.00  0.00    -0.160 A  
HETATM   46  C   UNL     1     -10.673   7.405  67.333  1.00  0.00    -0.348 A  
HETATM   47  C   UNL     1     -11.142   6.100  67.468  1.00  0.00    -0.318 A  
ENDBRANCH  41  42
ENDBRANCH  29  41
ENDBRANCH  26  29
ENDBRANCH  25  26
ENDBRANCH  24  25
BRANCH  24  48
HETATM   48  C   UNL     1      -7.342  11.551  66.728  1.00  0.00    -0.111 C  
BRANCH  48  49
HETATM   49  C   UNL     1      -7.072  10.532  65.648  1.00  0.00    -0.119 A  
HETATM   50  C   UNL     1      -5.788   9.808  63.716  1.00  0.00    -0.109 A  
HETATM   51  C   UNL     1      -6.028  10.730  64.734  1.00  0.00     0.079 A  
HETATM   52  C   UNL     1      -6.593   8.679  63.593  1.00  0.00    -0.088 A  
HETATM   53  C   UNL     1      -7.639   8.471  64.491  1.00  0.00    -0.115 A  
HETATM   54  C   UNL     1      -7.884   9.395  65.508  1.00  0.00    -0.103 A  
ENDBRANCH  48  49
ENDBRANCH  24  48
ENDBRANCH  22  24
ENDBRANCH   3  20
TORSDOF 18
ENDMDL
MODEL       98
REMARK 921   NORMALIZED FREE ENERGY PREDICTED BY IDOCK:   -2.41 KCAL/MOL
REMARK 922        TOTAL FREE ENERGY PREDICTED BY IDOCK:   -9.56 KCAL/MOL
REMARK 923 INTER-LIGAND FREE ENERGY PREDICTED BY IDOCK:   -7.07 KCAL/MOL
REMARK 924 INTRA-LIGAND FREE ENERGY PREDICTED BY IDOCK:   -2.49 KCAL/MOL
REMARK 927      BINDING AFFINITY PREDICTED BY RF-SCORE:    0.00 PKD
ROOT
HETATM    1  C   UNL     1      -9.332   6.550  66.496  1.00  0.00    -0.188 C  
HETATM    2  C   UNL     1      -9.333   5.498  67.599  1.00  0.00    -0.116 C  
HETATM    3  C   UNL     1      -9.607   6.047  69.021  1.00  0.00    -0.131 C  
HETATM    4  C   UNL     1     -10.272   4.351  67.203  1.00  0.00    -0.023 C  
ENDROOT
BRANCH   3   5
HETATM    5  N   UNL     1     -10.922   6.669  69.249  1.00  0.00    -0.330 N  
HETATM    6  H   UNL     1     -11.737   6.062  69.338  1.00  0.00     0.000 HD 
BRANCH   5   7
HETATM    7  C   UNL     1     -11.104   8.021  69.349  1.00  0.00     0.095 C  
HETATM    8  O   UNL     1     -10.993   8.761  68.374  1.00  0.00    -0.025 OA 
BRANCH   7   9
HETATM    9  N   UNL     1     -11.340   8.524  70.612  1.00  0.00    -0.257 N  
HETATM   10  C   UNL     1     -10.862   9.781  71.165  1.00  0.00    -0.263 C  
BRANCH   9  11
HETATM   11  C   UNL     1     -12.210   7.737  71.497  1.00  0.00    -0.318 C  
BRANCH  11  12
HETATM   12  C   UNL     1     -11.411   6.866  72.429  1.00  0.00    -0.271 A  
HETATM   13  C   UNL     1     -10.757   7.285  73.574  1.00  0.00    -0.321 A  
HETATM   14  N   UNL     1     -11.344   5.486  72.210  1.00  0.00    -0.233 NA 
HETATM   15  S   UNL     1     -10.059   5.957  74.391  1.00  0.00    -0.297 SA 
HETATM   16  C   UNL     1      -9.603   2.877  72.162  1.00  0.00    -0.210 C  
HETATM   17  C   UNL     1     -10.679   4.896  73.184  1.00  0.00    -0.254 A  
HETATM   18  C   UNL     1     -10.465   3.404  73.307  1.00  0.00    -0.260 C  
HETATM   19  C   UNL     1     -11.805   2.668  73.354  1.00  0.00     0.034 C  
ENDBRANCH  11  12
ENDBRANCH   9  11
ENDBRANCH   7   9
ENDBRANCH   5   7
ENDBRANCH   3   5
BRANCH   3  20
HETATM   20  C   UNL     1      -8.397   6.856  69.585  1.00  0.00    -0.133 C  
HETATM   21  O   UNL     1      -7.938   6.694  70.715  1.00  0.00    -0.107 OA 
HETATM   22  N   UNL     1      -7.905   7.821  68.728  1.00  0.00    -0.120 N  
HETATM   23  H   UNL     1      -8.402   8.005  67.857  1.00  0.00     0.000 HD 
BRANCH  22  24
HETATM   24  C   UNL     1      -6.698   8.587  69.027  1.00  0.00    -0.052 C  
BRANCH  24  25
HETATM   25  C   UNL     1      -6.925  10.112  69.079  1.00  0.00    -0.058 C  
BRANCH  25  26
HETATM   26  C   UNL     1      -8.209  10.695  68.471  1.00  0.00    -0.128 C  
HETATM   27  H   UNL     1      -9.344  10.270  66.944  1.00  0.00     0.000 HD 
HETATM   28  O   UNL     1      -8.551   9.909  67.321  1.00  0.00    -0.125 OA 
BRANCH  26  29
HETATM   29  C   UNL     1      -8.173  12.204  68.081  1.00  0.00    -0.164 C  
BRANCH  29  30
HETATM   30  N   UNL     1      -9.355  12.633  67.332  1.00  0.00    -0.183 N  
HETATM   31  C   UNL     1     -10.613  12.475  67.848  1.00  0.00    -0.218 C  
HETATM   32  H   UNL     1      -9.240  13.057  66.411  1.00  0.00     0.000 HD 
HETATM   33  O   UNL     1     -10.864  12.427  69.036  1.00  0.00    -0.216 OA 
BRANCH  31  34
HETATM   34  O   UNL     1     -11.512  12.330  66.851  1.00  0.00    -0.317 OA 
BRANCH  34  35
HETATM   35  C   UNL     1     -12.521  13.356  66.755  1.00  0.00    -0.104 C  
BRANCH  35  36
HETATM   36  C   UNL     1     -12.101  14.451  65.830  1.00  0.00    -0.348 A  
HETATM   37  N   UNL     1     -11.122  16.443  65.078  1.00  0.00    -0.436 NA 
HETATM   38  C   UNL     1     -11.407  15.607  66.138  1.00  0.00     0.069 A  
HETATM   39  C   UNL     1     -11.609  15.919  63.975  1.00  0.00     0.125 A  
HETATM   40  S   UNL     1     -12.370  14.390  64.138  1.00  0.00    -0.129 SA 
ENDBRANCH  35  36
ENDBRANCH  34  35
ENDBRANCH  31  34
ENDBRANCH  29  30
BRANCH  29  41
HETATM   41  C   UNL     1      -7.907  13.139  69.308  1.00  0.00     0.516 C  
BRANCH  41  42
HETATM   42  C   UNL     1      -7.823  14.627  69.040  1.00  0.00    -0.133 A  
HETATM   43  C   UNL     1      -6.649  16.549  68.107  1.00  0.00    -0.145 A  
HETATM   44  C   UNL     1      -6.674  15.214  68.494  1.00  0.00    -0.108 A  
HETATM   45  C   UNL     1      -8.918  15.456  69.298  1.00  0.00    -0.261 A  
HETATM   46  C   UNL     1      -8.890  16.808  68.934  1.00  0.00    -0.228 A  
HETATM   47  C   UNL     1      -7.761  17.349  68.321  1.00  0.00    -0.241 A  
ENDBRANCH  41  42
ENDBRANCH  29  41
ENDBRANCH  26  29
ENDBRANCH  25  26
ENDBRANCH  24  25
BRANCH  24  48
HETATM   48  C   UNL     1      -5.566   8.153  68.073  1.00  0.00    -0.034 C  
BRANCH  48  49
HETATM   49  C   UNL     1      -5.593   8.778  66.699  1.00  0.00    -0.040 A  
HETATM   50  C   UNL     1      -6.015   8.591  64.314  1.00  0.00    -0.066 A  
HETATM   51  C   UNL     1      -6.012   8.031  65.591  1.00  0.00    -0.038 A  
HETATM   52  C   UNL     1      -5.591   9.904  64.127  1.00  0.00    -0.100 A  
HETATM   53  C   UNL     1      -5.165  10.658  65.219  1.00  0.00    -0.137 A  
HETATM   54  C   UNL     1      -5.158  10.098  66.498  1.00  0.00    -0.040 A  
ENDBRANCH  48  49
ENDBRANCH  24  48
ENDBRANCH  22  24
ENDBRANCH   3  20
TORSDOF 18
ENDMDL
MODEL       99
REMARK 921   NORMALIZED FREE ENERGY PREDICTED BY IDOCK:   -2.32 KCAL/MOL
REMARK 922        TOTAL FREE ENERGY PREDICTED BY IDOCK:   -9.37 KCAL/MOL
REMARK 923 INTER-LIGAND FREE ENERGY PREDICTED BY IDOCK:   -8.75 KCAL/MOL
REMARK 924 INTRA-LIGAND FREE ENERGY PREDICTED BY IDOCK:   -0.62 KCAL/MOL
REMARK 927      BINDING AFFINITY PREDICTED BY RF-SCORE:    0.00 PKD
ROOT
HETATM    1  C   UNL     1      -8.556  12.175  69.528  1.00  0.00     1.372 C  
HETATM    2  C   UNL     1      -8.406  12.502  68.047  1.00  0.00    -0.171 C  
HETATM    3  C   UNL     1      -9.593  12.056  67.159  1.00  0.00    -0.192 C  
HETATM    4  C   UNL     1      -8.059  13.988  67.891  1.00  0.00    -0.156 C  
ENDROOT
BRANCH   3   5
HETATM    5  N   UNL     1     -10.898  12.679  67.435  1.00  0.00    -0.238 N  
HETATM    6  H   UNL     1     -11.570  12.166  68.005  1.00  0.00     0.000 HD 
BRANCH   5   7
HETATM    7  C   UNL     1     -11.253  13.913  66.963  1.00  0.00    -0.313 C  
HETATM    8  O   UNL     1     -11.242  14.908  67.684  1.00  0.00    -0.301 OA 
BRANCH   7   9
HETATM    9  N   UNL     1     -11.698  13.974  65.658  1.00  0.00    -0.342 N  
HETATM   10  C   UNL     1     -12.864  13.314  65.091  1.00  0.00    -0.310 C  
BRANCH   9  11
HETATM   11  C   UNL     1     -10.951  14.835  64.732  1.00  0.00    -0.379 C  
BRANCH  11  12
HETATM   12  C   UNL     1     -10.200  15.917  65.464  1.00  0.00    -0.365 A  
HETATM   13  C   UNL     1      -8.873  15.865  65.853  1.00  0.00    -0.133 A  
HETATM   14  N   UNL     1     -10.826  17.136  65.741  1.00  0.00    -0.188 NA 
HETATM   15  S   UNL     1      -8.396  17.343  66.564  1.00  0.00    -0.278 SA 
HETATM   16  C   UNL     1     -11.343  19.464  67.780  1.00  0.00     0.410 C  
HETATM   17  C   UNL     1      -9.976  17.976  66.298  1.00  0.00    -0.337 A  
HETATM   18  C   UNL     1     -10.290  19.406  66.676  1.00  0.00    -0.555 C  
HETATM   19  C   UNL     1     -10.752  20.198  65.451  1.00  0.00    -0.088 C  
ENDBRANCH  11  12
ENDBRANCH   9  11
ENDBRANCH   7   9
ENDBRANCH   5   7
ENDBRANCH   3   5
BRANCH   3  20
HETATM   20  C   UNL     1      -9.638  10.507  66.967  1.00  0.00    -0.173 C  
HETATM   21  O   UNL     1     -10.326   9.947  66.115  1.00  0.00    -0.230 OA 
HETATM   22  N   UNL     1      -8.877   9.797  67.875  1.00  0.00    -0.122 N  
HETATM   23  H   UNL     1      -8.430  10.298  68.641  1.00  0.00     0.000 HD 
BRANCH  22  24
HETATM   24  C   UNL     1      -8.691   8.352  67.774  1.00  0.00    -0.137 C  
BRANCH  24  25
HETATM   25  C   UNL     1      -9.081   7.583  69.054  1.00  0.00    -0.140 C  
BRANCH  25  26
HETATM   26  C   UNL     1      -8.952   8.284  70.413  1.00  0.00    -0.146 C  
HETATM   27  H   UNL     1      -7.682   8.231  71.892  1.00  0.00     0.000 HD 
HETATM   28  O   UNL     1      -7.762   7.797  71.050  1.00  0.00    -0.081 OA 
BRANCH  26  29
HETATM   29  C   UNL     1     -10.160   8.145  71.388  1.00  0.00    -0.198 C  
BRANCH  29  30
HETATM   30  N   UNL     1     -10.980   9.355  71.464  1.00  0.00    -0.372 N  
HETATM   31  C   UNL     1     -11.535   9.904  70.339  1.00  0.00    -0.301 C  
HETATM   32  H   UNL     1     -11.141   9.796  72.369  1.00  0.00     0.000 HD 
HETATM   33  O   UNL     1     -11.806   9.275  69.335  1.00  0.00     0.420 OA 
BRANCH  31  34
HETATM   34  O   UNL     1     -11.684  11.236  70.494  1.00  0.00    -0.329 OA 
BRANCH  34  35
HETATM   35  C   UNL     1     -12.587  11.655  71.538  1.00  0.00    -0.236 C  
BRANCH  35  36
HETATM   36  C   UNL     1     -12.851  13.123  71.478  1.00  0.00    -0.307 A  
HETATM   37  N   UNL     1     -12.605  15.383  70.907  1.00  0.00    -0.406 NA 
HETATM   38  C   UNL     1     -12.116  14.095  70.824  1.00  0.00    -0.349 A  
HETATM   39  C   UNL     1     -13.702  15.379  71.631  1.00  0.00    -0.509 A  
HETATM   40  S   UNL     1     -14.232  13.846  72.191  1.00  0.00    -0.396 SA 
ENDBRANCH  35  36
ENDBRANCH  34  35
ENDBRANCH  31  34
ENDBRANCH  29  30
BRANCH  29  41
HETATM   41  C   UNL     1     -11.035   6.883  71.088  1.00  0.00    -0.284 C  
BRANCH  41  42
HETATM   42  C   UNL     1     -10.669   5.600  71.805  1.00  0.00    -0.305 A  
HETATM   43  C   UNL     1      -9.792   3.326  71.764  1.00  0.00    -0.229 A  
HETATM   44  C   UNL     1     -10.272   4.453  71.106  1.00  0.00    -0.127 A  
HETATM   45  C   UNL     1     -10.682   5.541  73.201  1.00  0.00    -0.308 A  
HETATM   46  C   UNL     1     -10.223   4.399  73.871  1.00  0.00    -0.235 A  
HETATM   47  C   UNL     1      -9.760   3.299  73.150  1.00  0.00    -0.161 A  
ENDBRANCH  41  42
ENDBRANCH  29  41
ENDBRANCH  26  29
ENDBRANCH  25  26
ENDBRANCH  24  25
BRANCH  24  48
HETATM   48  C   UNL     1      -7.263   8.053  67.272  1.00  0.00    -0.087 C  
BRANCH  48  49
HETATM   49  C   UNL     1      -7.174   7.269  65.984  1.00  0.00    -0.074 A  
HETATM   50  C   UNL     1      -7.776   6.995  63.646  1.00  0.00    -0.111 A  
HETATM   51  C   UNL     1      -7.830   7.725  64.833  1.00  0.00    -0.123 A  
HETATM   52  C   UNL     1      -7.070   5.796  63.597  1.00  0.00    -0.051 A  
HETATM   53  C   UNL     1      -6.416   5.327  64.735  1.00  0.00    -0.038 A  
HETATM   54  C   UNL     1      -6.473   6.054  65.925  1.00  0.00    -0.043 A  
ENDBRANCH  48  49
ENDBRANCH  24  48
ENDBRANCH  22  24
ENDBRANCH   3  20
TORSDOF 18
ENDMDL
MODEL      100
REMARK 921   NORMALIZED FREE ENERGY PREDICTED BY IDOCK:   -1.94 KCAL/MOL
REMARK 922        TOTAL FREE ENERGY PREDICTED BY IDOCK:   -8.59 KCAL/MOL
REMARK 923 INTER-LIGAND FREE ENERGY PREDICTED BY IDOCK:   -7.26 KCAL/MOL
REMARK 924 INTRA-LIGAND FREE ENERGY PREDICTED BY IDOCK:   -1.33 KCAL/MOL
REMARK 927      BINDING AFFINITY PREDICTED BY RF-SCORE:    0.00 PKD
ROOT
HETATM    1  C   UNL     1     -13.462  12.050  64.230  1.00  0.00     0.892 C  
HETATM    2  C   UNL     1     -12.050  12.386  63.768  1.00  0.00    -0.618 C  
HETATM    3  C   UNL     1     -11.023  12.592  64.909  1.00  0.00    -0.293 C  
HETATM    4  C   UNL     1     -11.598  11.353  62.728  1.00  0.00     0.790 C  
ENDROOT
BRANCH   3   5
HETATM    5  N   UNL     1     -10.747  11.430  65.770  1.00  0.00    -0.267 N  
HETATM    6  H   UNL     1     -11.536  10.878  66.107  1.00  0.00     0.000 HD 
BRANCH   5   7
HETATM    7  C   UNL     1      -9.485  11.055  66.139  1.00  0.00    -0.203 C  
HETATM    8  O   UNL     1      -8.497  11.711  65.819  1.00  0.00     0.016 OA 
BRANCH   7   9
HETATM    9  N   UNL     1      -9.367   9.862  66.823  1.00  0.00    -0.147 N  
HETATM   10  C   UNL     1      -8.209   8.984  66.873  1.00  0.00    -0.116 C  
BRANCH   9  11
HETATM   11  C   UNL     1     -10.514   9.438  67.637  1.00  0.00    -0.268 C  
BRANCH  11  12
HETATM   12  C   UNL     1     -10.443   7.972  67.974  1.00  0.00    -0.184 A  
HETATM   13  C   UNL     1     -10.247   6.939  67.075  1.00  0.00    -0.248 A  
HETATM   14  N   UNL     1     -10.504   7.559  69.309  1.00  0.00    -0.213 NA 
HETATM   15  S   UNL     1     -10.130   5.443  67.892  1.00  0.00    -0.159 SA 
HETATM   16  C   UNL     1     -11.614   5.522  71.421  1.00  0.00     0.297 C  
HETATM   17  C   UNL     1     -10.330   6.255  69.398  1.00  0.00    -0.216 A  
HETATM   18  C   UNL     1     -10.273   5.473  70.690  1.00  0.00    -0.308 C  
HETATM   19  C   UNL     1      -9.153   5.998  71.590  1.00  0.00    -0.147 C  
ENDBRANCH  11  12
ENDBRANCH   9  11
ENDBRANCH   7   9
ENDBRANCH   5   7
ENDBRANCH   3   5
BRANCH   3  20
HETATM   20  C   UNL     1     -11.254  13.932  65.677  1.00  0.00    -0.306 C  
HETATM   21  O   UNL     1     -11.779  14.923  65.172  1.00  0.00    -0.348 OA 
HETATM   22  N   UNL     1     -10.769  13.940  66.970  1.00  0.00    -0.282 N  
HETATM   23  H   UNL     1     -10.227  13.141  67.297  1.00  0.00     0.000 HD 
BRANCH  22  24
HETATM   24  C   UNL     1     -11.005  15.054  67.884  1.00  0.00    -0.291 C  
BRANCH  24  25
HETATM   25  C   UNL     1      -9.858  15.290  68.889  1.00  0.00    -0.221 C  
BRANCH  25  26
HETATM   26  C   UNL     1      -9.635  16.702  69.448  1.00  0.00    -0.057 C  
HETATM   27  H   UNL     1     -10.585  18.402  69.356  1.00  0.00     0.000 HD 
HETATM   28  O   UNL     1     -10.724  17.528  69.010  1.00  0.00    -0.232 OA 
BRANCH  26  29
HETATM   29  C   UNL     1      -8.282  17.388  69.090  1.00  0.00     0.037 C  
BRANCH  29  30
HETATM   30  N   UNL     1      -7.253  16.442  68.656  1.00  0.00    -0.167 N  
HETATM   31  C   UNL     1      -6.457  15.799  69.565  1.00  0.00    -0.177 C  
HETATM   32  H   UNL     1      -7.129  16.258  67.660  1.00  0.00     0.000 HD 
HETATM   33  O   UNL     1      -6.778  15.572  70.714  1.00  0.00     0.390 OA 
BRANCH  31  34
HETATM   34  O   UNL     1      -5.260  15.507  69.013  1.00  0.00    -0.095 OA 
BRANCH  34  35
HETATM   35  C   UNL     1      -5.220  14.335  68.172  1.00  0.00    -0.118 C  
BRANCH  35  36
HETATM   36  C   UNL     1      -5.819  13.150  68.855  1.00  0.00    -0.076 A  
HETATM   37  N   UNL     1      -6.058  11.351  70.337  1.00  0.00    -0.257 NA 
HETATM   38  C   UNL     1      -5.269  12.379  69.862  1.00  0.00    -0.083 A  
HETATM   39  C   UNL     1      -7.197  11.345  69.681  1.00  0.00     0.095 A  
HETATM   40  S   UNL     1      -7.404  12.590  68.519  1.00  0.00    -0.110 SA 
ENDBRANCH  35  36
ENDBRANCH  34  35
ENDBRANCH  31  34
ENDBRANCH  29  30
BRANCH  29  41
HETATM   41  C   UNL     1      -8.451  18.555  68.060  1.00  0.00    -0.302 C  
BRANCH  41  42
HETATM   42  C   UNL     1      -7.254  18.897  67.197  1.00  0.00    -0.221 A  
HETATM   43  C   UNL     1      -5.920  18.544  65.188  1.00  0.00    -0.270 A  
HETATM   44  C   UNL     1      -6.924  18.144  66.064  1.00  0.00    -0.327 A  
HETATM   45  C   UNL     1      -6.463  20.010  67.494  1.00  0.00    -0.245 A  
HETATM   46  C   UNL     1      -5.434  20.404  66.629  1.00  0.00    -0.189 A  
HETATM   47  C   UNL     1      -5.176  19.680  65.465  1.00  0.00    -0.179 A  
ENDBRANCH  41  42
ENDBRANCH  29  41
ENDBRANCH  26  29
ENDBRANCH  25  26
ENDBRANCH  24  25
BRANCH  24  48
HETATM   48  C   UNL     1     -12.392  14.893  68.540  1.00  0.00     0.059 C  
BRANCH  48  49
HETATM   49  C   UNL     1     -12.526  13.746  69.513  1.00  0.00    -0.123 A  
HETATM   50  C   UNL     1     -13.118  12.922  71.721  1.00  0.00    -0.458 A  
HETATM   51  C   UNL     1     -13.015  13.970  70.806  1.00  0.00    -0.298 A  
HETATM   52  C   UNL     1     -12.725  11.637  71.356  1.00  0.00    -0.445 A  
HETATM   53  C   UNL     1     -12.231  11.400  70.074  1.00  0.00    -0.377 A  
HETATM   54  C   UNL     1     -12.123  12.448  69.159  1.00  0.00    -0.195 A  
ENDBRANCH  48  49
ENDBRANCH  24  48
ENDBRANCH  22  24
ENDBRANCH   3  20
TORSDOF 18
ENDMDL
MODEL      101
REMARK 921   NORMALIZED FREE ENERGY PREDICTED BY IDOCK:   -1.85 KCAL/MOL
REMARK 922        TOTAL FREE ENERGY PREDICTED BY IDOCK:   -8.40 KCAL/MOL
REMARK 923 INTER-LIGAND FREE ENERGY PREDICTED BY IDOCK:   -8.08 KCAL/MOL
REMARK 924 INTRA-LIGAND FREE ENERGY PREDICTED BY IDOCK:   -0.33 KCAL/MOL
REMARK 927      BINDING AFFINITY PREDICTED BY RF-SCORE:    0.00 PKD
ROOT
HETATM    1  C   UNL     1      -8.739   9.141  71.197  1.00  0.00    -0.210 C  
HETATM    2  C   UNL     1      -8.054   9.480  69.878  1.00  0.00    -0.163 C  
HETATM    3  C   UNL     1      -9.009   9.941  68.749  1.00  0.00    -0.140 C  
HETATM    4  C   UNL     1      -6.909  10.466  70.141  1.00  0.00    -0.155 C  
ENDROOT
BRANCH   3   5
HETATM    5  N   UNL     1      -9.759  11.186  68.983  1.00  0.00    -0.371 N  
HETATM    6  H   UNL     1      -9.470  11.790  69.752  1.00  0.00     0.000 HD 
BRANCH   5   7
HETATM    7  C   UNL     1     -10.826  11.572  68.218  1.00  0.00    -0.216 C  
HETATM    8  O   UNL     1     -11.984  11.370  68.576  1.00  0.00    -0.498 OA 
BRANCH   7   9
HETATM    9  N   UNL     1     -10.538  12.130  66.989  1.00  0.00    -0.223 N  
HETATM   10  C   UNL     1      -9.764  11.537  65.910  1.00  0.00    -0.232 C  
BRANCH   9  11
HETATM   11  C   UNL     1     -11.107  13.453  66.702  1.00  0.00    -0.295 C  
BRANCH  11  12
HETATM   12  C   UNL     1     -10.113  14.554  66.964  1.00  0.00    -0.254 A  
HETATM   13  C   UNL     1      -8.736  14.423  66.961  1.00  0.00    -0.223 A  
HETATM   14  N   UNL     1     -10.559  15.864  67.165  1.00  0.00    -0.315 NA 
HETATM   15  S   UNL     1      -7.986  15.940  67.203  1.00  0.00    -0.232 SA 
HETATM   16  C   UNL     1     -10.311  18.547  68.772  1.00  0.00    -0.210 C  
HETATM   17  C   UNL     1      -9.536  16.688  67.282  1.00  0.00    -0.232 A  
HETATM   18  C   UNL     1      -9.643  18.187  67.447  1.00  0.00    -0.275 C  
HETATM   19  C   UNL     1     -10.408  18.805  66.275  1.00  0.00    -0.497 C  
ENDBRANCH  11  12
ENDBRANCH   9  11
ENDBRANCH   7   9
ENDBRANCH   5   7
ENDBRANCH   3   5
BRANCH   3  20
HETATM   20  C   UNL     1      -9.861   8.764  68.179  1.00  0.00    -0.168 C  
HETATM   21  O   UNL     1     -11.024   8.542  68.513  1.00  0.00     0.002 OA 
HETATM   22  N   UNL     1      -9.185   7.943  67.297  1.00  0.00    -0.139 N  
HETATM   23  H   UNL     1      -8.187   8.092  67.154  1.00  0.00     0.000 HD 
BRANCH  22  24
HETATM   24  C   UNL     1      -9.851   6.870  66.563  1.00  0.00    -0.103 C  
BRANCH  24  25
HETATM   25  C   UNL     1     -10.282   5.684  67.450  1.00  0.00    -0.249 C  
BRANCH  25  26
HETATM   26  C   UNL     1      -9.283   5.109  68.464  1.00  0.00    -0.116 C  
HETATM   27  H   UNL     1      -7.348   4.886  68.538  1.00  0.00     0.000 HD 
HETATM   28  O   UNL     1      -7.966   5.242  67.911  1.00  0.00    -0.094 OA 
BRANCH  26  29
HETATM   29  C   UNL     1      -9.515   3.634  68.912  1.00  0.00    -0.148 C  
BRANCH  29  30
HETATM   30  N   UNL     1      -9.144   2.656  67.889  1.00  0.00    -0.165 N  
HETATM   31  C   UNL     1      -7.860   2.577  67.420  1.00  0.00    -0.069 C  
HETATM   32  H   UNL     1      -9.853   2.023  67.518  1.00  0.00     0.000 HD 
HETATM   33  O   UNL     1      -6.879   2.913  68.054  1.00  0.00    -0.046 OA 
BRANCH  31  34
HETATM   34  O   UNL     1      -7.854   2.125  66.148  1.00  0.00    -0.074 OA 
BRANCH  34  35
HETATM   35  C   UNL     1      -7.956   3.130  65.119  1.00  0.00    -0.082 C  
BRANCH  35  36
HETATM   36  C   UNL     1      -9.122   2.877  64.221  1.00  0.00    -0.116 A  
HETATM   37  N   UNL     1     -11.266   3.060  63.292  1.00  0.00    -0.224 NA 
HETATM   38  C   UNL     1     -10.377   3.457  64.270  1.00  0.00    -0.153 A  
HETATM   39  C   UNL     1     -10.683   2.176  62.514  1.00  0.00    -0.147 A  
HETATM   40  S   UNL     1      -9.042   1.823  62.871  1.00  0.00    -0.087 SA 
ENDBRANCH  35  36
ENDBRANCH  34  35
ENDBRANCH  31  34
ENDBRANCH  29  30
BRANCH  29  41
HETATM   41  C   UNL     1      -8.835   3.307  70.284  1.00  0.00    -0.145 C  
BRANCH  41  42
HETATM   42  C   UNL     1      -8.386   4.480  71.131  1.00  0.00    -0.095 A  
HETATM   43  C   UNL     1      -8.847   6.165  72.831  1.00  0.00    -0.125 A  
HETATM   44  C   UNL     1      -9.282   5.190  71.940  1.00  0.00    -0.160 A  
HETATM   45  C   UNL     1      -7.042   4.861  71.156  1.00  0.00    -0.052 A  
HETATM   46  C   UNL     1      -6.601   5.860  72.034  1.00  0.00    -0.062 A  
HETATM   47  C   UNL     1      -7.502   6.499  72.884  1.00  0.00    -0.093 A  
ENDBRANCH  41  42
ENDBRANCH  29  41
ENDBRANCH  26  29
ENDBRANCH  25  26
ENDBRANCH  24  25
BRANCH  24  48
HETATM   48  C   UNL     1      -8.987   6.467  65.351  1.00  0.00     0.106 C  
BRANCH  48  49
HETATM   49  C   UNL     1      -7.925   7.460  64.945  1.00  0.00    -0.128 A  
HETATM   50  C   UNL     1      -7.171   9.252  63.486  1.00  0.00    -0.094 A  
HETATM   51  C   UNL     1      -8.156   8.349  63.887  1.00  0.00    -0.143 A  
HETATM   52  C   UNL     1      -5.939   9.272  64.134  1.00  0.00    -0.076 A  
HETATM   53  C   UNL     1      -5.692   8.390  65.185  1.00  0.00    -0.044 A  
HETATM   54  C   UNL     1      -6.675   7.482  65.584  1.00  0.00    -0.045 A  
ENDBRANCH  48  49
ENDBRANCH  24  48
ENDBRANCH  22  24
ENDBRANCH   3  20
TORSDOF 18
ENDMDL
MODEL      102
REMARK 921   NORMALIZED FREE ENERGY PREDICTED BY IDOCK:   -1.77 KCAL/MOL
REMARK 922        TOTAL FREE ENERGY PREDICTED BY IDOCK:   -8.25 KCAL/MOL
REMARK 923 INTER-LIGAND FREE ENERGY PREDICTED BY IDOCK:   -7.58 KCAL/MOL
REMARK 924 INTRA-LIGAND FREE ENERGY PREDICTED BY IDOCK:   -0.67 KCAL/MOL
REMARK 927      BINDING AFFINITY PREDICTED BY RF-SCORE:    0.00 PKD
ROOT
HETATM    1  C   UNL     1      -8.326   9.032  70.874  1.00  0.00    -0.238 C  
HETATM    2  C   UNL     1      -7.843   9.632  69.559  1.00  0.00    -0.117 C  
HETATM    3  C   UNL     1      -8.965   9.970  68.547  1.00  0.00    -0.124 C  
HETATM    4  C   UNL     1      -6.919  10.820  69.856  1.00  0.00    -0.127 C  
ENDROOT
BRANCH   3   5
HETATM    5  N   UNL     1      -9.943  10.990  68.957  1.00  0.00    -0.311 N  
HETATM    6  H   UNL     1      -9.980  11.259  69.940  1.00  0.00     0.000 HD 
BRANCH   5   7
HETATM    7  C   UNL     1     -10.805  11.595  68.084  1.00  0.00    -0.217 C  
HETATM    8  O   UNL     1     -12.011  11.363  68.102  1.00  0.00    -0.594 OA 
BRANCH   7   9
HETATM    9  N   UNL     1     -10.244  12.420  67.130  1.00  0.00    -0.215 N  
HETATM   10  C   UNL     1      -9.116  12.124  66.260  1.00  0.00    -0.141 C  
BRANCH   9  11
HETATM   11  C   UNL     1     -10.871  13.732  66.922  1.00  0.00    -0.285 C  
BRANCH  11  12
HETATM   12  C   UNL     1     -10.139  14.821  67.660  1.00  0.00    -0.227 A  
HETATM   13  C   UNL     1      -9.398  14.663  68.818  1.00  0.00    -0.191 A  
HETATM   14  N   UNL     1     -10.109  16.119  67.140  1.00  0.00    -0.263 NA 
HETATM   15  S   UNL     1      -8.653  16.134  69.262  1.00  0.00    -0.111 SA 
HETATM   16  C   UNL     1     -10.289  19.206  67.667  1.00  0.00    -0.521 C  
HETATM   17  C   UNL     1      -9.343  16.896  67.880  1.00  0.00    -0.238 A  
HETATM   18  C   UNL     1      -9.031  18.345  67.582  1.00  0.00    -0.282 C  
HETATM   19  C   UNL     1      -8.377  18.483  66.206  1.00  0.00    -0.235 C  
ENDBRANCH  11  12
ENDBRANCH   9  11
ENDBRANCH   7   9
ENDBRANCH   5   7
ENDBRANCH   3   5
BRANCH   3  20
HETATM   20  C   UNL     1      -9.588   8.689  67.907  1.00  0.00    -0.149 C  
HETATM   21  O   UNL     1     -10.766   8.364  68.047  1.00  0.00    -0.168 OA 
HETATM   22  N   UNL     1      -8.692   7.906  67.206  1.00  0.00    -0.130 N  
HETATM   23  H   UNL     1      -7.702   8.150  67.229  1.00  0.00     0.000 HD 
BRANCH  22  24
HETATM   24  C   UNL     1      -9.114   6.742  66.432  1.00  0.00    -0.152 C  
BRANCH  24  25
HETATM   25  C   UNL     1      -9.318   5.470  67.282  1.00  0.00    -0.114 C  
BRANCH  25  26
HETATM   26  C   UNL     1      -8.813   5.453  68.731  1.00  0.00    -0.103 C  
HETATM   27  H   UNL     1      -7.119   5.830  69.620  1.00  0.00     0.000 HD 
HETATM   28  O   UNL     1      -7.432   5.841  68.723  1.00  0.00    -0.081 OA 
BRANCH  26  29
HETATM   29  C   UNL     1      -8.975   4.113  69.511  1.00  0.00    -0.103 C  
BRANCH  29  30
HETATM   30  N   UNL     1      -8.784   2.931  68.669  1.00  0.00    -0.083 N  
HETATM   31  C   UNL     1      -7.671   2.145  68.798  1.00  0.00    -0.046 C  
HETATM   32  H   UNL     1      -9.492   2.689  67.976  1.00  0.00     0.000 HD 
HETATM   33  O   UNL     1      -7.022   2.040  69.820  1.00  0.00    -0.033 OA 
BRANCH  31  34
HETATM   34  O   UNL     1      -7.378   1.553  67.620  1.00  0.00    -0.051 OA 
BRANCH  34  35
HETATM   35  C   UNL     1      -6.137   1.950  67.003  1.00  0.00    -0.020 C  
BRANCH  35  36
HETATM   36  C   UNL     1      -6.373   2.771  65.778  1.00  0.00    -0.024 A  
HETATM   37  N   UNL     1      -5.929   4.012  63.840  1.00  0.00    -0.014 NA 
HETATM   38  C   UNL     1      -5.432   3.315  64.923  1.00  0.00    -0.010 A  
HETATM   39  C   UNL     1      -7.242   3.997  63.886  1.00  0.00    -0.051 A  
HETATM   40  S   UNL     1      -7.942   3.110  65.178  1.00  0.00    -0.082 SA 
ENDBRANCH  35  36
ENDBRANCH  34  35
ENDBRANCH  31  34
ENDBRANCH  29  30
BRANCH  29  41
HETATM   41  C   UNL     1      -8.079   4.049  70.792  1.00  0.00    -0.063 C  
BRANCH  41  42
HETATM   42  C   UNL     1      -8.753   3.657  72.091  1.00  0.00    -0.113 A  
HETATM   43  C   UNL     1     -10.692   2.805  73.298  1.00  0.00    -0.277 A  
HETATM   44  C   UNL     1     -10.109   3.310  72.141  1.00  0.00    -0.199 A  
HETATM   45  C   UNL     1      -8.019   3.594  73.279  1.00  0.00    -0.079 A  
HETATM   46  C   UNL     1      -8.608   3.110  74.455  1.00  0.00    -0.076 A  
HETATM   47  C   UNL     1      -9.940   2.698  74.458  1.00  0.00    -0.161 A  
ENDBRANCH  41  42
ENDBRANCH  29  41
ENDBRANCH  26  29
ENDBRANCH  25  26
ENDBRANCH  24  25
BRANCH  24  48
HETATM   48  C   UNL     1      -8.160   6.550  65.235  1.00  0.00    -0.133 C  
BRANCH  48  49
HETATM   49  C   UNL     1      -7.707   7.818  64.550  1.00  0.00    -0.122 A  
HETATM   50  C   UNL     1      -8.243   9.902  63.422  1.00  0.00    -0.161 A  
HETATM   51  C   UNL     1      -8.650   8.741  64.079  1.00  0.00    -0.076 A  
HETATM   52  C   UNL     1      -6.888  10.150  63.220  1.00  0.00    -0.128 A  
HETATM   53  C   UNL     1      -5.939   9.238  63.677  1.00  0.00    -0.088 A  
HETATM   54  C   UNL     1      -6.345   8.073  64.331  1.00  0.00    -0.057 A  
ENDBRANCH  48  49
ENDBRANCH  24  48
ENDBRANCH  22  24
ENDBRANCH   3  20
TORSDOF 18
ENDMDL
MODEL      103
REMARK 921   NORMALIZED FREE ENERGY PREDICTED BY IDOCK:   -1.65 KCAL/MOL
REMARK 922        TOTAL FREE ENERGY PREDICTED BY IDOCK:   -8.00 KCAL/MOL
REMARK 923 INTER-LIGAND FREE ENERGY PREDICTED BY IDOCK:   -7.57 KCAL/MOL
REMARK 924 INTRA-LIGAND FREE ENERGY PREDICTED BY IDOCK:   -0.43 KCAL/MOL
REMARK 927      BINDING AFFINITY PREDICTED BY RF-SCORE:    0.00 PKD
ROOT
HETATM    1  C   UNL     1     -12.738   7.702  71.939  1.00  0.00    -0.320 C  
HETATM    2  C   UNL     1     -11.221   7.630  71.812  1.00  0.00    -0.285 C  
HETATM    3  C   UNL     1     -10.610   8.594  70.766  1.00  0.00    -0.210 C  
HETATM    4  C   UNL     1     -10.590   7.768  73.203  1.00  0.00    -0.415 C  
ENDROOT
BRANCH   3   5
HETATM    5  N   UNL     1     -10.784  10.035  71.012  1.00  0.00    -0.316 N  
HETATM    6  H   UNL     1     -10.061  10.529  71.534  1.00  0.00     0.000 HD 
BRANCH   5   7
HETATM    7  C   UNL     1     -11.868  10.743  70.572  1.00  0.00    -0.356 C  
HETATM    8  O   UNL     1     -13.015  10.328  70.720  1.00  0.00    -0.370 OA 
BRANCH   7   9
HETATM    9  N   UNL     1     -11.609  11.911  69.883  1.00  0.00    -0.286 N  
HETATM   10  C   UNL     1     -12.232  13.210  70.082  1.00  0.00    -0.290 C  
BRANCH   9  11
HETATM   11  C   UNL     1     -10.553  11.870  68.863  1.00  0.00    -0.173 C  
BRANCH  11  12
HETATM   12  C   UNL     1     -10.840  12.819  67.729  1.00  0.00    -0.225 A  
HETATM   13  C   UNL     1     -11.746  12.612  66.705  1.00  0.00    -0.398 A  
HETATM   14  N   UNL     1     -10.216  14.070  67.691  1.00  0.00    -0.240 NA 
HETATM   15  S   UNL     1     -11.831  13.983  65.689  1.00  0.00    -0.395 SA 
HETATM   16  C   UNL     1      -8.786  16.285  65.990  1.00  0.00    -0.308 C  
HETATM   17  C   UNL     1     -10.669  14.782  66.678  1.00  0.00    -0.309 A  
HETATM   18  C   UNL     1     -10.264  16.205  66.367  1.00  0.00    -0.315 C  
HETATM   19  C   UNL     1     -10.566  17.123  67.553  1.00  0.00    -0.323 C  
ENDBRANCH  11  12
ENDBRANCH   9  11
ENDBRANCH   7   9
ENDBRANCH   5   7
ENDBRANCH   3   5
BRANCH   3  20
HETATM   20  C   UNL     1     -10.906   8.142  69.301  1.00  0.00    -0.050 C  
HETATM   21  O   UNL     1     -12.015   7.780  68.913  1.00  0.00     1.443 OA 
HETATM   22  N   UNL     1      -9.800   8.126  68.474  1.00  0.00    -0.173 N  
HETATM   23  H   UNL     1      -8.881   8.309  68.876  1.00  0.00     0.000 HD 
BRANCH  22  24
HETATM   24  C   UNL     1      -9.902   7.857  67.042  1.00  0.00    -0.225 C  
BRANCH  24  25
HETATM   25  C   UNL     1     -10.342   6.416  66.708  1.00  0.00    -0.279 C  
BRANCH  25  26
HETATM   26  C   UNL     1      -9.711   5.247  67.478  1.00  0.00    -0.146 C  
HETATM   27  H   UNL     1      -9.787   4.584  69.310  1.00  0.00     0.000 HD 
HETATM   28  O   UNL     1     -10.177   5.308  68.834  1.00  0.00    -0.191 OA 
BRANCH  26  29
HETATM   29  C   UNL     1      -8.154   5.161  67.464  1.00  0.00    -0.099 C  
BRANCH  29  30
HETATM   30  N   UNL     1      -7.630   4.095  68.318  1.00  0.00    -0.067 N  
HETATM   31  C   UNL     1      -8.359   2.962  68.562  1.00  0.00    -0.065 C  
HETATM   32  H   UNL     1      -6.706   4.197  68.738  1.00  0.00     0.000 HD 
HETATM   33  O   UNL     1      -9.205   2.520  67.811  1.00  0.00    -0.172 OA 
BRANCH  31  34
HETATM   34  O   UNL     1      -8.035   2.449  69.768  1.00  0.00    -0.042 OA 
BRANCH  34  35
HETATM   35  C   UNL     1      -9.067   2.500  70.774  1.00  0.00    -0.117 C  
BRANCH  35  36
HETATM   36  C   UNL     1      -8.669   3.366  71.924  1.00  0.00    -0.089 A  
HETATM   37  N   UNL     1      -8.021   5.272  73.124  1.00  0.00    -0.101 NA 
HETATM   38  C   UNL     1      -8.321   4.704  71.902  1.00  0.00    -0.109 A  
HETATM   39  C   UNL     1      -8.135   4.358  74.061  1.00  0.00    -0.093 A  
HETATM   40  S   UNL     1      -8.658   2.808  73.544  1.00  0.00    -0.072 SA 
ENDBRANCH  35  36
ENDBRANCH  34  35
ENDBRANCH  31  34
ENDBRANCH  29  30
BRANCH  29  41
HETATM   41  C   UNL     1      -7.569   5.070  66.016  1.00  0.00    -0.087 C  
BRANCH  41  42
HETATM   42  C   UNL     1      -8.003   3.895  65.165  1.00  0.00    -0.093 A  
HETATM   43  C   UNL     1      -7.570   1.693  64.214  1.00  0.00    -0.059 A  
HETATM   44  C   UNL     1      -7.132   2.841  64.863  1.00  0.00    -0.053 A  
HETATM   45  C   UNL     1      -9.314   3.814  64.687  1.00  0.00    -0.153 A  
HETATM   46  C   UNL     1      -9.756   2.670  64.009  1.00  0.00    -0.144 A  
HETATM   47  C   UNL     1      -8.887   1.602  63.790  1.00  0.00    -0.089 A  
ENDBRANCH  41  42
ENDBRANCH  29  41
ENDBRANCH  26  29
ENDBRANCH  25  26
ENDBRANCH  24  25
BRANCH  24  48
HETATM   48  C   UNL     1      -8.596   8.292  66.345  1.00  0.00    -0.144 C  
BRANCH  48  49
HETATM   49  C   UNL     1      -7.866   9.448  66.986  1.00  0.00    -0.098 A  
HETATM   50  C   UNL     1      -6.502  10.327  68.795  1.00  0.00    -0.051 A  
HETATM   51  C   UNL     1      -7.157   9.260  68.180  1.00  0.00    -0.077 A  
HETATM   52  C   UNL     1      -6.554  11.597  68.227  1.00  0.00    -0.059 A  
HETATM   53  C   UNL     1      -7.260  11.801  67.043  1.00  0.00    -0.134 A  
HETATM   54  C   UNL     1      -7.920  10.735  66.429  1.00  0.00    -0.151 A  
ENDBRANCH  48  49
ENDBRANCH  24  48
ENDBRANCH  22  24
ENDBRANCH   3  20
TORSDOF 18
ENDMDL
MODEL      104
REMARK 921   NORMALIZED FREE ENERGY PREDICTED BY IDOCK:   -1.16 KCAL/MOL
REMARK 922        TOTAL FREE ENERGY PREDICTED BY IDOCK:   -6.99 KCAL/MOL
REMARK 923 INTER-LIGAND FREE ENERGY PREDICTED BY IDOCK:   -6.66 KCAL/MOL
REMARK 924 INTRA-LIGAND FREE ENERGY PREDICTED BY IDOCK:   -0.33 KCAL/MOL
REMARK 927      BINDING AFFINITY PREDICTED BY RF-SCORE:    0.00 PKD
ROOT
HETATM    1  C   UNL     1      -6.102  16.168  69.919  1.00  0.00    -0.172 C  
HETATM    2  C   UNL     1      -6.044  15.563  68.521  1.00  0.00    -0.096 C  
HETATM    3  C   UNL     1      -7.404  15.074  67.967  1.00  0.00    -0.127 C  
HETATM    4  C   UNL     1      -5.322  16.535  67.579  1.00  0.00    -0.167 C  
ENDROOT
BRANCH   3   5
HETATM    5  N   UNL     1      -8.445  16.097  67.768  1.00  0.00    -0.158 N  
HETATM    6  H   UNL     1      -8.622  16.430  66.820  1.00  0.00     0.000 HD 
BRANCH   5   7
HETATM    7  C   UNL     1      -9.185  16.621  68.791  1.00  0.00    -0.253 C  
HETATM    8  O   UNL     1      -8.866  16.461  69.967  1.00  0.00     0.643 OA 
BRANCH   7   9
HETATM    9  N   UNL     1     -10.350  17.274  68.443  1.00  0.00    -0.344 N  
HETATM   10  C   UNL     1     -11.627  16.673  68.091  1.00  0.00     0.193 C  
BRANCH   9  11
HETATM   11  C   UNL     1     -10.333  18.742  68.471  1.00  0.00    -0.259 C  
BRANCH  11  12
HETATM   12  C   UNL     1      -9.682  19.313  67.239  1.00  0.00    -0.328 A  
HETATM   13  C   UNL     1     -10.341  19.835  66.140  1.00  0.00    -0.524 A  
HETATM   14  N   UNL     1      -8.289  19.416  67.169  1.00  0.00    -0.280 NA 
HETATM   15  S   UNL     1      -9.223  20.467  65.012  1.00  0.00     1.943 SA 
HETATM   16  C   UNL     1      -5.676  19.098  65.463  1.00  0.00    -0.208 C  
HETATM   17  C   UNL     1      -7.927  20.025  66.057  1.00  0.00    -0.268 A  
HETATM   18  C   UNL     1      -6.503  20.364  65.678  1.00  0.00    -0.278 C  
HETATM   19  C   UNL     1      -5.858  21.252  66.743  1.00  0.00    -0.365 C  
ENDBRANCH  11  12
ENDBRANCH   9  11
ENDBRANCH   7   9
ENDBRANCH   5   7
ENDBRANCH   3   5
BRANCH   3  20
HETATM   20  C   UNL     1      -7.897  13.773  68.675  1.00  0.00    -0.108 C  
HETATM   21  O   UNL     1      -7.160  13.028  69.318  1.00  0.00    -0.032 OA 
HETATM   22  N   UNL     1      -9.234  13.486  68.477  1.00  0.00    -0.337 N  
HETATM   23  H   UNL     1      -9.770  14.062  67.829  1.00  0.00     0.000 HD 
BRANCH  22  24
HETATM   24  C   UNL     1      -9.904  12.384  69.162  1.00  0.00     0.426 C  
BRANCH  24  25
HETATM   25  C   UNL     1      -9.466  10.988  68.675  1.00  0.00    -0.197 C  
BRANCH  25  26
HETATM   26  C   UNL     1      -9.941   9.747  69.444  1.00  0.00    -0.205 C  
HETATM   27  H   UNL     1     -10.224   9.295  71.320  1.00  0.00     0.000 HD 
HETATM   28  O   UNL     1      -9.930  10.063  70.844  1.00  0.00     0.002 OA 
BRANCH  26  29
HETATM   29  C   UNL     1      -9.148   8.428  69.200  1.00  0.00    -0.147 C  
BRANCH  29  30
HETATM   30  N   UNL     1      -8.866   8.179  67.786  1.00  0.00    -0.130 N  
HETATM   31  C   UNL     1      -7.936   8.923  67.110  1.00  0.00    -0.096 C  
HETATM   32  H   UNL     1      -9.370   7.440  67.296  1.00  0.00     0.000 HD 
HETATM   33  O   UNL     1      -6.990   9.476  67.635  1.00  0.00    -0.078 OA 
BRANCH  31  34
HETATM   34  O   UNL     1      -8.254   8.990  65.800  1.00  0.00    -0.111 OA 
BRANCH  34  35
HETATM   35  C   UNL     1      -9.656   9.142  65.496  1.00  0.00    -0.169 C  
BRANCH  35  36
HETATM   36  C   UNL     1      -9.901  10.325  64.618  1.00  0.00    -0.327 A  
HETATM   37  N   UNL     1      -9.599  11.895  62.904  1.00  0.00    -0.280 NA 
HETATM   38  C   UNL     1      -9.121  10.787  63.574  1.00  0.00    -0.226 A  
HETATM   39  C   UNL     1     -10.734  12.270  63.451  1.00  0.00    -0.391 A  
HETATM   40  S   UNL     1     -11.310  11.293  64.739  1.00  0.00     0.151 SA 
ENDBRANCH  35  36
ENDBRANCH  34  35
ENDBRANCH  31  34
ENDBRANCH  29  30
BRANCH  29  41
HETATM   41  C   UNL     1      -7.846   8.339  70.064  1.00  0.00    -0.104 C  
BRANCH  41  42
HETATM   42  C   UNL     1      -7.310   6.955  70.369  1.00  0.00    -0.081 A  
HETATM   43  C   UNL     1      -7.198   4.570  69.878  1.00  0.00    -0.050 A  
HETATM   44  C   UNL     1      -7.791   5.817  69.711  1.00  0.00    -0.095 A  
HETATM   45  C   UNL     1      -6.282   6.784  71.301  1.00  0.00    -0.041 A  
HETATM   46  C   UNL     1      -5.697   5.525  71.493  1.00  0.00    -0.020 A  
HETATM   47  C   UNL     1      -6.144   4.422  70.767  1.00  0.00    -0.018 A  
ENDBRANCH  41  42
ENDBRANCH  29  41
ENDBRANCH  26  29
ENDBRANCH  25  26
ENDBRANCH  24  25
BRANCH  24  48
HETATM   48  C   UNL     1     -11.430  12.612  69.126  1.00  0.00    -0.359 C  
BRANCH  48  49
HETATM   49  C   UNL     1     -12.041  13.153  70.396  1.00  0.00    -0.392 A  
HETATM   50  C   UNL     1     -13.456  12.837  72.347  1.00  0.00    -0.512 A  
HETATM   51  C   UNL     1     -12.865  12.339  71.186  1.00  0.00    -0.302 A  
HETATM   52  C   UNL     1     -13.237  14.158  72.729  1.00  0.00    -0.604 A  
HETATM   53  C   UNL     1     -12.425  14.981  71.951  1.00  0.00    -0.409 A  
HETATM   54  C   UNL     1     -11.836  14.485  70.786  1.00  0.00    -0.367 A  
ENDBRANCH  48  49
ENDBRANCH  24  48
ENDBRANCH  22  24
ENDBRANCH   3  20
TORSDOF 18
ENDMDL
MODEL      105
REMARK 921   NORMALIZED FREE ENERGY PREDICTED BY IDOCK:   -1.01 KCAL/MOL
REMARK 922        TOTAL FREE ENERGY PREDICTED BY IDOCK:   -6.69 KCAL/MOL
REMARK 923 INTER-LIGAND FREE ENERGY PREDICTED BY IDOCK:   -7.15 KCAL/MOL
REMARK 924 INTRA-LIGAND FREE ENERGY PREDICTED BY IDOCK:    0.45 KCAL/MOL
REMARK 927      BINDING AFFINITY PREDICTED BY RF-SCORE:    0.00 PKD
ROOT
HETATM    1  C   UNL     1     -11.825   6.784  71.072  1.00  0.00    -0.427 C  
HETATM    2  C   UNL     1     -10.434   7.208  71.526  1.00  0.00    -0.221 C  
HETATM    3  C   UNL     1      -9.520   7.751  70.400  1.00  0.00    -0.164 C  
HETATM    4  C   UNL     1     -10.560   8.166  72.716  1.00  0.00    -0.386 C  
ENDROOT
BRANCH   3   5
HETATM    5  N   UNL     1      -9.962   8.982  69.723  1.00  0.00    -0.189 N  
HETATM    6  H   UNL     1     -10.962   9.131  69.593  1.00  0.00     0.000 HD 
BRANCH   5   7
HETATM    7  C   UNL     1      -9.095   9.934  69.261  1.00  0.00    -0.189 C  
HETATM    8  O   UNL     1      -8.025  10.160  69.821  1.00  0.00    -0.162 OA 
BRANCH   7   9
HETATM    9  N   UNL     1      -9.515  10.683  68.181  1.00  0.00    -0.150 N  
HETATM   10  C   UNL     1     -10.543  10.335  67.211  1.00  0.00    -0.267 C  
BRANCH   9  11
HETATM   11  C   UNL     1      -8.901  12.004  67.998  1.00  0.00    -0.179 C  
BRANCH  11  12
HETATM   12  C   UNL     1      -9.940  13.084  67.848  1.00  0.00    -0.230 A  
HETATM   13  C   UNL     1     -11.086  13.222  68.611  1.00  0.00    -0.268 A  
HETATM   14  N   UNL     1      -9.752  14.109  66.916  1.00  0.00    -0.260 NA 
HETATM   15  S   UNL     1     -11.934  14.639  68.174  1.00  0.00    -0.182 SA 
HETATM   16  C   UNL     1     -10.987  15.966  64.709  1.00  0.00    -0.392 C  
HETATM   17  C   UNL     1     -10.721  14.999  67.005  1.00  0.00    -0.304 A  
HETATM   18  C   UNL     1     -10.808  16.272  66.195  1.00  0.00    -0.105 C  
HETATM   19  C   UNL     1      -9.567  17.140  66.418  1.00  0.00    -0.296 C  
ENDBRANCH  11  12
ENDBRANCH   9  11
ENDBRANCH   7   9
ENDBRANCH   5   7
ENDBRANCH   3   5
BRANCH   3  20
HETATM   20  C   UNL     1      -9.028   6.621  69.441  1.00  0.00    -0.133 C  
HETATM   21  O   UNL     1      -9.647   6.261  68.441  1.00  0.00    -0.121 OA 
HETATM   22  N   UNL     1      -7.855   6.008  69.835  1.00  0.00    -0.102 N  
HETATM   23  H   UNL     1      -7.450   6.253  70.738  1.00  0.00     0.000 HD 
BRANCH  22  24
HETATM   24  C   UNL     1      -7.173   5.021  69.001  1.00  0.00    -0.054 C  
BRANCH  24  25
HETATM   25  C   UNL     1      -6.643   5.590  67.669  1.00  0.00    -0.053 C  
BRANCH  25  26
HETATM   26  C   UNL     1      -7.097   4.949  66.351  1.00  0.00    -0.072 C  
HETATM   27  H   UNL     1      -7.901   3.249  65.834  1.00  0.00     0.000 HD 
HETATM   28  O   UNL     1      -7.620   3.647  66.650  1.00  0.00    -0.078 OA 
BRANCH  26  29
HETATM   29  C   UNL     1      -6.025   4.835  65.224  1.00  0.00    -0.022 C  
BRANCH  29  30
HETATM   30  N   UNL     1      -5.899   3.480  64.685  1.00  0.00    -0.017 N  
HETATM   31  C   UNL     1      -6.395   3.162  63.450  1.00  0.00    -0.022 C  
HETATM   32  H   UNL     1      -5.433   2.762  65.240  1.00  0.00     0.000 HD 
HETATM   33  O   UNL     1      -6.542   3.961  62.546  1.00  0.00    -0.022 OA 
BRANCH  31  34
HETATM   34  O   UNL     1      -6.741   1.858  63.407  1.00  0.00    -0.021 OA 
BRANCH  34  35
HETATM   35  C   UNL     1      -7.923   1.492  64.148  1.00  0.00    -0.065 C  
BRANCH  35  36
HETATM   36  C   UNL     1      -9.151   2.099  63.554  1.00  0.00    -0.094 A  
HETATM   37  N   UNL     1     -11.172   2.278  62.381  1.00  0.00    -0.187 NA 
HETATM   38  C   UNL     1     -10.116   1.484  62.778  1.00  0.00    -0.099 A  
HETATM   39  C   UNL     1     -10.996   3.493  62.852  1.00  0.00    -0.064 A  
HETATM   40  S   UNL     1      -9.607   3.728  63.832  1.00  0.00    -0.166 SA 
ENDBRANCH  35  36
ENDBRANCH  34  35
ENDBRANCH  31  34
ENDBRANCH  29  30
BRANCH  29  41
HETATM   41  C   UNL     1      -6.238   5.884  64.082  1.00  0.00    -0.025 C  
BRANCH  41  42
HETATM   42  C   UNL     1      -6.593   7.297  64.496  1.00  0.00    -0.040 A  
HETATM   43  C   UNL     1      -8.257   9.029  64.909  1.00  0.00    -0.154 A  
HETATM   44  C   UNL     1      -7.899   7.790  64.391  1.00  0.00    -0.138 A  
HETATM   45  C   UNL     1      -5.619   8.141  65.038  1.00  0.00    -0.044 A  
HETATM   46  C   UNL     1      -5.968   9.402  65.540  1.00  0.00    -0.059 A  
HETATM   47  C   UNL     1      -7.292   9.837  65.491  1.00  0.00    -0.112 A  
ENDBRANCH  41  42
ENDBRANCH  29  41
ENDBRANCH  26  29
ENDBRANCH  25  26
ENDBRANCH  24  25
BRANCH  24  48
HETATM   48  C   UNL     1      -8.073   3.778  68.839  1.00  0.00    -0.065 C  
BRANCH  48  49
HETATM   49  C   UNL     1      -8.462   3.081  70.121  1.00  0.00    -0.094 A  
HETATM   50  C   UNL     1      -9.994   2.822  71.989  1.00  0.00    -0.226 A  
HETATM   51  C   UNL     1      -9.639   3.441  70.791  1.00  0.00    -0.236 A  
HETATM   52  C   UNL     1      -9.173   1.840  72.537  1.00  0.00    -0.111 A  
HETATM   53  C   UNL     1      -7.997   1.475  71.884  1.00  0.00    -0.041 A  
HETATM   54  C   UNL     1      -7.637   2.097  70.687  1.00  0.00    -0.035 A  
ENDBRANCH  48  49
ENDBRANCH  24  48
ENDBRANCH  22  24
ENDBRANCH   3  20
TORSDOF 18
ENDMDL
MODEL      106
REMARK 921   NORMALIZED FREE ENERGY PREDICTED BY IDOCK:   -0.30 KCAL/MOL
REMARK 922        TOTAL FREE ENERGY PREDICTED BY IDOCK:   -5.24 KCAL/MOL
REMARK 923 INTER-LIGAND FREE ENERGY PREDICTED BY IDOCK:   -6.77 KCAL/MOL
REMARK 924 INTRA-LIGAND FREE ENERGY PREDICTED BY IDOCK:    1.54 KCAL/MOL
REMARK 927      BINDING AFFINITY PREDICTED BY RF-SCORE:    0.00 PKD
ROOT
HETATM    1  C   UNL     1     -11.363   7.550  71.056  1.00  0.00    -0.292 C  
HETATM    2  C   UNL     1      -9.897   7.786  71.398  1.00  0.00    -0.195 C  
HETATM    3  C   UNL     1      -9.037   8.333  70.231  1.00  0.00    -0.150 C  
HETATM    4  C   UNL     1      -9.804   8.640  72.668  1.00  0.00    -0.184 C  
ENDROOT
BRANCH   3   5
HETATM    5  N   UNL     1      -9.401   9.659  69.705  1.00  0.00    -0.204 N  
HETATM    6  H   UNL     1     -10.383   9.932  69.715  1.00  0.00     0.000 HD 
BRANCH   5   7
HETATM    7  C   UNL     1      -8.485  10.543  69.204  1.00  0.00    -0.147 C  
HETATM    8  O   UNL     1      -7.277  10.379  69.360  1.00  0.00    -0.082 OA 
BRANCH   7   9
HETATM    9  N   UNL     1      -8.985  11.668  68.581  1.00  0.00    -0.130 N  
HETATM   10  C   UNL     1     -10.338  12.196  68.666  1.00  0.00    -0.195 C  
BRANCH   9  11
HETATM   11  C   UNL     1      -8.049  12.463  67.776  1.00  0.00    -0.162 C  
BRANCH  11  12
HETATM   12  C   UNL     1      -7.841  13.836  68.360  1.00  0.00    -0.143 A  
HETATM   13  C   UNL     1      -6.878  14.187  69.288  1.00  0.00    -0.118 A  
HETATM   14  N   UNL     1      -8.615  14.910  67.910  1.00  0.00    -0.155 NA 
HETATM   15  S   UNL     1      -6.927  15.866  69.602  1.00  0.00    -0.082 SA 
HETATM   16  C   UNL     1     -10.246  17.497  68.610  1.00  0.00    -0.373 C  
HETATM   17  C   UNL     1      -8.217  16.034  68.473  1.00  0.00    -0.181 A  
HETATM   18  C   UNL     1      -8.785  17.403  68.175  1.00  0.00    -0.256 C  
HETATM   19  C   UNL     1      -8.646  17.733  66.688  1.00  0.00    -0.280 C  
ENDBRANCH  11  12
ENDBRANCH   9  11
ENDBRANCH   7   9
ENDBRANCH   5   7
ENDBRANCH   3   5
BRANCH   3  20
HETATM   20  C   UNL     1      -8.765   7.251  69.139  1.00  0.00    -0.136 C  
HETATM   21  O   UNL     1      -9.576   6.948  68.265  1.00  0.00    -0.130 OA 
HETATM   22  N   UNL     1      -7.549   6.609  69.261  1.00  0.00    -0.098 N  
HETATM   23  H   UNL     1      -6.969   6.803  70.078  1.00  0.00     0.000 HD 
BRANCH  22  24
HETATM   24  C   UNL     1      -7.063   5.662  68.262  1.00  0.00    -0.074 C  
BRANCH  24  25
HETATM   25  C   UNL     1      -6.244   6.316  67.129  1.00  0.00    -0.032 C  
BRANCH  25  26
HETATM   26  C   UNL     1      -6.931   6.614  65.789  1.00  0.00    -0.057 C  
HETATM   27  H   UNL     1      -8.133   5.648  64.596  1.00  0.00     0.000 HD 
HETATM   28  O   UNL     1      -7.708   5.464  65.425  1.00  0.00    -0.087 OA 
BRANCH  26  29
HETATM   29  C   UNL     1      -6.002   7.013  64.602  1.00  0.00    -0.037 C  
BRANCH  29  30
HETATM   30  N   UNL     1      -5.838   5.944  63.616  1.00  0.00    -0.021 N  
HETATM   31  C   UNL     1      -6.838   5.639  62.732  1.00  0.00    -0.033 C  
HETATM   32  H   UNL     1      -4.964   5.418  63.586  1.00  0.00     0.000 HD 
HETATM   33  O   UNL     1      -7.684   6.428  62.360  1.00  0.00    -0.076 OA 
BRANCH  31  34
HETATM   34  O   UNL     1      -6.772   4.337  62.383  1.00  0.00    -0.029 OA 
BRANCH  34  35
HETATM   35  C   UNL     1      -7.304   3.398  63.340  1.00  0.00    -0.054 C  
BRANCH  35  36
HETATM   36  C   UNL     1      -8.735   3.079  63.057  1.00  0.00    -0.085 A  
HETATM   37  N   UNL     1     -10.995   3.388  62.518  1.00  0.00    -0.125 NA 
HETATM   38  C   UNL     1      -9.763   3.958  62.771  1.00  0.00    -0.138 A  
HETATM   39  C   UNL     1     -10.893   2.082  62.623  1.00  0.00    -0.175 A  
HETATM   40  S   UNL     1      -9.325   1.472  62.964  1.00  0.00    -0.091 SA 
ENDBRANCH  35  36
ENDBRANCH  34  35
ENDBRANCH  31  34
ENDBRANCH  29  30
BRANCH  29  41
HETATM   41  C   UNL     1      -6.436   8.353  63.922  1.00  0.00    -0.072 C  
BRANCH  41  42
HETATM   42  C   UNL     1      -7.797   8.907  64.287  1.00  0.00    -0.134 A  
HETATM   43  C   UNL     1      -9.453   9.523  65.966  1.00  0.00    -0.294 A  
HETATM   44  C   UNL     1      -8.274   8.881  65.603  1.00  0.00    -0.126 A  
HETATM   45  C   UNL     1      -8.605   9.500  63.312  1.00  0.00    -0.217 A  
HETATM   46  C   UNL     1      -9.807  10.127  63.667  1.00  0.00    -0.038 A  
HETATM   47  C   UNL     1     -10.221  10.153  64.999  1.00  0.00    -0.203 A  
ENDBRANCH  41  42
ENDBRANCH  29  41
ENDBRANCH  26  29
ENDBRANCH  25  26
ENDBRANCH  24  25
BRANCH  24  48
HETATM   48  C   UNL     1      -8.238   4.793  67.766  1.00  0.00    -0.100 C  
BRANCH  48  49
HETATM   49  C   UNL     1      -8.645   3.661  68.678  1.00  0.00    -0.120 A  
HETATM   50  C   UNL     1      -8.595   2.606  70.867  1.00  0.00    -0.104 A  
HETATM   51  C   UNL     1      -8.247   3.659  70.022  1.00  0.00    -0.070 A  
HETATM   52  C   UNL     1      -9.340   1.537  70.376  1.00  0.00    -0.167 A  
HETATM   53  C   UNL     1      -9.738   1.521  69.041  1.00  0.00    -0.064 A  
HETATM   54  C   UNL     1      -9.387   2.573  68.193  1.00  0.00    -0.261 A  
ENDBRANCH  48  49
ENDBRANCH  24  48
ENDBRANCH  22  24
ENDBRANCH   3  20
TORSDOF 18
ENDMDL
MODEL      107
REMARK 921   NORMALIZED FREE ENERGY PREDICTED BY IDOCK:   -0.24 KCAL/MOL
REMARK 922        TOTAL FREE ENERGY PREDICTED BY IDOCK:   -5.11 KCAL/MOL
REMARK 923 INTER-LIGAND FREE ENERGY PREDICTED BY IDOCK:   -5.75 KCAL/MOL
REMARK 924 INTRA-LIGAND FREE ENERGY PREDICTED BY IDOCK:    0.65 KCAL/MOL
REMARK 927      BINDING AFFINITY PREDICTED BY RF-SCORE:    0.00 PKD
ROOT
HETATM    1  C   UNL     1      -9.066   7.299  72.811  1.00  0.00    -0.170 C  
HETATM    2  C   UNL     1     -10.032   7.648  71.685  1.00  0.00    -0.207 C  
HETATM    3  C   UNL     1      -9.542   7.269  70.266  1.00  0.00    -0.165 C  
HETATM    4  C   UNL     1     -11.419   7.083  72.016  1.00  0.00    -0.308 C  
ENDROOT
BRANCH   3   5
HETATM    5  N   UNL     1      -9.332   5.837  69.998  1.00  0.00    -0.145 N  
HETATM    6  H   UNL     1      -8.777   5.296  70.659  1.00  0.00     0.000 HD 
BRANCH   5   7
HETATM    7  C   UNL     1      -9.847   5.198  68.904  1.00  0.00    -0.172 C  
HETATM    8  O   UNL     1     -10.360   5.818  67.975  1.00  0.00    -0.172 OA 
BRANCH   7   9
HETATM    9  N   UNL     1      -9.833   3.818  68.928  1.00  0.00    -0.001 N  
HETATM   10  C   UNL     1      -9.933   2.954  70.095  1.00  0.00     0.458 C  
BRANCH   9  11
HETATM   11  C   UNL     1      -9.757   3.123  67.636  1.00  0.00     0.102 C  
BRANCH  11  12
HETATM   12  C   UNL     1      -8.526   3.520  66.864  1.00  0.00    -0.106 A  
HETATM   13  C   UNL     1      -7.949   2.806  65.829  1.00  0.00    -0.082 A  
HETATM   14  N   UNL     1      -7.905   4.746  67.124  1.00  0.00    -0.094 NA 
HETATM   15  S   UNL     1      -6.629   3.665  65.167  1.00  0.00    -0.041 SA 
HETATM   16  C   UNL     1      -5.239   6.354  67.512  1.00  0.00    -0.005 C  
HETATM   17  C   UNL     1      -6.909   4.947  66.284  1.00  0.00    -0.065 A  
HETATM   18  C   UNL     1      -6.055   6.193  66.231  1.00  0.00    -0.029 C  
HETATM   19  C   UNL     1      -6.922   7.431  65.988  1.00  0.00    -0.061 C  
ENDBRANCH  11  12
ENDBRANCH   9  11
ENDBRANCH   7   9
ENDBRANCH   5   7
ENDBRANCH   3   5
BRANCH   3  20
HETATM   20  C   UNL     1      -8.391   8.200  69.771  1.00  0.00    -0.124 C  
HETATM   21  O   UNL     1      -7.234   8.131  70.185  1.00  0.00    -0.054 OA 
HETATM   22  N   UNL     1      -8.784   9.160  68.858  1.00  0.00    -0.130 N  
HETATM   23  H   UNL     1      -9.776   9.260  68.646  1.00  0.00     0.000 HD 
BRANCH  22  24
HETATM   24  C   UNL     1      -7.828  10.035  68.186  1.00  0.00    -0.089 C  
BRANCH  24  25
HETATM   25  C   UNL     1      -7.915  11.510  68.629  1.00  0.00    -0.135 C  
BRANCH  25  26
HETATM   26  C   UNL     1      -7.615  12.614  67.606  1.00  0.00    -0.152 C  
HETATM   27  H   UNL     1      -6.064  13.155  66.555  1.00  0.00     0.000 HD 
HETATM   28  O   UNL     1      -6.250  12.472  67.188  1.00  0.00    -0.187 OA 
BRANCH  26  29
HETATM   29  C   UNL     1      -7.869  14.082  68.068  1.00  0.00    -0.152 C  
BRANCH  29  30
HETATM   30  N   UNL     1      -9.276  14.476  67.981  1.00  0.00    -0.184 N  
HETATM   31  C   UNL     1      -9.636  15.705  67.498  1.00  0.00    -0.224 C  
HETATM   32  H   UNL     1      -9.999  13.825  68.286  1.00  0.00     0.000 HD 
HETATM   33  O   UNL     1      -8.970  16.354  66.716  1.00  0.00    -0.205 OA 
BRANCH  31  34
HETATM   34  O   UNL     1     -10.800  16.103  68.054  1.00  0.00    -0.312 OA 
BRANCH  34  35
HETATM   35  C   UNL     1     -11.896  15.169  67.964  1.00  0.00    -0.202 C  
BRANCH  35  36
HETATM   36  C   UNL     1     -12.171  14.520  69.280  1.00  0.00    -0.229 A  
HETATM   37  N   UNL     1     -12.916  14.241  71.484  1.00  0.00    -0.322 NA 
HETATM   38  C   UNL     1     -12.751  15.081  70.402  1.00  0.00    -0.325 A  
HETATM   39  C   UNL     1     -12.452  13.050  71.177  1.00  0.00    -0.271 A  
HETATM   40  S   UNL     1     -11.857  12.861  69.579  1.00  0.00    -0.289 SA 
ENDBRANCH  35  36
ENDBRANCH  34  35
ENDBRANCH  31  34
ENDBRANCH  29  30
BRANCH  29  41
HETATM   41  C   UNL     1      -7.282  14.377  69.488  1.00  0.00    -0.051 C  
BRANCH  41  42
HETATM   42  C   UNL     1      -6.639  15.732  69.704  1.00  0.00    -0.182 A  
HETATM   43  C   UNL     1      -5.178  17.204  70.984  1.00  0.00    -0.151 A  
HETATM   44  C   UNL     1      -5.893  16.018  70.853  1.00  0.00     0.270 A  
HETATM   45  C   UNL     1      -6.746  16.729  68.730  1.00  0.00    -0.185 A  
HETATM   46  C   UNL     1      -6.048  17.936  68.867  1.00  0.00    -0.208 A  
HETATM   47  C   UNL     1      -5.249  18.164  69.987  1.00  0.00    -0.220 A  
ENDBRANCH  41  42
ENDBRANCH  29  41
ENDBRANCH  26  29
ENDBRANCH  25  26
ENDBRANCH  24  25
BRANCH  24  48
HETATM   48  C   UNL     1      -7.930   9.830  66.660  1.00  0.00    -0.112 C  
BRANCH  48  49
HETATM   49  C   UNL     1      -9.165  10.402  66.006  1.00  0.00    -0.200 A  
HETATM   50  C   UNL     1     -10.188  11.700  64.225  1.00  0.00    -0.357 A  
HETATM   51  C   UNL     1      -9.058  11.145  64.823  1.00  0.00    -0.096 A  
HETATM   52  C   UNL     1     -11.441  11.525  64.806  1.00  0.00    -0.142 A  
HETATM   53  C   UNL     1     -11.564  10.793  65.985  1.00  0.00     0.992 A  
HETATM   54  C   UNL     1     -10.432  10.240  66.588  1.00  0.00    -0.260 A  
ENDBRANCH  48  49
ENDBRANCH  24  48
ENDBRANCH  22  24
ENDBRANCH   3  20
TORSDOF 18
ENDMDL
MODEL      108
REMARK 921   NORMALIZED FREE ENERGY PREDICTED BY IDOCK:    0.49 KCAL/MOL
REMARK 922        TOTAL FREE ENERGY PREDICTED BY IDOCK:   -3.61 KCAL/MOL
REMARK 923 INTER-LIGAND FREE ENERGY PREDICTED BY IDOCK:   -6.11 KCAL/MOL
REMARK 924 INTRA-LIGAND FREE ENERGY PREDICTED BY IDOCK:    2.50 KCAL/MOL
REMARK 927      BINDING AFFINITY PREDICTED BY RF-SCORE:    0.00 PKD
ROOT
HETATM    1  C   UNL     1     -10.407   7.117  71.274  1.00  0.00    -0.209 C  
HETATM    2  C   UNL     1      -9.019   7.594  71.685  1.00  0.00    -0.148 C  
HETATM    3  C   UNL     1      -8.200   8.263  70.553  1.00  0.00    -0.114 C  
HETATM    4  C   UNL     1      -9.135   8.465  72.942  1.00  0.00    -0.282 C  
ENDROOT
BRANCH   3   5
HETATM    5  N   UNL     1      -8.748   9.506  69.984  1.00  0.00    -0.203 N  
HETATM    6  H   UNL     1      -9.759   9.637  69.988  1.00  0.00     0.000 HD 
BRANCH   5   7
HETATM    7  C   UNL     1      -7.965  10.492  69.451  1.00  0.00    -0.140 C  
HETATM    8  O   UNL     1      -6.742  10.483  69.572  1.00  0.00    -0.063 OA 
BRANCH   7   9
HETATM    9  N   UNL     1      -8.621  11.539  68.835  1.00  0.00    -0.039 N  
HETATM   10  C   UNL     1     -10.040  11.851  68.899  1.00  0.00    -0.042 C  
BRANCH   9  11
HETATM   11  C   UNL     1      -7.803  12.484  68.063  1.00  0.00    -0.147 C  
BRANCH  11  12
HETATM   12  C   UNL     1      -8.657  13.459  67.296  1.00  0.00    -0.213 A  
HETATM   13  C   UNL     1      -8.447  14.823  67.198  1.00  0.00    -0.223 A  
HETATM   14  N   UNL     1      -9.735  12.994  66.535  1.00  0.00    -0.262 NA 
HETATM   15  S   UNL     1      -9.591  15.535  66.148  1.00  0.00    -0.355 SA 
HETATM   16  C   UNL     1     -12.709  13.378  65.615  1.00  0.00    -0.432 C  
HETATM   17  C   UNL     1     -10.292  13.987  65.869  1.00  0.00    -0.318 A  
HETATM   18  C   UNL     1     -11.443  13.843  64.899  1.00  0.00    -0.354 C  
HETATM   19  C   UNL     1     -11.079  12.877  63.770  1.00  0.00    -0.424 C  
ENDBRANCH  11  12
ENDBRANCH   9  11
ENDBRANCH   7   9
ENDBRANCH   5   7
ENDBRANCH   3   5
BRANCH   3  20
HETATM   20  C   UNL     1      -7.698   7.228  69.497  1.00  0.00    -0.113 C  
HETATM   21  O   UNL     1      -8.445   6.623  68.730  1.00  0.00    -0.122 OA 
HETATM   22  N   UNL     1      -6.337   6.999  69.525  1.00  0.00    -0.034 N  
HETATM   23  H   UNL     1      -5.780   7.427  70.264  1.00  0.00     0.000 HD 
BRANCH  22  24
HETATM   24  C   UNL     1      -5.666   6.165  68.530  1.00  0.00    -0.012 C  
BRANCH  24  25
HETATM   25  C   UNL     1      -5.205   6.938  67.278  1.00  0.00    -0.012 C  
BRANCH  25  26
HETATM   26  C   UNL     1      -6.170   7.083  66.093  1.00  0.00    -0.039 C  
HETATM   27  H   UNL     1      -7.487   5.939  65.223  1.00  0.00     0.000 HD 
HETATM   28  O   UNL     1      -6.890   5.849  65.956  1.00  0.00    -0.057 OA 
BRANCH  26  29
HETATM   29  C   UNL     1      -5.539   7.475  64.722  1.00  0.00    -0.033 C  
BRANCH  29  30
HETATM   30  N   UNL     1      -5.264   6.322  63.865  1.00  0.00    -0.017 N  
HETATM   31  C   UNL     1      -6.270   5.691  63.184  1.00  0.00    -0.021 C  
HETATM   32  H   UNL     1      -4.306   5.982  63.773  1.00  0.00     0.000 HD 
HETATM   33  O   UNL     1      -7.306   6.228  62.845  1.00  0.00    -0.052 OA 
BRANCH  31  34
HETATM   34  O   UNL     1      -5.964   4.390  62.997  1.00  0.00    -0.016 OA 
BRANCH  34  35
HETATM   35  C   UNL     1      -6.063   3.542  64.159  1.00  0.00    -0.018 C  
BRANCH  35  36
HETATM   36  C   UNL     1      -7.402   2.887  64.247  1.00  0.00    -0.066 A  
HETATM   37  N   UNL     1      -9.262   1.592  63.652  1.00  0.00    -0.091 NA 
HETATM   38  C   UNL     1      -8.029   2.100  63.299  1.00  0.00    -0.068 A  
HETATM   39  C   UNL     1      -9.566   2.006  64.863  1.00  0.00     0.050 A  
HETATM   40  S   UNL     1      -8.379   2.961  65.653  1.00  0.00    -0.099 SA 
ENDBRANCH  35  36
ENDBRANCH  34  35
ENDBRANCH  31  34
ENDBRANCH  29  30
BRANCH  29  41
HETATM   41  C   UNL     1      -6.372   8.561  63.964  1.00  0.00    -0.072 C  
BRANCH  41  42
HETATM   42  C   UNL     1      -7.743   8.893  64.516  1.00  0.00    -0.119 A  
HETATM   43  C   UNL     1      -9.332   8.928  66.364  1.00  0.00    -0.262 A  
HETATM   44  C   UNL     1      -8.137   8.496  65.800  1.00  0.00    -0.116 A  
HETATM   45  C   UNL     1      -8.647   9.646  63.761  1.00  0.00    -0.217 A  
HETATM   46  C   UNL     1      -9.864  10.064  64.315  1.00  0.00    -0.152 A  
HETATM   47  C   UNL     1     -10.197   9.719  65.624  1.00  0.00    -0.178 A  
ENDBRANCH  41  42
ENDBRANCH  29  41
ENDBRANCH  26  29
ENDBRANCH  25  26
ENDBRANCH  24  25
BRANCH  24  48
HETATM   48  C   UNL     1      -6.542   4.933  68.220  1.00  0.00    -0.045 C  
BRANCH  48  49
HETATM   49  C   UNL     1      -6.430   3.788  69.199  1.00  0.00    -0.033 A  
HETATM   50  C   UNL     1      -5.478   1.639  69.816  1.00  0.00    -0.012 A  
HETATM   51  C   UNL     1      -5.570   2.714  68.933  1.00  0.00    -0.021 A  
HETATM   52  C   UNL     1      -6.252   1.621  70.974  1.00  0.00    -0.018 A  
HETATM   53  C   UNL     1      -7.117   2.679  71.249  1.00  0.00    -0.032 A  
HETATM   54  C   UNL     1      -7.213   3.754  70.363  1.00  0.00    -0.041 A  
ENDBRANCH  48  49
ENDBRANCH  24  48
ENDBRANCH  22  24
ENDBRANCH   3  20
TORSDOF 18
ENDMDL
MODEL      109
REMARK 921   NORMALIZED FREE ENERGY PREDICTED BY IDOCK:    0.99 KCAL/MOL
REMARK 922        TOTAL FREE ENERGY PREDICTED BY IDOCK:   -2.59 KCAL/MOL
REMARK 923 INTER-LIGAND FREE ENERGY PREDICTED BY IDOCK:   -6.85 KCAL/MOL
REMARK 924 INTRA-LIGAND FREE ENERGY PREDICTED BY IDOCK:    4.26 KCAL/MOL
REMARK 927      BINDING AFFINITY PREDICTED BY RF-SCORE:    0.00 PKD
ROOT
HETATM    1  C   UNL     1     -10.436   7.488  71.439  1.00  0.00    -0.226 C  
HETATM    2  C   UNL     1      -9.026   8.064  71.475  1.00  0.00    -0.180 C  
HETATM    3  C   UNL     1      -8.545   8.689  70.142  1.00  0.00    -0.138 C  
HETATM    4  C   UNL     1      -8.898   9.016  72.670  1.00  0.00     0.651 C  
ENDROOT
BRANCH   3   5
HETATM    5  N   UNL     1      -9.293   9.858  69.651  1.00  0.00    -0.217 N  
HETATM    6  H   UNL     1     -10.298   9.897  69.819  1.00  0.00     0.000 HD 
BRANCH   5   7
HETATM    7  C   UNL     1      -8.705  10.895  68.980  1.00  0.00    -0.100 C  
HETATM    8  O   UNL     1      -7.490  10.946  68.807  1.00  0.00    -0.095 OA 
BRANCH   7   9
HETATM    9  N   UNL     1      -9.534  11.921  68.574  1.00  0.00    -0.182 N  
HETATM   10  C   UNL     1     -10.985  11.893  68.463  1.00  0.00    -0.235 C  
BRANCH   9  11
HETATM   11  C   UNL     1      -8.905  13.210  68.259  1.00  0.00    -0.175 C  
BRANCH  11  12
HETATM   12  C   UNL     1      -9.745  14.368  68.728  1.00  0.00    -0.190 A  
HETATM   13  C   UNL     1      -9.923  15.567  68.062  1.00  0.00    -0.214 A  
HETATM   14  N   UNL     1     -10.495  14.255  69.904  1.00  0.00     0.217 NA 
HETATM   15  S   UNL     1     -11.034  16.561  68.896  1.00  0.00    -0.300 SA 
HETATM   16  C   UNL     1     -11.489  15.578  72.569  1.00  0.00    -0.435 C  
HETATM   17  C   UNL     1     -11.230  15.334  70.089  1.00  0.00    -0.291 A  
HETATM   18  C   UNL     1     -12.210  15.533  71.223  1.00  0.00    -0.447 C  
HETATM   19  C   UNL     1     -13.271  14.430  71.219  1.00  0.00    -0.416 C  
ENDBRANCH  11  12
ENDBRANCH   9  11
ENDBRANCH   7   9
ENDBRANCH   5   7
ENDBRANCH   3   5
BRANCH   3  20
HETATM   20  C   UNL     1      -8.240   7.608  69.058  1.00  0.00    -0.127 C  
HETATM   21  O   UNL     1      -9.106   6.917  68.525  1.00  0.00    -0.129 OA 
HETATM   22  N   UNL     1      -6.897   7.445  68.776  1.00  0.00    -0.070 N  
HETATM   23  H   UNL     1      -6.211   7.948  69.338  1.00  0.00     0.000 HD 
BRANCH  22  24
HETATM   24  C   UNL     1      -6.427   6.576  67.701  1.00  0.00    -0.052 C  
BRANCH  24  25
HETATM   25  C   UNL     1      -5.855   7.339  66.488  1.00  0.00    -0.035 C  
BRANCH  25  26
HETATM   26  C   UNL     1      -6.811   8.138  65.592  1.00  0.00    -0.066 C  
HETATM   27  H   UNL     1      -8.701   8.028  65.127  1.00  0.00     0.000 HD 
HETATM   28  O   UNL     1      -8.110   7.534  65.682  1.00  0.00    -0.113 OA 
BRANCH  26  29
HETATM   29  C   UNL     1      -6.405   8.283  64.093  1.00  0.00    -0.067 C  
BRANCH  29  30
HETATM   30  N   UNL     1      -6.860   7.167  63.263  1.00  0.00    -0.051 N  
HETATM   31  C   UNL     1      -8.081   7.199  62.645  1.00  0.00    -0.076 C  
HETATM   32  H   UNL     1      -6.258   6.352  63.144  1.00  0.00     0.000 HD 
HETATM   33  O   UNL     1      -8.662   8.219  62.331  1.00  0.00    -0.122 OA 
BRANCH  31  34
HETATM   34  O   UNL     1      -8.557   5.946  62.487  1.00  0.00    -0.068 OA 
BRANCH  34  35
HETATM   35  C   UNL     1      -8.575   5.122  63.671  1.00  0.00    -0.082 C  
BRANCH  35  36
HETATM   36  C   UNL     1      -9.303   3.840  63.434  1.00  0.00    -0.121 A  
HETATM   37  N   UNL     1     -10.995   2.219  63.522  1.00  0.00    -0.169 NA 
HETATM   38  C   UNL     1     -10.539   3.458  63.924  1.00  0.00    -0.243 A  
HETATM   39  C   UNL     1     -10.097   1.666  62.737  1.00  0.00    -0.099 A  
HETATM   40  S   UNL     1      -8.708   2.613  62.395  1.00  0.00    -0.074 SA 
ENDBRANCH  35  36
ENDBRANCH  34  35
ENDBRANCH  31  34
ENDBRANCH  29  30
BRANCH  29  41
HETATM   41  C   UNL     1      -6.835   9.658  63.483  1.00  0.00    -0.110 C  
BRANCH  41  42
HETATM   42  C   UNL     1      -8.151  10.244  63.953  1.00  0.00    -0.138 A  
HETATM   43  C   UNL     1      -9.711  10.780  65.747  1.00  0.00    -0.278 A  
HETATM   44  C   UNL     1      -8.582  10.117  65.279  1.00  0.00    -0.169 A  
HETATM   45  C   UNL     1      -8.959  10.967  63.071  1.00  0.00    -0.248 A  
HETATM   46  C   UNL     1     -10.111  11.618  63.531  1.00  0.00    -0.455 A  
HETATM   47  C   UNL     1     -10.476  11.539  64.874  1.00  0.00    -0.345 A  
ENDBRANCH  41  42
ENDBRANCH  29  41
ENDBRANCH  26  29
ENDBRANCH  25  26
ENDBRANCH  24  25
BRANCH  24  48
HETATM   48  C   UNL     1      -7.533   5.562  67.340  1.00  0.00    -0.084 C  
BRANCH  48  49
HETATM   49  C   UNL     1      -7.267   4.132  67.746  1.00  0.00    -0.064 A  
HETATM   50  C   UNL     1      -6.505   2.526  69.403  1.00  0.00    -0.029 A  
HETATM   51  C   UNL     1      -6.779   3.841  69.027  1.00  0.00    -0.045 A  
HETATM   52  C   UNL     1      -6.708   1.486  68.500  1.00  0.00    -0.029 A  
HETATM   53  C   UNL     1      -7.188   1.761  67.221  1.00  0.00    -0.050 A  
HETATM   54  C   UNL     1      -7.459   3.077  66.841  1.00  0.00    -0.071 A  
ENDBRANCH  48  49
ENDBRANCH  24  48
ENDBRANCH  22  24
ENDBRANCH   3  20
TORSDOF 18
ENDMDL
MODEL      110
REMARK 921   NORMALIZED FREE ENERGY PREDICTED BY IDOCK:    2.78 KCAL/MOL
REMARK 922        TOTAL FREE ENERGY PREDICTED BY IDOCK:    1.10 KCAL/MOL
REMARK 923 INTER-LIGAND FREE ENERGY PREDICTED BY IDOCK:   -2.69 KCAL/MOL
REMARK 924 INTRA-LIGAND FREE ENERGY PREDICTED BY IDOCK:    3.79 KCAL/MOL
REMARK 927      BINDING AFFINITY PREDICTED BY RF-SCORE:    0.00 PKD
ROOT
HETATM    1  C   UNL     1      -7.759  14.701  72.237  1.00  0.00     5.133 C  
HETATM    2  C   UNL     1      -6.423  14.376  71.582  1.00  0.00     0.767 C  
HETATM    3  C   UNL     1      -6.291  14.838  70.110  1.00  0.00    -0.169 C  
HETATM    4  C   UNL     1      -5.284  14.881  72.478  1.00  0.00    -0.061 C  
ENDROOT
BRANCH   3   5
HETATM    5  N   UNL     1      -6.360  16.288  69.861  1.00  0.00    -0.176 N  
HETATM    6  H   UNL     1      -6.677  16.895  70.617  1.00  0.00     0.000 HD 
BRANCH   5   7
HETATM    7  C   UNL     1      -6.019  16.859  68.667  1.00  0.00    -0.146 C  
HETATM    8  O   UNL     1      -5.738  18.052  68.578  1.00  0.00    -0.169 OA 
BRANCH   7   9
HETATM    9  N   UNL     1      -6.079  16.048  67.551  1.00  0.00    -0.156 N  
HETATM   10  C   UNL     1      -5.195  14.943  67.214  1.00  0.00     0.568 C  
BRANCH   9  11
HETATM   11  C   UNL     1      -7.182  16.281  66.610  1.00  0.00    -0.125 C  
BRANCH  11  12
HETATM   12  C   UNL     1      -7.344  17.745  66.295  1.00  0.00    -0.299 A  
HETATM   13  C   UNL     1      -6.396  18.559  65.701  1.00  0.00    -0.273 A  
HETATM   14  N   UNL     1      -8.566  18.381  66.538  1.00  0.00    -0.275 NA 
HETATM   15  S   UNL     1      -7.027  20.124  65.435  1.00  0.00    -0.240 SA 
HETATM   16  C   UNL     1     -10.091  20.911  67.593  1.00  0.00    -0.057 C  
HETATM   17  C   UNL     1      -8.531  19.627  66.110  1.00  0.00    -0.334 A  
HETATM   18  C   UNL     1      -9.695  20.591  66.152  1.00  0.00    -0.164 C  
HETATM   19  C   UNL     1     -10.890  20.030  65.380  1.00  0.00    -0.084 C  
ENDBRANCH  11  12
ENDBRANCH   9  11
ENDBRANCH   7   9
ENDBRANCH   5   7
ENDBRANCH   3   5
BRANCH   3  20
HETATM   20  C   UNL     1      -7.150  13.969  69.139  1.00  0.00    -0.085 C  
HETATM   21  O   UNL     1      -8.240  14.323  68.693  1.00  0.00    -0.148 OA 
HETATM   22  N   UNL     1      -6.613  12.728  68.854  1.00  0.00    -0.090 N  
HETATM   23  H   UNL     1      -5.773  12.430  69.351  1.00  0.00     0.000 HD 
BRANCH  22  24
HETATM   24  C   UNL     1      -7.205  11.830  67.868  1.00  0.00    -0.092 C  
BRANCH  24  25
HETATM   25  C   UNL     1      -8.651  12.200  67.476  1.00  0.00    -0.171 C  
BRANCH  25  26
HETATM   26  C   UNL     1      -9.787  11.921  68.471  1.00  0.00    -0.183 C  
HETATM   27  H   UNL     1     -10.051  10.716  69.980  1.00  0.00     0.000 HD 
HETATM   28  O   UNL     1      -9.349  10.888  69.365  1.00  0.00    -0.079 OA 
BRANCH  26  29
HETATM   29  C   UNL     1     -11.169  11.534  67.862  1.00  0.00    -0.279 C  
BRANCH  29  30
HETATM   30  N   UNL     1     -11.849  10.475  68.608  1.00  0.00    -0.501 N  
HETATM   31  C   UNL     1     -11.997  10.551  69.967  1.00  0.00    -0.288 C  
HETATM   32  H   UNL     1     -12.220   9.667  68.107  1.00  0.00     0.000 HD 
HETATM   33  O   UNL     1     -12.028  11.592  70.593  1.00  0.00    -0.361 OA 
BRANCH  31  34
HETATM   34  O   UNL     1     -12.050   9.313  70.501  1.00  0.00    -0.168 OA 
BRANCH  34  35
HETATM   35  C   UNL     1     -11.034   8.389  70.061  1.00  0.00    -0.194 C  
BRANCH  35  36
HETATM   36  C   UNL     1     -10.703   7.393  71.122  1.00  0.00    -0.231 A  
HETATM   37  N   UNL     1     -10.696   6.310  73.201  1.00  0.00    -0.250 NA 
HETATM   38  C   UNL     1     -11.135   7.371  72.436  1.00  0.00    -0.287 A  
HETATM   39  C   UNL     1      -9.927   5.539  72.464  1.00  0.00    -0.169 A  
HETATM   40  S   UNL     1      -9.741   6.005  70.824  1.00  0.00    -0.177 SA 
ENDBRANCH  35  36
ENDBRANCH  34  35
ENDBRANCH  31  34
ENDBRANCH  29  30
BRANCH  29  41
HETATM   41  C   UNL     1     -12.103  12.772  67.651  1.00  0.00    -0.200 C  
BRANCH  41  42
HETATM   42  C   UNL     1     -11.593  13.879  66.751  1.00  0.00    -0.398 A  
HETATM   43  C   UNL     1     -11.376  14.881  64.540  1.00  0.00    -0.306 A  
HETATM   44  C   UNL     1     -11.702  13.804  65.357  1.00  0.00    -0.346 A  
HETATM   45  C   UNL     1     -11.030  15.034  67.301  1.00  0.00    -0.326 A  
HETATM   46  C   UNL     1     -10.675  16.113  66.480  1.00  0.00    -0.220 A  
HETATM   47  C   UNL     1     -10.866  16.042  65.101  1.00  0.00    -0.411 A  
ENDBRANCH  41  42
ENDBRANCH  29  41
ENDBRANCH  26  29
ENDBRANCH  25  26
ENDBRANCH  24  25
BRANCH  24  48
HETATM   48  C   UNL     1      -7.036  10.370  68.338  1.00  0.00    -0.078 C  
BRANCH  48  49
HETATM   49  C   UNL     1      -6.852   9.347  67.242  1.00  0.00    -0.084 A  
HETATM   50  C   UNL     1      -5.385   8.064  65.791  1.00  0.00    -0.028 A  
HETATM   51  C   UNL     1      -5.566   8.987  66.820  1.00  0.00    -0.040 A  
HETATM   52  C   UNL     1      -6.490   7.494  65.165  1.00  0.00    -0.041 A  
HETATM   53  C   UNL     1      -7.777   7.846  65.569  1.00  0.00    -0.101 A  
HETATM   54  C   UNL     1      -7.959   8.774  66.596  1.00  0.00    -0.100 A  
ENDBRANCH  48  49
ENDBRANCH  24  48
ENDBRANCH  22  24
ENDBRANCH   3  20
TORSDOF 18
ENDMDL
MODEL      111
REMARK 921   NORMALIZED FREE ENERGY PREDICTED BY IDOCK:    3.09 KCAL/MOL
REMARK 922        TOTAL FREE ENERGY PREDICTED BY IDOCK:    1.72 KCAL/MOL
REMARK 923 INTER-LIGAND FREE ENERGY PREDICTED BY IDOCK:   -3.74 KCAL/MOL
REMARK 924 INTRA-LIGAND FREE ENERGY PREDICTED BY IDOCK:    5.47 KCAL/MOL
REMARK 927      BINDING AFFINITY PREDICTED BY RF-SCORE:    0.00 PKD
ROOT
HETATM    1  C   UNL     1     -12.147  13.782  64.273  1.00  0.00    -0.481 C  
HETATM    2  C   UNL     1     -11.738  12.381  63.837  1.00  0.00    -0.529 C  
HETATM    3  C   UNL     1     -11.110  11.510  64.954  1.00  0.00    -0.215 C  
HETATM    4  C   UNL     1     -12.922  11.703  63.137  1.00  0.00     0.210 C  
ENDROOT
BRANCH   3   5
HETATM    5  N   UNL     1     -11.970  11.187  66.105  1.00  0.00     1.066 N  
HETATM    6  H   UNL     1     -12.969  11.065  65.944  1.00  0.00     0.000 HD 
BRANCH   5   7
HETATM    7  C   UNL     1     -11.492  11.043  67.378  1.00  0.00    -0.135 C  
HETATM    8  O   UNL     1     -11.531  11.963  68.191  1.00  0.00    -0.271 OA 
BRANCH   7   9
HETATM    9  N   UNL     1     -10.894   9.837  67.683  1.00  0.00    -0.279 N  
HETATM   10  C   UNL     1     -11.279   8.516  67.211  1.00  0.00     0.819 C  
BRANCH   9  11
HETATM   11  C   UNL     1      -9.703   9.875  68.542  1.00  0.00    -0.154 C  
BRANCH  11  12
HETATM   12  C   UNL     1     -10.005   9.379  69.931  1.00  0.00    -0.212 A  
HETATM   13  C   UNL     1      -9.072   9.070  70.905  1.00  0.00    -0.250 A  
HETATM   14  N   UNL     1     -11.331   9.267  70.360  1.00  0.00    -0.258 NA 
HETATM   15  S   UNL     1      -9.846   8.643  72.367  1.00  0.00    -0.159 SA 
HETATM   16  C   UNL     1     -13.503   7.610  71.901  1.00  0.00    -0.311 C  
HETATM   17  C   UNL     1     -11.379   8.909  71.628  1.00  0.00    -0.337 A  
HETATM   18  C   UNL     1     -12.645   8.753  72.439  1.00  0.00    -0.430 C  
HETATM   19  C   UNL     1     -13.441  10.060  72.454  1.00  0.00    -0.232 C  
ENDBRANCH  11  12
ENDBRANCH   9  11
ENDBRANCH   7   9
ENDBRANCH   5   7
ENDBRANCH   3   5
BRANCH   3  20
HETATM   20  C   UNL     1      -9.669  11.979  65.328  1.00  0.00    -0.164 C  
HETATM   21  O   UNL     1      -9.345  13.160  65.437  1.00  0.00     0.154 OA 
HETATM   22  N   UNL     1      -8.755  10.953  65.477  1.00  0.00    -0.222 N  
HETATM   23  H   UNL     1      -9.042  10.002  65.248  1.00  0.00     0.000 HD 
BRANCH  22  24
HETATM   24  C   UNL     1      -7.394  11.185  65.951  1.00  0.00     0.112 C  
BRANCH  24  25
HETATM   25  C   UNL     1      -6.414  10.041  65.616  1.00  0.00    -0.099 C  
BRANCH  25  26
HETATM   26  C   UNL     1      -6.421   8.776  66.485  1.00  0.00    -0.063 C  
HETATM   27  H   UNL     1      -5.411   8.141  68.028  1.00  0.00     0.000 HD 
HETATM   28  O   UNL     1      -5.407   8.924  67.490  1.00  0.00    -0.034 OA 
BRANCH  26  29
HETATM   29  C   UNL     1      -6.227   7.418  65.744  1.00  0.00    -0.038 C  
BRANCH  29  30
HETATM   30  N   UNL     1      -7.025   6.332  66.313  1.00  0.00    -0.065 N  
HETATM   31  C   UNL     1      -8.381   6.452  66.457  1.00  0.00    -0.115 C  
HETATM   32  H   UNL     1      -6.563   5.472  66.609  1.00  0.00     0.000 HD 
HETATM   33  O   UNL     1      -9.080   7.170  65.768  1.00  0.00    -0.080 OA 
BRANCH  31  34
HETATM   34  O   UNL     1      -8.809   5.704  67.495  1.00  0.00    -0.108 OA 
BRANCH  34  35
HETATM   35  C   UNL     1      -7.834   5.428  68.521  1.00  0.00    -0.088 C  
BRANCH  35  36
HETATM   36  C   UNL     1      -8.405   4.574  69.605  1.00  0.00    -0.069 A  
HETATM   37  N   UNL     1      -8.976   2.659  70.829  1.00  0.00    -0.084 NA 
HETATM   38  C   UNL     1      -8.397   3.195  69.697  1.00  0.00    -0.055 A  
HETATM   39  C   UNL     1      -9.426   3.637  71.584  1.00  0.00    -0.145 A  
HETATM   40  S   UNL     1      -9.131   5.228  71.014  1.00  0.00    -0.145 SA 
ENDBRANCH  35  36
ENDBRANCH  34  35
ENDBRANCH  31  34
ENDBRANCH  29  30
BRANCH  29  41
HETATM   41  C   UNL     1      -6.450   7.538  64.199  1.00  0.00    -0.048 C  
BRANCH  41  42
HETATM   42  C   UNL     1      -6.385   8.926  63.595  1.00  0.00    -0.088 A  
HETATM   43  C   UNL     1      -7.433  10.754  62.370  1.00  0.00    -0.138 A  
HETATM   44  C   UNL     1      -7.420   9.431  62.798  1.00  0.00    -0.107 A  
HETATM   45  C   UNL     1      -5.295   9.760  63.855  1.00  0.00    -0.078 A  
HETATM   46  C   UNL     1      -5.290  11.088  63.405  1.00  0.00     0.081 A  
HETATM   47  C   UNL     1      -6.370  11.588  62.678  1.00  0.00     0.943 A  
ENDBRANCH  41  42
ENDBRANCH  29  41
ENDBRANCH  26  29
ENDBRANCH  25  26
ENDBRANCH  24  25
BRANCH  24  48
HETATM   48  C   UNL     1      -7.429  11.564  67.446  1.00  0.00    -0.127 C  
BRANCH  48  49
HETATM   49  C   UNL     1      -7.555  13.039  67.744  1.00  0.00    -0.152 A  
HETATM   50  C   UNL     1      -6.619  15.281  67.688  1.00  0.00    -0.196 A  
HETATM   51  C   UNL     1      -6.525  13.921  67.393  1.00  0.00     0.082 A  
HETATM   52  C   UNL     1      -7.743  15.775  68.345  1.00  0.00    -0.128 A  
HETATM   53  C   UNL     1      -8.773  14.909  68.706  1.00  0.00    -0.182 A  
HETATM   54  C   UNL     1      -8.678  13.547  68.416  1.00  0.00    -0.140 A  
ENDBRANCH  48  49
ENDBRANCH  24  48
ENDBRANCH  22  24
ENDBRANCH   3  20
TORSDOF 18
ENDMDL
MODEL      112
REMARK 921   NORMALIZED FREE ENERGY PREDICTED BY IDOCK:    3.87 KCAL/MOL
REMARK 922        TOTAL FREE ENERGY PREDICTED BY IDOCK:    3.33 KCAL/MOL
REMARK 923 INTER-LIGAND FREE ENERGY PREDICTED BY IDOCK:    1.73 KCAL/MOL
REMARK 924 INTRA-LIGAND FREE ENERGY PREDICTED BY IDOCK:    1.60 KCAL/MOL
REMARK 927      BINDING AFFINITY PREDICTED BY RF-SCORE:    0.00 PKD
ROOT
HETATM    1  C   UNL     1      -7.612   6.980  63.839  1.00  0.00    -0.109 C  
HETATM    2  C   UNL     1      -8.889   7.748  64.160  1.00  0.00     0.711 C  
HETATM    3  C   UNL     1      -8.670   9.199  64.651  1.00  0.00    -0.166 C  
HETATM    4  C   UNL     1      -9.850   7.652  62.968  1.00  0.00     4.867 C  
ENDROOT
BRANCH   3   5
HETATM    5  N   UNL     1      -8.035  10.131  63.704  1.00  0.00    -0.160 N  
HETATM    6  H   UNL     1      -7.142   9.867  63.288  1.00  0.00     0.000 HD 
BRANCH   5   7
HETATM    7  C   UNL     1      -8.587  11.333  63.353  1.00  0.00     0.233 C  
HETATM    8  O   UNL     1      -8.226  11.940  62.348  1.00  0.00     0.117 OA 
BRANCH   7   9
HETATM    9  N   UNL     1      -9.513  11.868  64.225  1.00  0.00     0.004 N  
HETATM   10  C   UNL     1      -9.533  11.748  65.675  1.00  0.00    -0.192 C  
BRANCH   9  11
HETATM   11  C   UNL     1     -10.582  12.694  63.647  1.00  0.00    -0.342 C  
BRANCH  11  12
HETATM   12  C   UNL     1     -10.955  13.834  64.557  1.00  0.00    -0.391 A  
HETATM   13  C   UNL     1     -12.154  13.976  65.233  1.00  0.00    -0.408 A  
HETATM   14  N   UNL     1     -10.021  14.836  64.840  1.00  0.00    -0.205 NA 
HETATM   15  S   UNL     1     -12.121  15.361  66.234  1.00  0.00     0.803 SA 
HETATM   16  C   UNL     1      -9.426  17.891  65.234  1.00  0.00     1.597 C  
HETATM   17  C   UNL     1     -10.508  15.685  65.724  1.00  0.00    -0.366 A  
HETATM   18  C   UNL     1      -9.753  16.856  66.309  1.00  0.00    -0.301 C  
HETATM   19  C   UNL     1      -8.474  16.382  67.004  1.00  0.00    -0.226 C  
ENDBRANCH  11  12
ENDBRANCH   9  11
ENDBRANCH   7   9
ENDBRANCH   5   7
ENDBRANCH   3   5
BRANCH   3  20
HETATM   20  C   UNL     1      -8.093   9.252  66.101  1.00  0.00    -0.110 C  
HETATM   21  O   UNL     1      -7.042   9.819  66.395  1.00  0.00    -0.090 OA 
HETATM   22  N   UNL     1      -8.835   8.557  67.036  1.00  0.00    -0.130 N  
HETATM   23  H   UNL     1      -9.625   7.996  66.720  1.00  0.00     0.000 HD 
BRANCH  22  24
HETATM   24  C   UNL     1      -8.526   8.598  68.463  1.00  0.00    -0.131 C  
BRANCH  24  25
HETATM   25  C   UNL     1      -8.987   9.893  69.163  1.00  0.00    -0.170 C  
BRANCH  25  26
HETATM   26  C   UNL     1      -9.400   9.836  70.641  1.00  0.00     0.037 C  
HETATM   27  H   UNL     1      -8.514   9.382  72.317  1.00  0.00     0.000 HD 
HETATM   28  O   UNL     1      -8.259   9.418  71.403  1.00  0.00    -0.302 OA 
BRANCH  26  29
HETATM   29  C   UNL     1     -10.621   8.932  70.989  1.00  0.00    -0.247 C  
BRANCH  29  30
HETATM   30  N   UNL     1     -11.818   9.694  71.346  1.00  0.00    -0.379 N  
HETATM   31  C   UNL     1     -12.344  10.624  70.490  1.00  0.00    -0.359 C  
HETATM   32  H   UNL     1     -12.268   9.530  72.246  1.00  0.00     0.000 HD 
HETATM   33  O   UNL     1     -12.210  10.595  69.282  1.00  0.00    -0.280 OA 
BRANCH  31  34
HETATM   34  O   UNL     1     -12.980  11.591  71.184  1.00  0.00    -0.340 OA 
BRANCH  34  35
HETATM   35  C   UNL     1     -12.167  12.703  71.612  1.00  0.00     0.558 C  
BRANCH  35  36
HETATM   36  C   UNL     1     -11.409  13.297  70.471  1.00  0.00     0.643 A  
HETATM   37  N   UNL     1     -10.342  13.477  68.392  1.00  0.00    -0.244 NA 
HETATM   38  C   UNL     1     -11.010  12.680  69.299  1.00  0.00    -0.066 A  
HETATM   39  C   UNL     1     -10.232  14.690  68.885  1.00  0.00    -0.241 A  
HETATM   40  S   UNL     1     -10.965  14.952  70.415  1.00  0.00    -0.060 SA 
ENDBRANCH  35  36
ENDBRANCH  34  35
ENDBRANCH  31  34
ENDBRANCH  29  30
BRANCH  29  41
HETATM   41  C   UNL     1     -10.929   7.878  69.874  1.00  0.00    -0.179 C  
BRANCH  41  42
HETATM   42  C   UNL     1     -10.399   6.474  70.081  1.00  0.00    -0.241 A  
HETATM   43  C   UNL     1      -9.647   4.691  71.563  1.00  0.00    -0.225 A  
HETATM   44  C   UNL     1      -9.989   6.020  71.341  1.00  0.00    -0.223 A  
HETATM   45  C   UNL     1     -10.342   5.575  69.013  1.00  0.00    -0.304 A  
HETATM   46  C   UNL     1      -9.974   4.239  69.226  1.00  0.00    -0.086 A  
HETATM   47  C   UNL     1      -9.644   3.794  70.505  1.00  0.00    -0.262 A  
ENDBRANCH  41  42
ENDBRANCH  29  41
ENDBRANCH  26  29
ENDBRANCH  25  26
ENDBRANCH  24  25
BRANCH  24  48
HETATM   48  C   UNL     1      -7.034   8.267  68.674  1.00  0.00    -0.068 C  
BRANCH  48  49
HETATM   49  C   UNL     1      -6.740   6.887  69.210  1.00  0.00    -0.050 A  
HETATM   50  C   UNL     1      -6.215   5.427  71.081  1.00  0.00    -0.033 A  
HETATM   51  C   UNL     1      -6.514   6.694  70.579  1.00  0.00    -0.047 A  
HETATM   52  C   UNL     1      -6.130   4.338  70.218  1.00  0.00    -0.018 A  
HETATM   53  C   UNL     1      -6.346   4.515  68.852  1.00  0.00    -0.032 A  
HETATM   54  C   UNL     1      -6.641   5.783  68.348  1.00  0.00    -0.052 A  
ENDBRANCH  48  49
ENDBRANCH  24  48
ENDBRANCH  22  24
ENDBRANCH   3  20
TORSDOF 18
ENDMDL
MODEL      113
REMARK 921   NORMALIZED FREE ENERGY PREDICTED BY IDOCK:    4.03 KCAL/MOL
REMARK 922        TOTAL FREE ENERGY PREDICTED BY IDOCK:    3.66 KCAL/MOL
REMARK 923 INTER-LIGAND FREE ENERGY PREDICTED BY IDOCK:   -0.47 KCAL/MOL
REMARK 924 INTRA-LIGAND FREE ENERGY PREDICTED BY IDOCK:    4.13 KCAL/MOL
REMARK 927      BINDING AFFINITY PREDICTED BY RF-SCORE:    0.00 PKD
ROOT
HETATM    1  C   UNL     1      -7.593  14.555  72.656  1.00  0.00     5.508 C  
HETATM    2  C   UNL     1      -6.479  13.995  71.780  1.00  0.00     1.155 C  
HETATM    3  C   UNL     1      -6.532  14.439  70.298  1.00  0.00    -0.130 C  
HETATM    4  C   UNL     1      -5.125  14.272  72.446  1.00  0.00    -0.227 C  
ENDROOT
BRANCH   3   5
HETATM    5  N   UNL     1      -6.378  15.879  70.031  1.00  0.00    -0.139 N  
HETATM    6  H   UNL     1      -6.685  16.540  70.744  1.00  0.00     0.000 HD 
BRANCH   5   7
HETATM    7  C   UNL     1      -5.842  16.373  68.873  1.00  0.00    -0.132 C  
HETATM    8  O   UNL     1      -5.302  17.475  68.830  1.00  0.00    -0.151 OA 
BRANCH   7   9
HETATM    9  N   UNL     1      -6.005  15.605  67.738  1.00  0.00    -0.144 N  
HETATM   10  C   UNL     1      -5.412  14.307  67.457  1.00  0.00     0.216 C  
BRANCH   9  11
HETATM   11  C   UNL     1      -6.914  16.118  66.704  1.00  0.00     0.070 C  
BRANCH  11  12
HETATM   12  C   UNL     1      -7.159  17.595  66.865  1.00  0.00    -0.185 A  
HETATM   13  C   UNL     1      -6.194  18.587  66.847  1.00  0.00    -0.173 A  
HETATM   14  N   UNL     1      -8.467  18.078  66.976  1.00  0.00    -0.231 NA 
HETATM   15  S   UNL     1      -6.916  20.132  66.962  1.00  0.00    -0.248 SA 
HETATM   16  C   UNL     1     -10.473  20.043  68.374  1.00  0.00    -0.369 C  
HETATM   17  C   UNL     1      -8.472  19.396  67.013  1.00  0.00    -0.287 A  
HETATM   18  C   UNL     1      -9.713  20.258  67.067  1.00  0.00    -0.598 C  
HETATM   19  C   UNL     1     -10.619  19.976  65.867  1.00  0.00    -0.459 C  
ENDBRANCH  11  12
ENDBRANCH   9  11
ENDBRANCH   7   9
ENDBRANCH   5   7
ENDBRANCH   3   5
BRANCH   3  20
HETATM   20  C   UNL     1      -7.697  13.753  69.517  1.00  0.00     0.513 C  
HETATM   21  O   UNL     1      -8.661  14.364  69.059  1.00  0.00    -0.107 OA 
HETATM   22  N   UNL     1      -7.591  12.379  69.423  1.00  0.00    -0.229 N  
HETATM   23  H   UNL     1      -6.843  11.908  69.930  1.00  0.00     0.000 HD 
BRANCH  22  24
HETATM   24  C   UNL     1      -8.513  11.579  68.622  1.00  0.00    -0.115 C  
BRANCH  24  25
HETATM   25  C   UNL     1      -9.488  12.418  67.770  1.00  0.00    -0.199 C  
BRANCH  25  26
HETATM   26  C   UNL     1     -10.656  13.134  68.462  1.00  0.00    -0.259 C  
HETATM   27  H   UNL     1     -12.075  12.614  69.693  1.00  0.00     0.000 HD 
HETATM   28  O   UNL     1     -11.352  12.171  69.265  1.00  0.00    -0.256 OA 
BRANCH  26  29
HETATM   29  C   UNL     1     -11.669  13.873  67.536  1.00  0.00    -0.380 C  
BRANCH  29  30
HETATM   30  N   UNL     1     -12.331  15.001  68.192  1.00  0.00    -0.472 N  
HETATM   31  C   UNL     1     -11.605  16.004  68.776  1.00  0.00    -0.351 C  
HETATM   32  H   UNL     1     -13.350  15.041  68.214  1.00  0.00     0.000 HD 
HETATM   33  O   UNL     1     -10.478  16.315  68.443  1.00  0.00    -0.256 OA 
BRANCH  31  34
HETATM   34  O   UNL     1     -12.300  16.551  69.795  1.00  0.00     0.327 OA 
BRANCH  34  35
HETATM   35  C   UNL     1     -13.411  15.777  70.292  1.00  0.00     0.674 C  
BRANCH  35  36
HETATM   36  C   UNL     1     -13.011  14.928  71.453  1.00  0.00    -0.354 A  
HETATM   37  N   UNL     1     -12.960  13.122  72.946  1.00  0.00    -0.050 NA 
HETATM   38  C   UNL     1     -13.541  13.711  71.841  1.00  0.00    -0.427 A  
HETATM   39  C   UNL     1     -12.000  13.901  73.392  1.00  0.00     1.485 A  
HETATM   40  S   UNL     1     -11.706  15.330  72.490  1.00  0.00    -0.387 SA 
ENDBRANCH  35  36
ENDBRANCH  34  35
ENDBRANCH  31  34
ENDBRANCH  29  30
BRANCH  29  41
HETATM   41  C   UNL     1     -11.036  14.301  66.170  1.00  0.00    -0.324 C  
BRANCH  41  42
HETATM   42  C   UNL     1     -10.970  13.253  65.078  1.00  0.00    -0.328 A  
HETATM   43  C   UNL     1     -12.050  11.949  63.325  1.00  0.00    -0.466 A  
HETATM   44  C   UNL     1     -12.122  12.795  64.426  1.00  0.00    -0.484 A  
HETATM   45  C   UNL     1      -9.738  12.740  64.664  1.00  0.00     0.088 A  
HETATM   46  C   UNL     1      -9.661  11.867  63.570  1.00  0.00    -0.287 A  
HETATM   47  C   UNL     1     -10.817  11.487  62.890  1.00  0.00     0.093 A  
ENDBRANCH  41  42
ENDBRANCH  29  41
ENDBRANCH  26  29
ENDBRANCH  25  26
ENDBRANCH  24  25
BRANCH  24  48
HETATM   48  C   UNL     1      -9.205  10.538  69.525  1.00  0.00    -0.072 C  
BRANCH  48  49
HETATM   49  C   UNL     1      -9.725   9.305  68.824  1.00  0.00    -0.162 A  
HETATM   50  C   UNL     1     -10.952   7.209  68.893  1.00  0.00    -0.109 A  
HETATM   51  C   UNL     1     -10.490   8.363  69.524  1.00  0.00    -0.225 A  
HETATM   52  C   UNL     1     -10.648   6.978  67.554  1.00  0.00    -0.351 A  
HETATM   53  C   UNL     1      -9.884   7.903  66.845  1.00  0.00    -0.309 A  
HETATM   54  C   UNL     1      -9.416   9.057  67.477  1.00  0.00    -0.168 A  
ENDBRANCH  48  49
ENDBRANCH  24  48
ENDBRANCH  22  24
ENDBRANCH   3  20
TORSDOF 18
ENDMDL
MODEL      114
REMARK 921   NORMALIZED FREE ENERGY PREDICTED BY IDOCK:    4.06 KCAL/MOL
REMARK 922        TOTAL FREE ENERGY PREDICTED BY IDOCK:    3.71 KCAL/MOL
REMARK 923 INTER-LIGAND FREE ENERGY PREDICTED BY IDOCK:   -2.63 KCAL/MOL
REMARK 924 INTRA-LIGAND FREE ENERGY PREDICTED BY IDOCK:    6.34 KCAL/MOL
REMARK 927      BINDING AFFINITY PREDICTED BY RF-SCORE:    0.00 PKD
ROOT
HETATM    1  C   UNL     1      -5.131  12.878  70.018  1.00  0.00    -0.089 C  
HETATM    2  C   UNL     1      -6.046  12.107  70.962  1.00  0.00     0.674 C  
HETATM    3  C   UNL     1      -6.429  10.687  70.480  1.00  0.00    -0.040 C  
HETATM    4  C   UNL     1      -5.447  12.125  72.374  1.00  0.00     0.812 C  
ENDROOT
BRANCH   3   5
HETATM    5  N   UNL     1      -5.330   9.718  70.331  1.00  0.00    -0.036 N  
HETATM    6  H   UNL     1      -4.372  10.056  70.414  1.00  0.00     0.000 HD 
BRANCH   5   7
HETATM    7  C   UNL     1      -5.534   8.387  70.088  1.00  0.00    -0.022 C  
HETATM    8  O   UNL     1      -5.244   7.528  70.917  1.00  0.00    -0.026 OA 
BRANCH   7   9
HETATM    9  N   UNL     1      -6.008   8.051  68.837  1.00  0.00    -0.038 N  
HETATM   10  C   UNL     1      -5.226   7.697  67.662  1.00  0.00    -0.030 C  
BRANCH   9  11
HETATM   11  C   UNL     1      -7.465   7.991  68.664  1.00  0.00    -0.098 C  
BRANCH  11  12
HETATM   12  C   UNL     1      -7.929   6.597  68.335  1.00  0.00    -0.111 A  
HETATM   13  C   UNL     1      -7.830   5.491  69.161  1.00  0.00    -0.091 A  
HETATM   14  N   UNL     1      -8.590   6.346  67.128  1.00  0.00    -0.111 NA 
HETATM   15  S   UNL     1      -8.570   4.131  68.438  1.00  0.00    -0.098 SA 
HETATM   16  C   UNL     1      -8.991   4.469  64.648  1.00  0.00    -0.152 C  
HETATM   17  C   UNL     1      -8.995   5.093  67.074  1.00  0.00    -0.112 A  
HETATM   18  C   UNL     1      -9.797   4.488  65.945  1.00  0.00    -0.236 C  
HETATM   19  C   UNL     1     -11.111   5.247  65.749  1.00  0.00     0.308 C  
ENDBRANCH  11  12
ENDBRANCH   9  11
ENDBRANCH   7   9
ENDBRANCH   5   7
ENDBRANCH   3   5
BRANCH   3  20
HETATM   20  C   UNL     1      -7.435  10.719  69.287  1.00  0.00    -0.135 C  
HETATM   21  O   UNL     1      -7.092  10.674  68.107  1.00  0.00    -0.079 OA 
HETATM   22  N   UNL     1      -8.758  10.859  69.658  1.00  0.00    -0.321 N  
HETATM   23  H   UNL     1      -8.979  11.023  70.640  1.00  0.00     0.000 HD 
BRANCH  22  24
HETATM   24  C   UNL     1      -9.852  10.779  68.694  1.00  0.00    -0.184 C  
BRANCH  24  25
HETATM   25  C   UNL     1      -9.623  11.622  67.422  1.00  0.00    -0.173 C  
BRANCH  25  26
HETATM   26  C   UNL     1      -8.919  12.980  67.544  1.00  0.00    -0.193 C  
HETATM   27  H   UNL     1      -8.270  14.085  69.014  1.00  0.00     0.000 HD 
HETATM   28  O   UNL     1      -8.705  13.244  68.938  1.00  0.00     0.074 OA 
BRANCH  26  29
HETATM   29  C   UNL     1      -9.634  14.199  66.885  1.00  0.00    -0.270 C  
BRANCH  29  30
HETATM   30  N   UNL     1      -8.781  15.385  66.792  1.00  0.00    -0.249 N  
HETATM   31  C   UNL     1      -7.474  15.348  67.195  1.00  0.00    -0.189 C  
HETATM   32  H   UNL     1      -9.168  16.253  66.421  1.00  0.00     0.000 HD 
HETATM   33  O   UNL     1      -6.792  14.342  67.211  1.00  0.00    -0.234 OA 
BRANCH  31  34
HETATM   34  O   UNL     1      -7.079  16.569  67.612  1.00  0.00    -0.119 OA 
BRANCH  34  35
HETATM   35  C   UNL     1      -8.016  17.289  68.439  1.00  0.00    -0.253 C  
BRANCH  35  36
HETATM   36  C   UNL     1      -8.582  18.471  67.723  1.00  0.00    -0.271 A  
HETATM   37  N   UNL     1      -8.862  20.131  66.092  1.00  0.00    -0.256 NA 
HETATM   38  C   UNL     1      -8.128  19.058  66.555  1.00  0.00    -0.289 A  
HETATM   39  C   UNL     1      -9.861  20.355  66.916  1.00  0.00    -0.431 A  
HETATM   40  S   UNL     1     -10.008  19.271  68.237  1.00  0.00    -0.434 SA 
ENDBRANCH  35  36
ENDBRANCH  34  35
ENDBRANCH  31  34
ENDBRANCH  29  30
BRANCH  29  41
HETATM   41  C   UNL     1     -10.272  13.847  65.500  1.00  0.00    -0.348 C  
BRANCH  41  42
HETATM   42  C   UNL     1      -9.686  12.672  64.746  1.00  0.00     0.053 A  
HETATM   43  C   UNL     1      -9.630  11.231  62.781  1.00  0.00    -0.327 A  
HETATM   44  C   UNL     1     -10.250  12.207  63.552  1.00  0.00    -0.453 A  
HETATM   45  C   UNL     1      -8.530  12.038  65.211  1.00  0.00     1.001 A  
HETATM   46  C   UNL     1      -7.913  11.036  64.451  1.00  0.00     0.482 A  
HETATM   47  C   UNL     1      -8.454  10.646  63.227  1.00  0.00    -0.119 A  
ENDBRANCH  41  42
ENDBRANCH  29  41
ENDBRANCH  26  29
ENDBRANCH  25  26
ENDBRANCH  24  25
BRANCH  24  48
HETATM   48  C   UNL     1     -11.188  11.071  69.408  1.00  0.00    -0.332 C  
BRANCH  48  49
HETATM   49  C   UNL     1     -11.526  12.532  69.590  1.00  0.00    -0.255 A  
HETATM   50  C   UNL     1     -12.507  14.583  68.732  1.00  0.00     0.103 A  
HETATM   51  C   UNL     1     -12.213  13.228  68.586  1.00  0.00    -0.115 A  
HETATM   52  C   UNL     1     -12.112  15.262  69.882  1.00  0.00    -0.375 A  
HETATM   53  C   UNL     1     -11.423  14.585  70.886  1.00  0.00    -0.165 A  
HETATM   54  C   UNL     1     -11.123  13.229  70.739  1.00  0.00     1.727 A  
ENDBRANCH  48  49
ENDBRANCH  24  48
ENDBRANCH  22  24
ENDBRANCH   3  20
TORSDOF 18
ENDMDL
MODEL      115
REMARK 921   NORMALIZED FREE ENERGY PREDICTED BY IDOCK:    6.03 KCAL/MOL
REMARK 922        TOTAL FREE ENERGY PREDICTED BY IDOCK:    7.76 KCAL/MOL
REMARK 923 INTER-LIGAND FREE ENERGY PREDICTED BY IDOCK:    3.89 KCAL/MOL
REMARK 924 INTRA-LIGAND FREE ENERGY PREDICTED BY IDOCK:    3.87 KCAL/MOL
REMARK 927      BINDING AFFINITY PREDICTED BY RF-SCORE:    0.00 PKD
ROOT
HETATM    1  C   UNL     1     -10.405   4.223  69.578  1.00  0.00     0.499 C  
HETATM    2  C   UNL     1      -9.415   4.446  70.715  1.00  0.00    -0.243 C  
HETATM    3  C   UNL     1      -9.330   5.905  71.226  1.00  0.00    -0.156 C  
HETATM    4  C   UNL     1      -9.689   3.430  71.831  1.00  0.00    -0.235 C  
ENDROOT
BRANCH   3   5
HETATM    5  N   UNL     1     -10.550   6.470  71.826  1.00  0.00    -0.212 N  
HETATM    6  H   UNL     1     -10.556   7.459  72.073  1.00  0.00     0.000 HD 
BRANCH   5   7
HETATM    7  C   UNL     1     -11.676   5.732  72.068  1.00  0.00    -0.110 C  
HETATM    8  O   UNL     1     -11.633   4.510  72.190  1.00  0.00     0.515 OA 
BRANCH   7   9
HETATM    9  N   UNL     1     -12.873   6.418  72.091  1.00  0.00    -0.085 N  
HETATM   10  C   UNL     1     -13.814   6.515  73.197  1.00  0.00     2.599 C  
BRANCH   9  11
HETATM   11  C   UNL     1     -13.235   7.180  70.889  1.00  0.00     0.046 C  
BRANCH  11  12
HETATM   12  C   UNL     1     -13.506   8.627  71.210  1.00  0.00    -0.141 A  
HETATM   13  C   UNL     1     -14.395   9.096  72.160  1.00  0.00    -0.192 A  
HETATM   14  N   UNL     1     -12.771   9.632  70.573  1.00  0.00    -0.009 NA 
HETATM   15  S   UNL     1     -14.316  10.800  72.269  1.00  0.00     1.530 SA 
HETATM   16  C   UNL     1     -12.751  12.447  69.187  1.00  0.00     0.943 C  
HETATM   17  C   UNL     1     -13.091  10.816  71.058  1.00  0.00    -0.248 A  
HETATM   18  C   UNL     1     -12.451  12.123  70.649  1.00  0.00    -0.330 C  
HETATM   19  C   UNL     1     -10.941  12.085  70.891  1.00  0.00     2.732 C  
ENDBRANCH  11  12
ENDBRANCH   9  11
ENDBRANCH   7   9
ENDBRANCH   5   7
ENDBRANCH   3   5
BRANCH   3  20
HETATM   20  C   UNL     1      -8.607   6.845  70.210  1.00  0.00    -0.140 C  
HETATM   21  O   UNL     1      -7.387   6.992  70.169  1.00  0.00    -0.077 OA 
HETATM   22  N   UNL     1      -9.457   7.554  69.384  1.00  0.00    -0.155 N  
HETATM   23  H   UNL     1     -10.462   7.496  69.545  1.00  0.00     0.000 HD 
BRANCH  22  24
HETATM   24  C   UNL     1      -8.966   8.383  68.286  1.00  0.00    -0.139 C  
BRANCH  24  25
HETATM   25  C   UNL     1      -9.627   9.775  68.213  1.00  0.00    -0.155 C  
BRANCH  25  26
HETATM   26  C   UNL     1      -8.789  11.017  68.546  1.00  0.00    -0.159 C  
HETATM   27  H   UNL     1      -9.164  12.817  69.195  1.00  0.00     0.000 HD 
HETATM   28  O   UNL     1      -9.683  12.048  68.989  1.00  0.00     0.018 OA 
BRANCH  26  29
HETATM   29  C   UNL     1      -7.877  11.570  67.408  1.00  0.00    -0.143 C  
BRANCH  29  30
HETATM   30  N   UNL     1      -6.794  12.422  67.902  1.00  0.00    -0.087 N  
HETATM   31  C   UNL     1      -6.778  13.765  67.640  1.00  0.00    -0.176 C  
HETATM   32  H   UNL     1      -6.040  12.007  68.449  1.00  0.00     0.000 HD 
HETATM   33  O   UNL     1      -7.771  14.432  67.425  1.00  0.00    -0.180 OA 
BRANCH  31  34
HETATM   34  O   UNL     1      -5.507  14.219  67.607  1.00  0.00    -0.311 OA 
BRANCH  34  35
HETATM   35  C   UNL     1      -5.284  15.422  66.843  1.00  0.00     1.077 C  
BRANCH  35  36
HETATM   36  C   UNL     1      -6.057  16.573  67.396  1.00  0.00    -0.161 A  
HETATM   37  N   UNL     1      -6.865  18.148  68.933  1.00  0.00    -0.252 NA 
HETATM   38  C   UNL     1      -6.078  17.038  68.699  1.00  0.00    -0.150 A  
HETATM   39  C   UNL     1      -7.441  18.511  67.809  1.00  0.00    -0.230 A  
HETATM   40  S   UNL     1      -7.029  17.592  66.419  1.00  0.00    -0.293 SA 
ENDBRANCH  35  36
ENDBRANCH  34  35
ENDBRANCH  31  34
ENDBRANCH  29  30
BRANCH  29  41
HETATM   41  C   UNL     1      -7.331  10.441  66.472  1.00  0.00    -0.119 C  
BRANCH  41  42
HETATM   42  C   UNL     1      -8.009  10.267  65.129  1.00  0.00    -0.147 A  
HETATM   43  C   UNL     1      -9.141  11.212  63.188  1.00  0.00    -0.243 A  
HETATM   44  C   UNL     1      -8.652  11.331  64.484  1.00  0.00     0.357 A  
HETATM   45  C   UNL     1      -7.975   9.032  64.474  1.00  0.00    -0.131 A  
HETATM   46  C   UNL     1      -8.489   8.899  63.177  1.00  0.00    -0.162 A  
HETATM   47  C   UNL     1      -9.055   9.996  62.528  1.00  0.00    -0.309 A  
ENDBRANCH  41  42
ENDBRANCH  29  41
ENDBRANCH  26  29
ENDBRANCH  25  26
ENDBRANCH  24  25
BRANCH  24  48
HETATM   48  C   UNL     1      -9.037   7.584  66.969  1.00  0.00    -0.156 C  
BRANCH  48  49
HETATM   49  C   UNL     1      -7.975   6.525  66.788  1.00  0.00    -0.108 A  
HETATM   50  C   UNL     1      -5.629   5.894  66.715  1.00  0.00    -0.013 A  
HETATM   51  C   UNL     1      -6.619   6.858  66.906  1.00  0.00    -0.047 A  
HETATM   52  C   UNL     1      -5.983   4.586  66.396  1.00  0.00    -0.027 A  
HETATM   53  C   UNL     1      -7.328   4.241  66.269  1.00  0.00    -0.080 A  
HETATM   54  C   UNL     1      -8.319   5.206  66.456  1.00  0.00    -0.108 A  
ENDBRANCH  48  49
ENDBRANCH  24  48
ENDBRANCH  22  24
ENDBRANCH   3  20
TORSDOF 18
ENDMDL
MODEL      116
REMARK 921   NORMALIZED FREE ENERGY PREDICTED BY IDOCK:    6.67 KCAL/MOL
REMARK 922        TOTAL FREE ENERGY PREDICTED BY IDOCK:    9.07 KCAL/MOL
REMARK 923 INTER-LIGAND FREE ENERGY PREDICTED BY IDOCK:   -1.29 KCAL/MOL
REMARK 924 INTRA-LIGAND FREE ENERGY PREDICTED BY IDOCK:   10.36 KCAL/MOL
REMARK 927      BINDING AFFINITY PREDICTED BY RF-SCORE:    0.00 PKD
ROOT
HETATM    1  C   UNL     1     -13.363   8.155  72.204  1.00  0.00    -0.249 C  
HETATM    2  C   UNL     1     -11.892   7.789  72.356  1.00  0.00    -0.371 C  
HETATM    3  C   UNL     1     -10.955   8.402  71.286  1.00  0.00    -0.252 C  
HETATM    4  C   UNL     1     -11.443   8.085  73.793  1.00  0.00     2.265 C  
ENDROOT
BRANCH   3   5
HETATM    5  N   UNL     1     -10.859   9.871  71.253  1.00  0.00    -0.241 N  
HETATM    6  H   UNL     1      -9.959  10.302  71.462  1.00  0.00     0.000 HD 
BRANCH   5   7
HETATM    7  C   UNL     1     -11.917  10.684  70.954  1.00  0.00    -0.363 C  
HETATM    8  O   UNL     1     -13.050  10.236  70.792  1.00  0.00    -0.381 OA 
BRANCH   7   9
HETATM    9  N   UNL     1     -11.637  12.023  70.768  1.00  0.00     0.368 N  
HETATM   10  C   UNL     1     -10.355  12.617  70.425  1.00  0.00     3.287 C  
BRANCH   9  11
HETATM   11  C   UNL     1     -12.758  12.966  70.877  1.00  0.00    -0.207 C  
BRANCH  11  12
HETATM   12  C   UNL     1     -12.282  14.394  70.898  1.00  0.00    -0.342 A  
HETATM   13  C   UNL     1     -12.402  15.276  71.958  1.00  0.00    -0.365 A  
HETATM   14  N   UNL     1     -11.585  14.914  69.803  1.00  0.00    -0.285 NA 
HETATM   15  S   UNL     1     -11.638  16.760  71.595  1.00  0.00     0.673 SA 
HETATM   16  C   UNL     1     -11.108  17.318  67.844  1.00  0.00    -0.053 C  
HETATM   17  C   UNL     1     -11.176  16.141  70.056  1.00  0.00    -0.357 A  
HETATM   18  C   UNL     1     -10.340  16.987  69.122  1.00  0.00    -0.313 C  
HETATM   19  C   UNL     1      -9.023  16.282  68.790  1.00  0.00    -0.243 C  
ENDBRANCH  11  12
ENDBRANCH   9  11
ENDBRANCH   7   9
ENDBRANCH   5   7
ENDBRANCH   3   5
BRANCH   3  20
HETATM   20  C   UNL     1     -11.135   7.729  69.889  1.00  0.00    -0.136 C  
HETATM   21  O   UNL     1     -11.677   6.637  69.724  1.00  0.00    -0.332 OA 
HETATM   22  N   UNL     1     -10.582   8.436  68.839  1.00  0.00    -0.358 N  
HETATM   23  H   UNL     1     -10.030   9.269  69.042  1.00  0.00     0.000 HD 
BRANCH  22  24
HETATM   24  C   UNL     1     -10.761   8.032  67.447  1.00  0.00    -0.190 C  
BRANCH  24  25
HETATM   25  C   UNL     1     -10.631   6.512  67.218  1.00  0.00    -0.383 C  
BRANCH  25  26
HETATM   26  C   UNL     1      -9.231   5.896  67.079  1.00  0.00    -0.119 C  
HETATM   27  H   UNL     1      -8.304   4.360  67.843  1.00  0.00     0.000 HD 
HETATM   28  O   UNL     1      -9.170   4.741  67.928  1.00  0.00    -0.113 OA 
BRANCH  26  29
HETATM   29  C   UNL     1      -8.023   6.833  67.384  1.00  0.00    -0.114 C  
BRANCH  29  30
HETATM   30  N   UNL     1      -6.862   6.120  67.918  1.00  0.00    -0.064 N  
HETATM   31  C   UNL     1      -6.805   4.752  67.901  1.00  0.00    -0.056 C  
HETATM   32  H   UNL     1      -6.084   6.650  68.310  1.00  0.00     0.000 HD 
HETATM   33  O   UNL     1      -7.395   4.053  67.101  1.00  0.00    -0.067 OA 
BRANCH  31  34
HETATM   34  O   UNL     1      -6.046   4.304  68.924  1.00  0.00    -0.028 OA 
BRANCH  34  35
HETATM   35  C   UNL     1      -6.679   4.286  70.220  1.00  0.00    -0.033 C  
BRANCH  35  36
HETATM   36  C   UNL     1      -6.473   5.574  70.947  1.00  0.00    -0.035 A  
HETATM   37  N   UNL     1      -5.547   7.153  72.412  1.00  0.00    -0.037 NA 
HETATM   38  C   UNL     1      -5.537   5.862  71.924  1.00  0.00    -0.022 A  
HETATM   39  C   UNL     1      -6.496   7.832  71.808  1.00  0.00    -0.043 A  
HETATM   40  S   UNL     1      -7.374   6.990  70.597  1.00  0.00    -0.077 SA 
ENDBRANCH  35  36
ENDBRANCH  34  35
ENDBRANCH  31  34
ENDBRANCH  29  30
BRANCH  29  41
HETATM   41  C   UNL     1      -7.628   7.725  66.161  1.00  0.00    -0.087 C  
BRANCH  41  42
HETATM   42  C   UNL     1      -7.040   7.025  64.953  1.00  0.00    -0.064 A  
HETATM   43  C   UNL     1      -5.734   7.085  62.896  1.00  0.00    -0.040 A  
HETATM   44  C   UNL     1      -6.405   7.734  63.926  1.00  0.00    -0.058 A  
HETATM   45  C   UNL     1      -7.084   5.631  64.853  1.00  0.00    -0.060 A  
HETATM   46  C   UNL     1      -6.430   4.972  63.803  1.00  0.00    -0.026 A  
HETATM   47  C   UNL     1      -5.739   5.700  62.836  1.00  0.00    -0.014 A  
ENDBRANCH  41  42
ENDBRANCH  29  41
ENDBRANCH  26  29
ENDBRANCH  25  26
ENDBRANCH  24  25
BRANCH  24  48
HETATM   48  C   UNL     1      -9.845   8.884  66.544  1.00  0.00    -0.344 C  
BRANCH  48  49
HETATM   49  C   UNL     1      -9.367  10.186  67.140  1.00  0.00    -0.176 A  
HETATM   50  C   UNL     1      -8.153  11.384  68.872  1.00  0.00    -0.067 A  
HETATM   51  C   UNL     1      -8.577  10.186  68.298  1.00  0.00    -0.116 A  
HETATM   52  C   UNL     1      -8.520  12.599  68.300  1.00  0.00    -0.163 A  
HETATM   53  C   UNL     1      -9.311  12.616  67.152  1.00  0.00    -0.210 A  
HETATM   54  C   UNL     1      -9.740  11.417  66.579  1.00  0.00    -0.226 A  
ENDBRANCH  48  49
ENDBRANCH  24  48
ENDBRANCH  22  24
ENDBRANCH   3  20
TORSDOF 18
ENDMDL
MODEL      117
REMARK 921   NORMALIZED FREE ENERGY PREDICTED BY IDOCK:    6.71 KCAL/MOL
REMARK 922        TOTAL FREE ENERGY PREDICTED BY IDOCK:    9.16 KCAL/MOL
REMARK 923 INTER-LIGAND FREE ENERGY PREDICTED BY IDOCK:    2.64 KCAL/MOL
REMARK 924 INTRA-LIGAND FREE ENERGY PREDICTED BY IDOCK:    6.53 KCAL/MOL
REMARK 927      BINDING AFFINITY PREDICTED BY RF-SCORE:    0.00 PKD
ROOT
HETATM    1  C   UNL     1      -5.495  13.030  70.475  1.00  0.00    -0.159 C  
HETATM    2  C   UNL     1      -6.570  12.345  71.311  1.00  0.00     2.769 C  
HETATM    3  C   UNL     1      -6.971  10.931  70.822  1.00  0.00     1.177 C  
HETATM    4  C   UNL     1      -6.161  12.380  72.789  1.00  0.00     3.071 C  
ENDROOT
BRANCH   3   5
HETATM    5  N   UNL     1      -5.922   9.899  70.847  1.00  0.00    -0.087 N  
HETATM    6  H   UNL     1      -5.011  10.142  71.237  1.00  0.00     0.000 HD 
BRANCH   5   7
HETATM    7  C   UNL     1      -6.109   8.630  70.373  1.00  0.00    -0.031 C  
HETATM    8  O   UNL     1      -5.292   8.090  69.631  1.00  0.00    -0.023 OA 
BRANCH   7   9
HETATM    9  N   UNL     1      -7.298   8.013  70.706  1.00  0.00    -0.055 N  
HETATM   10  C   UNL     1      -8.474   7.852  69.865  1.00  0.00    -0.127 C  
BRANCH   9  11
HETATM   11  C   UNL     1      -7.389   7.402  72.039  1.00  0.00    -0.072 C  
BRANCH  11  12
HETATM   12  C   UNL     1      -7.160   5.914  71.984  1.00  0.00    -0.087 A  
HETATM   13  C   UNL     1      -6.026   5.283  71.505  1.00  0.00    -0.025 A  
HETATM   14  N   UNL     1      -8.114   5.041  72.515  1.00  0.00    -0.107 NA 
HETATM   15  S   UNL     1      -6.140   3.592  71.721  1.00  0.00    -0.014 SA 
HETATM   16  C   UNL     1      -9.733   2.369  72.232  1.00  0.00    -0.197 C  
HETATM   17  C   UNL     1      -7.685   3.796  72.455  1.00  0.00    -0.068 A  
HETATM   18  C   UNL     1      -8.429   2.595  72.994  1.00  0.00    -0.071 C  
HETATM   19  C   UNL     1      -8.703   2.757  74.491  1.00  0.00    -0.080 C  
ENDBRANCH  11  12
ENDBRANCH   9  11
ENDBRANCH   7   9
ENDBRANCH   5   7
ENDBRANCH   3   5
BRANCH   3  20
HETATM   20  C   UNL     1      -7.809  10.977  69.506  1.00  0.00     0.096 C  
HETATM   21  O   UNL     1      -7.320  10.859  68.384  1.00  0.00    -0.085 OA 
HETATM   22  N   UNL     1      -9.156  11.218  69.694  1.00  0.00     0.062 N  
HETATM   23  H   UNL     1      -9.491  11.438  70.632  1.00  0.00     0.000 HD 
BRANCH  22  24
HETATM   24  C   UNL     1     -10.118  11.167  68.597  1.00  0.00    -0.200 C  
BRANCH  24  25
HETATM   25  C   UNL     1      -9.650  11.903  67.324  1.00  0.00    -0.181 C  
BRANCH  25  26
HETATM   26  C   UNL     1      -8.865  13.214  67.467  1.00  0.00    -0.199 C  
HETATM   27  H   UNL     1      -8.046  14.192  68.941  1.00  0.00     0.000 HD 
HETATM   28  O   UNL     1      -8.532  13.381  68.853  1.00  0.00     0.039 OA 
BRANCH  26  29
HETATM   29  C   UNL     1      -9.561  14.505  66.938  1.00  0.00    -0.250 C  
BRANCH  29  30
HETATM   30  N   UNL     1      -8.650  15.646  66.829  1.00  0.00    -0.250 N  
HETATM   31  C   UNL     1      -7.300  15.490  66.994  1.00  0.00    -0.137 C  
HETATM   32  H   UNL     1      -9.027  16.572  66.627  1.00  0.00     0.000 HD 
HETATM   33  O   UNL     1      -6.701  14.453  66.784  1.00  0.00     0.392 OA 
BRANCH  31  34
HETATM   34  O   UNL     1      -6.753  16.629  67.467  1.00  0.00    -0.131 OA 
BRANCH  34  35
HETATM   35  C   UNL     1      -7.506  17.318  68.486  1.00  0.00    -0.241 C  
BRANCH  35  36
HETATM   36  C   UNL     1      -8.169  18.541  67.944  1.00  0.00    -0.261 A  
HETATM   37  N   UNL     1      -8.709  20.285  66.474  1.00  0.00    -0.241 NA 
HETATM   38  C   UNL     1      -7.925  19.181  66.742  1.00  0.00    -0.269 A  
HETATM   39  C   UNL     1      -9.536  20.478  67.477  1.00  0.00    -0.380 A  
HETATM   40  S   UNL     1      -9.461  19.330  68.749  1.00  0.00    -0.391 SA 
ENDBRANCH  35  36
ENDBRANCH  34  35
ENDBRANCH  31  34
ENDBRANCH  29  30
BRANCH  29  41
HETATM   41  C   UNL     1     -10.336  14.267  65.600  1.00  0.00    -0.352 C  
BRANCH  41  42
HETATM   42  C   UNL     1      -9.941  13.060  64.775  1.00  0.00    -0.147 A  
HETATM   43  C   UNL     1     -10.084  11.760  62.718  1.00  0.00     0.120 A  
HETATM   44  C   UNL     1     -10.548  12.777  63.545  1.00  0.00    -0.177 A  
HETATM   45  C   UNL     1      -8.921  12.209  65.211  1.00  0.00     0.482 A  
HETATM   46  C   UNL     1      -8.466  11.166  64.393  1.00  0.00     0.332 A  
HETATM   47  C   UNL     1      -9.036  10.955  63.138  1.00  0.00    -0.277 A  
ENDBRANCH  41  42
ENDBRANCH  29  41
ENDBRANCH  26  29
ENDBRANCH  25  26
ENDBRANCH  24  25
BRANCH  24  48
HETATM   48  C   UNL     1     -11.503  11.615  69.108  1.00  0.00    -0.364 C  
BRANCH  48  49
HETATM   49  C   UNL     1     -11.604  13.058  69.543  1.00  0.00    -0.342 A  
HETATM   50  C   UNL     1     -12.153  15.371  69.039  1.00  0.00    -0.254 A  
HETATM   51  C   UNL     1     -12.081  14.032  68.656  1.00  0.00    -0.332 A  
HETATM   52  C   UNL     1     -11.741  15.755  70.312  1.00  0.00    -0.373 A  
HETATM   53  C   UNL     1     -11.258  14.798  71.204  1.00  0.00    -0.099 A  
HETATM   54  C   UNL     1     -11.181  13.458  70.821  1.00  0.00     1.234 A  
ENDBRANCH  48  49
ENDBRANCH  24  48
ENDBRANCH  22  24
ENDBRANCH   3  20
TORSDOF 18
ENDMDL
MODEL      118
REMARK 921   NORMALIZED FREE ENERGY PREDICTED BY IDOCK:    8.03 KCAL/MOL
REMARK 922        TOTAL FREE ENERGY PREDICTED BY IDOCK:   11.87 KCAL/MOL
REMARK 923 INTER-LIGAND FREE ENERGY PREDICTED BY IDOCK:    8.65 KCAL/MOL
REMARK 924 INTRA-LIGAND FREE ENERGY PREDICTED BY IDOCK:    3.22 KCAL/MOL
REMARK 927      BINDING AFFINITY PREDICTED BY RF-SCORE:    0.00 PKD
ROOT
HETATM    1  C   UNL     1      -7.762  14.544  72.760  1.00  0.00     6.202 C  
HETATM    2  C   UNL     1      -6.651  13.928  71.918  1.00  0.00     1.850 C  
HETATM    3  C   UNL     1      -6.543  14.484  70.477  1.00  0.00     0.028 C  
HETATM    4  C   UNL     1      -5.330  14.000  72.694  1.00  0.00    -0.212 C  
ENDROOT
BRANCH   3   5
HETATM    5  N   UNL     1      -6.215  15.912  70.340  1.00  0.00     0.015 N  
HETATM    6  H   UNL     1      -6.355  16.522  71.145  1.00  0.00     0.000 HD 
BRANCH   5   7
HETATM    7  C   UNL     1      -5.730  16.462  69.184  1.00  0.00    -0.131 C  
HETATM    8  O   UNL     1      -5.139  17.539  69.180  1.00  0.00    -0.165 OA 
BRANCH   7   9
HETATM    9  N   UNL     1      -6.006  15.785  68.013  1.00  0.00    -0.127 N  
HETATM   10  C   UNL     1      -5.297  14.636  67.470  1.00  0.00     0.215 C  
BRANCH   9  11
HETATM   11  C   UNL     1      -7.170  16.231  67.237  1.00  0.00    -0.188 C  
BRANCH  11  12
HETATM   12  C   UNL     1      -7.444  17.698  67.440  1.00  0.00    -0.194 A  
HETATM   13  C   UNL     1      -7.541  18.652  66.443  1.00  0.00    -0.259 A  
HETATM   14  N   UNL     1      -7.701  18.189  68.724  1.00  0.00    -0.290 NA 
HETATM   15  S   UNL     1      -7.962  20.171  67.102  1.00  0.00    -0.336 SA 
HETATM   16  C   UNL     1      -7.249  20.446  70.854  1.00  0.00     1.079 C  
HETATM   17  C   UNL     1      -8.008  19.470  68.675  1.00  0.00    -0.346 A  
HETATM   18  C   UNL     1      -8.405  20.313  69.866  1.00  0.00     1.164 C  
HETATM   19  C   UNL     1      -9.637  19.724  70.557  1.00  0.00     1.195 C  
ENDBRANCH  11  12
ENDBRANCH   9  11
ENDBRANCH   7   9
ENDBRANCH   5   7
ENDBRANCH   3   5
BRANCH   3  20
HETATM   20  C   UNL     1      -7.712  13.994  69.566  1.00  0.00     0.363 C  
HETATM   21  O   UNL     1      -8.641  14.714  69.205  1.00  0.00    -0.133 OA 
HETATM   22  N   UNL     1      -7.655  12.654  69.233  1.00  0.00    -0.305 N  
HETATM   23  H   UNL     1      -6.938  12.071  69.663  1.00  0.00     0.000 HD 
BRANCH  22  24
HETATM   24  C   UNL     1      -8.586  12.045  68.286  1.00  0.00    -0.174 C  
BRANCH  24  25
HETATM   25  C   UNL     1      -9.351  13.067  67.420  1.00  0.00    -0.209 C  
BRANCH  25  26
HETATM   26  C   UNL     1      -9.558  12.773  65.928  1.00  0.00    -0.136 C  
HETATM   27  H   UNL     1      -8.394  12.513  64.386  1.00  0.00     0.000 HD 
HETATM   28  O   UNL     1      -8.266  12.695  65.309  1.00  0.00     1.952 OA 
BRANCH  26  29
HETATM   29  C   UNL     1     -10.457  13.772  65.137  1.00  0.00    -0.384 C  
BRANCH  29  30
HETATM   30  N   UNL     1     -11.096  13.168  63.968  1.00  0.00    -0.488 N  
HETATM   31  C   UNL     1     -12.125  12.276  64.107  1.00  0.00    -0.436 C  
HETATM   32  H   UNL     1     -10.770  13.417  63.033  1.00  0.00     0.000 HD 
HETATM   33  O   UNL     1     -12.879  12.246  65.059  1.00  0.00    -0.563 OA 
BRANCH  31  34
HETATM   34  O   UNL     1     -12.141  11.416  63.067  1.00  0.00    -0.042 OA 
BRANCH  34  35
HETATM   35  C   UNL     1     -10.888  11.234  62.376  1.00  0.00     1.428 C  
BRANCH  35  36
HETATM   36  C   UNL     1      -9.879  10.556  63.242  1.00  0.00    -0.253 A  
HETATM   37  N   UNL     1      -8.976   9.306  65.007  1.00  0.00    -0.206 NA 
HETATM   38  C   UNL     1     -10.093   9.864  64.420  1.00  0.00     0.359 A  
HETATM   39  C   UNL     1      -7.921   9.586  64.274  1.00  0.00    -0.136 A  
HETATM   40  S   UNL     1      -8.216  10.468  62.833  1.00  0.00    -0.125 SA 
ENDBRANCH  35  36
ENDBRANCH  34  35
ENDBRANCH  31  34
ENDBRANCH  29  30
BRANCH  29  41
HETATM   41  C   UNL     1     -11.504  14.492  66.050  1.00  0.00    -0.348 C  
BRANCH  41  42
HETATM   42  C   UNL     1     -11.202  15.920  66.457  1.00  0.00     0.082 A  
HETATM   43  C   UNL     1     -11.090  18.296  65.925  1.00  0.00     0.482 A  
HETATM   44  C   UNL     1     -11.216  16.969  65.530  1.00  0.00     0.370 A  
HETATM   45  C   UNL     1     -10.938  16.233  67.793  1.00  0.00    -0.281 A  
HETATM   46  C   UNL     1     -10.785  17.567  68.195  1.00  0.00    -0.330 A  
HETATM   47  C   UNL     1     -10.880  18.599  67.262  1.00  0.00    -0.369 A  
ENDBRANCH  41  42
ENDBRANCH  29  41
ENDBRANCH  26  29
ENDBRANCH  25  26
ENDBRANCH  24  25
BRANCH  24  48
HETATM   48  C   UNL     1      -9.496  11.048  69.032  1.00  0.00    -0.123 C  
BRANCH  48  49
HETATM   49  C   UNL     1      -8.792   9.884  69.687  1.00  0.00    -0.224 A  
HETATM   50  C   UNL     1      -8.852   7.953  71.162  1.00  0.00    -0.150 A  
HETATM   51  C   UNL     1      -9.498   9.016  70.532  1.00  0.00    -0.265 A  
HETATM   52  C   UNL     1      -7.489   7.749  70.963  1.00  0.00    -0.074 A  
HETATM   53  C   UNL     1      -6.772   8.607  70.130  1.00  0.00    -0.039 A  
HETATM   54  C   UNL     1      -7.417   9.674  69.502  1.00  0.00    -0.096 A  
ENDBRANCH  48  49
ENDBRANCH  24  48
ENDBRANCH  22  24
ENDBRANCH   3  20
TORSDOF 18
ENDMDL
MODEL      119
REMARK 921   NORMALIZED FREE ENERGY PREDICTED BY IDOCK:    9.19 KCAL/MOL
REMARK 922        TOTAL FREE ENERGY PREDICTED BY IDOCK:   14.26 KCAL/MOL
REMARK 923 INTER-LIGAND FREE ENERGY PREDICTED BY IDOCK:    7.23 KCAL/MOL
REMARK 924 INTRA-LIGAND FREE ENERGY PREDICTED BY IDOCK:    7.03 KCAL/MOL
REMARK 927      BINDING AFFINITY PREDICTED BY RF-SCORE:    0.00 PKD
ROOT
HETATM    1  C   UNL     1      -7.603  14.383  72.278  1.00  0.00     5.048 C  
HETATM    2  C   UNL     1      -6.396  14.101  71.391  1.00  0.00     0.371 C  
HETATM    3  C   UNL     1      -6.285  15.002  70.137  1.00  0.00    -0.154 C  
HETATM    4  C   UNL     1      -5.126  14.104  72.251  1.00  0.00    -0.210 C  
ENDROOT
BRANCH   3   5
HETATM    5  N   UNL     1      -6.107  16.445  70.371  1.00  0.00    -0.005 N  
HETATM    6  H   UNL     1      -6.320  16.816  71.297  1.00  0.00     0.000 HD 
BRANCH   5   7
HETATM    7  C   UNL     1      -5.670  17.311  69.407  1.00  0.00    -0.204 C  
HETATM    8  O   UNL     1      -5.131  18.378  69.693  1.00  0.00    -0.177 OA 
BRANCH   7   9
HETATM    9  N   UNL     1      -5.933  16.966  68.097  1.00  0.00    -0.120 N  
HETATM   10  C   UNL     1      -5.238  15.976  67.288  1.00  0.00     0.042 C  
BRANCH   9  11
HETATM   11  C   UNL     1      -7.070  17.626  67.443  1.00  0.00    -0.169 C  
BRANCH  11  12
HETATM   12  C   UNL     1      -8.137  18.007  68.435  1.00  0.00    -0.298 A  
HETATM   13  C   UNL     1      -8.388  19.283  68.909  1.00  0.00    -0.303 A  
HETATM   14  N   UNL     1      -9.032  17.040  68.904  1.00  0.00    -0.248 NA 
HETATM   15  S   UNL     1      -9.751  19.284  69.940  1.00  0.00     0.748 SA 
HETATM   16  C   UNL     1     -10.609  15.819  71.325  1.00  0.00     0.447 C  
HETATM   17  C   UNL     1      -9.940  17.591  69.685  1.00  0.00     0.272 A  
HETATM   18  C   UNL     1     -11.100  16.858  70.318  1.00  0.00     0.303 C  
HETATM   19  C   UNL     1     -11.971  16.197  69.247  1.00  0.00    -0.086 C  
ENDBRANCH  11  12
ENDBRANCH   9  11
ENDBRANCH   7   9
ENDBRANCH   5   7
ENDBRANCH   3   5
BRANCH   3  20
HETATM   20  C   UNL     1      -7.353  14.644  69.056  1.00  0.00    -0.134 C  
HETATM   21  O   UNL     1      -8.197  15.439  68.645  1.00  0.00    -0.141 OA 
HETATM   22  N   UNL     1      -7.315  13.332  68.628  1.00  0.00    -0.106 N  
HETATM   23  H   UNL     1      -6.683  12.680  69.093  1.00  0.00     0.000 HD 
BRANCH  22  24
HETATM   24  C   UNL     1      -8.147  12.845  67.531  1.00  0.00    -0.181 C  
BRANCH  24  25
HETATM   25  C   UNL     1      -9.203  13.862  67.051  1.00  0.00    -0.257 C  
BRANCH  25  26
HETATM   26  C   UNL     1      -9.940  13.604  65.729  1.00  0.00    -0.261 C  
HETATM   27  H   UNL     1      -9.420  13.413  63.860  1.00  0.00     0.000 HD 
HETATM   28  O   UNL     1      -8.964  13.572  64.678  1.00  0.00     1.606 OA 
BRANCH  26  29
HETATM   29  C   UNL     1     -11.076  14.605  65.357  1.00  0.00    -0.348 C  
BRANCH  29  30
HETATM   30  N   UNL     1     -12.296  13.943  64.893  1.00  0.00    -0.500 N  
HETATM   31  C   UNL     1     -12.760  12.809  65.504  1.00  0.00    -0.047 C  
HETATM   32  H   UNL     1     -12.809  14.333  64.102  1.00  0.00     0.000 HD 
HETATM   33  O   UNL     1     -12.541  12.519  66.664  1.00  0.00    -0.163 OA 
BRANCH  31  34
HETATM   34  O   UNL     1     -13.445  12.050  64.622  1.00  0.00    -0.349 OA 
BRANCH  34  35
HETATM   35  C   UNL     1     -12.706  11.597  63.470  1.00  0.00    -0.156 C  
BRANCH  35  36
HETATM   36  C   UNL     1     -11.352  11.094  63.850  1.00  0.00     0.145 A  
HETATM   37  N   UNL     1      -9.671   9.993  65.056  1.00  0.00    -0.309 NA 
HETATM   38  C   UNL     1     -11.000  10.353  64.963  1.00  0.00     0.679 A  
HETATM   39  C   UNL     1      -9.024  10.471  64.017  1.00  0.00    -0.217 A  
HETATM   40  S   UNL     1      -9.970  11.313  62.860  1.00  0.00    -0.172 SA 
ENDBRANCH  35  36
ENDBRANCH  34  35
ENDBRANCH  31  34
ENDBRANCH  29  30
BRANCH  29  41
HETATM   41  C   UNL     1     -11.383  15.623  66.505  1.00  0.00     0.062 C  
BRANCH  41  42
HETATM   42  C   UNL     1     -10.899  17.046  66.316  1.00  0.00     0.034 A  
HETATM   43  C   UNL     1      -9.418  18.655  65.239  1.00  0.00     1.716 A  
HETATM   44  C   UNL     1      -9.774  17.344  65.538  1.00  0.00     0.378 A  
HETATM   45  C   UNL     1     -11.595  18.112  66.891  1.00  0.00     1.631 A  
HETATM   46  C   UNL     1     -11.227  19.436  66.615  1.00  0.00     0.043 A  
HETATM   47  C   UNL     1     -10.148  19.706  65.773  1.00  0.00    -0.377 A  
ENDBRANCH  41  42
ENDBRANCH  29  41
ENDBRANCH  26  29
ENDBRANCH  25  26
ENDBRANCH  24  25
BRANCH  24  48
HETATM   48  C   UNL     1      -8.728  11.465  67.902  1.00  0.00    -0.145 C  
BRANCH  48  49
HETATM   49  C   UNL     1      -9.803  11.471  68.962  1.00  0.00    -0.013 A  
HETATM   50  C   UNL     1     -11.165  10.274  70.579  1.00  0.00    -0.408 A  
HETATM   51  C   UNL     1     -10.155  10.284  69.618  1.00  0.00    -0.257 A  
HETATM   52  C   UNL     1     -11.842  11.450  70.892  1.00  0.00    -0.111 A  
HETATM   53  C   UNL     1     -11.507  12.638  70.244  1.00  0.00     0.133 A  
HETATM   54  C   UNL     1     -10.499  12.649  69.277  1.00  0.00     0.196 A  
ENDBRANCH  48  49
ENDBRANCH  24  48
ENDBRANCH  22  24
ENDBRANCH   3  20
TORSDOF 18
ENDMDL
MODEL      120
REMARK 921   NORMALIZED FREE ENERGY PREDICTED BY IDOCK:   10.84 KCAL/MOL
REMARK 922        TOTAL FREE ENERGY PREDICTED BY IDOCK:   17.64 KCAL/MOL
REMARK 923 INTER-LIGAND FREE ENERGY PREDICTED BY IDOCK:    5.76 KCAL/MOL
REMARK 924 INTRA-LIGAND FREE ENERGY PREDICTED BY IDOCK:   11.88 KCAL/MOL
REMARK 927      BINDING AFFINITY PREDICTED BY RF-SCORE:    0.00 PKD
ROOT
HETATM    1  C   UNL     1     -13.658   8.218  72.662  1.00  0.00     0.010 C  
HETATM    2  C   UNL     1     -12.196   7.954  73.002  1.00  0.00     0.318 C  
HETATM    3  C   UNL     1     -11.206   8.173  71.831  1.00  0.00    -0.290 C  
HETATM    4  C   UNL     1     -11.820   8.740  74.265  1.00  0.00     8.616 C  
ENDROOT
BRANCH   3   5
HETATM    5  N   UNL     1     -11.108   9.539  71.292  1.00  0.00    -0.361 N  
HETATM    6  H   UNL     1     -10.218  10.030  71.374  1.00  0.00     0.000 HD 
BRANCH   5   7
HETATM    7  C   UNL     1     -12.152  10.183  70.687  1.00  0.00    -0.319 C  
HETATM    8  O   UNL     1     -13.303   9.757  70.762  1.00  0.00    -0.260 OA 
BRANCH   7   9
HETATM    9  N   UNL     1     -11.841  11.290  69.924  1.00  0.00    -0.328 N  
HETATM   10  C   UNL     1     -10.522  11.713  69.481  1.00  0.00     0.221 C  
BRANCH   9  11
HETATM   11  C   UNL     1     -12.959  12.121  69.458  1.00  0.00     1.269 C  
BRANCH  11  12
HETATM   12  C   UNL     1     -12.485  13.237  68.564  1.00  0.00     0.387 A  
HETATM   13  C   UNL     1     -12.590  14.591  68.829  1.00  0.00     0.370 A  
HETATM   14  N   UNL     1     -11.807  12.941  67.377  1.00  0.00    -0.374 NA 
HETATM   15  S   UNL     1     -11.835  15.505  67.598  1.00  0.00     0.259 SA 
HETATM   16  C   UNL     1     -11.366  13.560  64.334  1.00  0.00    -0.407 C  
HETATM   17  C   UNL     1     -11.397  14.048  66.791  1.00  0.00    -0.334 A  
HETATM   18  C   UNL     1     -10.577  14.106  65.522  1.00  0.00    -0.335 C  
HETATM   19  C   UNL     1      -9.264  13.339  65.692  1.00  0.00     0.384 C  
ENDBRANCH  11  12
ENDBRANCH   9  11
ENDBRANCH   7   9
ENDBRANCH   5   7
ENDBRANCH   3   5
BRANCH   3  20
HETATM   20  C   UNL     1     -11.315   7.052  70.749  1.00  0.00    -0.298 C  
HETATM   21  O   UNL     1     -11.750   5.925  70.978  1.00  0.00    -0.107 OA 
HETATM   22  N   UNL     1     -10.827   7.408  69.507  1.00  0.00    -0.337 N  
HETATM   23  H   UNL     1     -10.357   8.307  69.401  1.00  0.00     0.000 HD 
BRANCH  22  24
HETATM   24  C   UNL     1     -10.960   6.542  68.339  1.00  0.00    -0.281 C  
BRANCH  24  25
HETATM   25  C   UNL     1     -10.897   5.036  68.670  1.00  0.00     0.516 C  
BRANCH  25  26
HETATM   26  C   UNL     1      -9.526   4.371  68.855  1.00  0.00    -0.165 C  
HETATM   27  H   UNL     1      -8.754   3.100  70.117  1.00  0.00     0.000 HD 
HETATM   28  O   UNL     1      -9.602   3.512  70.002  1.00  0.00    -0.188 OA 
BRANCH  26  29
HETATM   29  C   UNL     1      -8.300   5.324  68.996  1.00  0.00    -0.095 C  
BRANCH  29  30
HETATM   30  N   UNL     1      -7.217   4.753  69.797  1.00  0.00    -0.054 N  
HETATM   31  C   UNL     1      -7.276   3.461  70.247  1.00  0.00    -0.041 C  
HETATM   32  H   UNL     1      -6.404   5.326  70.023  1.00  0.00     0.000 HD 
HETATM   33  O   UNL     1      -7.907   2.576  69.702  1.00  0.00    -0.043 OA 
BRANCH  31  34
HETATM   34  O   UNL     1      -6.581   3.335  71.397  1.00  0.00    -0.024 OA 
BRANCH  34  35
HETATM   35  C   UNL     1      -7.157   3.968  72.558  1.00  0.00    -0.056 C  
BRANCH  35  36
HETATM   36  C   UNL     1      -6.982   5.450  72.517  1.00  0.00    -0.082 A  
HETATM   37  N   UNL     1      -7.454   7.713  72.133  1.00  0.00    -0.069 NA 
HETATM   38  C   UNL     1      -7.856   6.398  72.017  1.00  0.00    -0.100 A  
HETATM   39  C   UNL     1      -6.274   7.752  72.711  1.00  0.00    -0.062 A  
HETATM   40  S   UNL     1      -5.621   6.241  73.195  1.00  0.00    -0.038 SA 
ENDBRANCH  35  36
ENDBRANCH  34  35
ENDBRANCH  31  34
ENDBRANCH  29  30
BRANCH  29  41
HETATM   41  C   UNL     1      -7.776   5.840  67.616  1.00  0.00    -0.097 C  
BRANCH  41  42
HETATM   42  C   UNL     1      -7.061   4.842  66.728  1.00  0.00    -0.068 A  
HETATM   43  C   UNL     1      -5.590   4.351  64.848  1.00  0.00    -0.014 A  
HETATM   44  C   UNL     1      -6.371   5.241  65.577  1.00  0.00    -0.035 A  
HETATM   45  C   UNL     1      -7.041   3.485  67.064  1.00  0.00    -0.059 A  
HETATM   46  C   UNL     1      -6.276   2.578  66.318  1.00  0.00    -0.024 A  
HETATM   47  C   UNL     1      -5.536   3.017  65.221  1.00  0.00    -0.009 A  
ENDBRANCH  41  42
ENDBRANCH  29  41
ENDBRANCH  26  29
ENDBRANCH  25  26
ENDBRANCH  24  25
BRANCH  24  48
HETATM   48  C   UNL     1      -9.960   6.988  67.253  1.00  0.00    -0.235 C  
BRANCH  48  49
HETATM   49  C   UNL     1      -9.395   8.379  67.416  1.00  0.00    -0.178 A  
HETATM   50  C   UNL     1      -8.152  10.001  68.731  1.00  0.00    -0.106 A  
HETATM   51  C   UNL     1      -8.655   8.712  68.558  1.00  0.00    -0.135 A  
HETATM   52  C   UNL     1      -8.389  10.976  67.767  1.00  0.00    -0.118 A  
HETATM   53  C   UNL     1      -9.127  10.663  66.627  1.00  0.00    -0.176 A  
HETATM   54  C   UNL     1      -9.636   9.374  66.455  1.00  0.00    -0.285 A  
ENDBRANCH  48  49
ENDBRANCH  24  48
ENDBRANCH  22  24
ENDBRANCH   3  20
TORSDOF 18
ENDMDL
MODEL      121
REMARK 921   NORMALIZED FREE ENERGY PREDICTED BY IDOCK:   10.88 KCAL/MOL
REMARK 922        TOTAL FREE ENERGY PREDICTED BY IDOCK:   17.72 KCAL/MOL
REMARK 923 INTER-LIGAND FREE ENERGY PREDICTED BY IDOCK:   14.55 KCAL/MOL
REMARK 924 INTRA-LIGAND FREE ENERGY PREDICTED BY IDOCK:    3.17 KCAL/MOL
REMARK 927      BINDING AFFINITY PREDICTED BY RF-SCORE:    0.00 PKD
ROOT
HETATM    1  C   UNL     1      -7.584  14.919  72.695  1.00  0.00     5.698 C  
HETATM    2  C   UNL     1      -6.472  14.409  71.786  1.00  0.00     0.886 C  
HETATM    3  C   UNL     1      -6.462  15.022  70.364  1.00  0.00    -0.039 C  
HETATM    4  C   UNL     1      -5.127  14.540  72.510  1.00  0.00    -0.226 C  
ENDROOT
BRANCH   3   5
HETATM    5  N   UNL     1      -6.233  16.473  70.269  1.00  0.00    -0.004 N  
HETATM    6  H   UNL     1      -6.383  17.043  71.101  1.00  0.00     0.000 HD 
BRANCH   5   7
HETATM    7  C   UNL     1      -5.829  17.094  69.119  1.00  0.00    -0.187 C  
HETATM    8  O   UNL     1      -5.146  18.116  69.142  1.00  0.00    -0.176 OA 
BRANCH   7   9
HETATM    9  N   UNL     1      -6.289  16.561  67.932  1.00  0.00    -0.129 N  
HETATM   10  C   UNL     1      -5.741  15.427  67.203  1.00  0.00     0.488 C  
BRANCH   9  11
HETATM   11  C   UNL     1      -7.494  17.162  67.347  1.00  0.00    -0.160 C  
BRANCH  11  12
HETATM   12  C   UNL     1      -7.625  18.616  67.718  1.00  0.00    -0.232 A  
HETATM   13  C   UNL     1      -7.353  19.693  66.893  1.00  0.00    -0.224 A  
HETATM   14  N   UNL     1      -8.128  18.975  68.972  1.00  0.00    -0.259 NA 
HETATM   15  S   UNL     1      -7.731  21.163  67.677  1.00  0.00     0.342 SA 
HETATM   16  C   UNL     1      -7.939  20.841  71.487  1.00  0.00     2.765 C  
HETATM   17  C   UNL     1      -8.251  20.284  69.064  1.00  0.00     0.483 A  
HETATM   18  C   UNL     1      -8.822  21.021  70.254  1.00  0.00     3.382 C  
HETATM   19  C   UNL     1     -10.250  20.553  70.544  1.00  0.00     1.411 C  
ENDBRANCH  11  12
ENDBRANCH   9  11
ENDBRANCH   7   9
ENDBRANCH   5   7
ENDBRANCH   3   5
BRANCH   3  20
HETATM   20  C   UNL     1      -7.634  14.488  69.482  1.00  0.00     0.016 C  
HETATM   21  O   UNL     1      -8.610  15.167  69.165  1.00  0.00    -0.201 OA 
HETATM   22  N   UNL     1      -7.521  13.160  69.123  1.00  0.00    -0.312 N  
HETATM   23  H   UNL     1      -6.761  12.606  69.519  1.00  0.00     0.000 HD 
BRANCH  22  24
HETATM   24  C   UNL     1      -8.450  12.520  68.195  1.00  0.00    -0.180 C  
BRANCH  24  25
HETATM   25  C   UNL     1      -9.310  13.516  67.390  1.00  0.00    -0.228 C  
BRANCH  25  26
HETATM   26  C   UNL     1      -9.654  13.192  65.929  1.00  0.00    -0.108 C  
HETATM   27  H   UNL     1      -8.640  12.924  64.286  1.00  0.00     0.000 HD 
HETATM   28  O   UNL     1      -8.427  13.125  65.189  1.00  0.00     2.230 OA 
BRANCH  26  29
HETATM   29  C   UNL     1     -10.643  14.161  65.213  1.00  0.00    -0.373 C  
BRANCH  29  30
HETATM   30  N   UNL     1     -11.523  13.484  64.260  1.00  0.00    -0.431 N  
HETATM   31  C   UNL     1     -12.249  12.384  64.627  1.00  0.00    -0.425 C  
HETATM   32  H   UNL     1     -11.597  13.839  63.306  1.00  0.00     0.000 HD 
HETATM   33  O   UNL     1     -12.604  12.147  65.765  1.00  0.00    -0.344 OA 
BRANCH  31  34
HETATM   34  O   UNL     1     -12.463  11.587  63.559  1.00  0.00    -0.326 OA 
BRANCH  34  35
HETATM   35  C   UNL     1     -11.380  11.495  62.611  1.00  0.00     1.047 C  
BRANCH  35  36
HETATM   36  C   UNL     1     -10.171  10.865  63.220  1.00  0.00    -0.257 A  
HETATM   37  N   UNL     1      -7.977  10.073  63.444  1.00  0.00    -0.151 NA 
HETATM   38  C   UNL     1      -8.934  10.656  62.639  1.00  0.00    -0.284 A  
HETATM   39  C   UNL     1      -8.497   9.837  64.628  1.00  0.00    -0.172 A  
HETATM   40  S   UNL     1     -10.120  10.347  64.854  1.00  0.00    -0.249 SA 
ENDBRANCH  35  36
ENDBRANCH  34  35
ENDBRANCH  31  34
ENDBRANCH  29  30
BRANCH  29  41
HETATM   41  C   UNL     1     -11.461  15.038  66.218  1.00  0.00    -0.214 C  
BRANCH  41  42
HETATM   42  C   UNL     1     -11.178  16.526  66.229  1.00  0.00     0.411 A  
HETATM   43  C   UNL     1     -11.014  18.643  67.426  1.00  0.00    -0.239 A  
HETATM   44  C   UNL     1     -11.414  17.313  67.363  1.00  0.00     0.698 A  
HETATM   45  C   UNL     1     -10.630  17.150  65.105  1.00  0.00     0.031 A  
HETATM   46  C   UNL     1     -10.248  18.498  65.153  1.00  0.00     1.305 A  
HETATM   47  C   UNL     1     -10.424  19.238  66.321  1.00  0.00    -0.567 A  
ENDBRANCH  41  42
ENDBRANCH  29  41
ENDBRANCH  26  29
ENDBRANCH  25  26
ENDBRANCH  24  25
BRANCH  24  48
HETATM   48  C   UNL     1      -9.268  11.449  68.946  1.00  0.00    -0.035 C  
BRANCH  48  49
HETATM   49  C   UNL     1     -10.514  11.945  69.640  1.00  0.00     0.478 A  
HETATM   50  C   UNL     1     -12.171  13.688  69.989  1.00  0.00    -0.395 A  
HETATM   51  C   UNL     1     -11.036  13.209  69.336  1.00  0.00    -0.140 A  
HETATM   52  C   UNL     1     -12.794  12.912  70.962  1.00  0.00    -0.268 A  
HETATM   53  C   UNL     1     -12.284  11.654  71.280  1.00  0.00    -0.149 A  
HETATM   54  C   UNL     1     -11.145  11.175  70.630  1.00  0.00     0.560 A  
ENDBRANCH  48  49
ENDBRANCH  24  48
ENDBRANCH  22  24
ENDBRANCH   3  20
TORSDOF 18
ENDMDL
MODEL      122
REMARK 921   NORMALIZED FREE ENERGY PREDICTED BY IDOCK:   13.19 KCAL/MOL
REMARK 922        TOTAL FREE ENERGY PREDICTED BY IDOCK:   22.45 KCAL/MOL
REMARK 923 INTER-LIGAND FREE ENERGY PREDICTED BY IDOCK:   10.22 KCAL/MOL
REMARK 924 INTRA-LIGAND FREE ENERGY PREDICTED BY IDOCK:   12.24 KCAL/MOL
REMARK 927      BINDING AFFINITY PREDICTED BY RF-SCORE:    0.00 PKD
ROOT
HETATM    1  C   UNL     1      -7.601  14.140  72.691  1.00  0.00     6.221 C  
HETATM    2  C   UNL     1      -6.293  14.232  71.915  1.00  0.00     0.756 C  
HETATM    3  C   UNL     1      -6.268  15.318  70.811  1.00  0.00     0.191 C  
HETATM    4  C   UNL     1      -5.125  14.347  72.902  1.00  0.00    -0.288 C  
ENDROOT
BRANCH   3   5
HETATM    5  N   UNL     1      -6.410  16.715  71.252  1.00  0.00     1.763 N  
HETATM    6  H   UNL     1      -6.572  16.897  72.242  1.00  0.00     0.000 HD 
BRANCH   5   7
HETATM    7  C   UNL     1      -6.334  17.781  70.398  1.00  0.00     0.565 C  
HETATM    8  O   UNL     1      -6.363  18.940  70.806  1.00  0.00     0.199 OA 
BRANCH   7   9
HETATM    9  N   UNL     1      -6.302  17.493  69.048  1.00  0.00    -0.207 N  
HETATM   10  C   UNL     1      -5.127  17.381  68.198  1.00  0.00    -0.129 C  
BRANCH   9  11
HETATM   11  C   UNL     1      -7.585  17.220  68.388  1.00  0.00    -0.241 C  
BRANCH  11  12
HETATM   12  C   UNL     1      -8.748  17.710  69.209  1.00  0.00     0.279 A  
HETATM   13  C   UNL     1      -9.109  19.032  69.401  1.00  0.00     0.182 A  
HETATM   14  N   UNL     1      -9.621  16.792  69.801  1.00  0.00     0.282 NA 
HETATM   15  S   UNL     1     -10.547  19.137  70.316  1.00  0.00     2.324 SA 
HETATM   16  C   UNL     1     -11.315  15.957  72.306  1.00  0.00    -0.179 C  
HETATM   17  C   UNL     1     -10.619  17.418  70.393  1.00  0.00     1.022 A  
HETATM   18  C   UNL     1     -11.782  16.741  71.081  1.00  0.00     0.552 C  
HETATM   19  C   UNL     1     -12.525  15.823  70.108  1.00  0.00    -0.240 C  
ENDBRANCH  11  12
ENDBRANCH   9  11
ENDBRANCH   7   9
ENDBRANCH   5   7
ENDBRANCH   3   5
BRANCH   3  20
HETATM   20  C   UNL     1      -7.147  14.930  69.580  1.00  0.00    -0.179 C  
HETATM   21  O   UNL     1      -7.991  15.675  69.086  1.00  0.00    -0.193 OA 
HETATM   22  N   UNL     1      -6.942  13.647  69.113  1.00  0.00    -0.199 N  
HETATM   23  H   UNL     1      -6.327  13.024  69.637  1.00  0.00     0.000 HD 
BRANCH  22  24
HETATM   24  C   UNL     1      -7.576  13.150  67.895  1.00  0.00    -0.147 C  
BRANCH  24  25
HETATM   25  C   UNL     1      -8.585  14.136  67.271  1.00  0.00    -0.231 C  
BRANCH  25  26
HETATM   26  C   UNL     1      -9.425  13.683  66.068  1.00  0.00    -0.090 C  
HETATM   27  H   UNL     1      -9.047  13.109  64.243  1.00  0.00     0.000 HD 
HETATM   28  O   UNL     1      -8.527  13.390  64.988  1.00  0.00     2.764 OA 
BRANCH  26  29
HETATM   29  C   UNL     1     -10.530  14.667  65.577  1.00  0.00    -0.356 C  
BRANCH  29  30
HETATM   30  N   UNL     1     -11.787  13.998  65.242  1.00  0.00    -0.343 N  
HETATM   31  C   UNL     1     -12.157  12.836  65.863  1.00  0.00    -0.426 C  
HETATM   32  H   UNL     1     -12.399  14.406  64.534  1.00  0.00     0.000 HD 
HETATM   33  O   UNL     1     -11.793  12.510  66.976  1.00  0.00    -0.428 OA 
BRANCH  31  34
HETATM   34  O   UNL     1     -12.933  12.095  65.044  1.00  0.00    -0.418 OA 
BRANCH  34  35
HETATM   35  C   UNL     1     -12.428  11.888  63.709  1.00  0.00    -0.427 C  
BRANCH  35  36
HETATM   36  C   UNL     1     -10.996  11.468  63.725  1.00  0.00    -0.409 A  
HETATM   37  N   UNL     1      -8.712  11.409  63.201  1.00  0.00     0.027 NA 
HETATM   38  C   UNL     1      -9.954  11.963  62.963  1.00  0.00    -0.154 A  
HETATM   39  C   UNL     1      -8.824  10.492  64.136  1.00  0.00    -0.194 A  
HETATM   40  S   UNL     1     -10.388  10.290  64.812  1.00  0.00     0.192 SA 
ENDBRANCH  35  36
ENDBRANCH  34  35
ENDBRANCH  31  34
ENDBRANCH  29  30
BRANCH  29  41
HETATM   41  C   UNL     1     -10.763  15.854  66.569  1.00  0.00    -0.258 C  
BRANCH  41  42
HETATM   42  C   UNL     1     -10.156  17.193  66.204  1.00  0.00    -0.317 A  
HETATM   43  C   UNL     1     -10.381  19.592  65.836  1.00  0.00    -0.584 A  
HETATM   44  C   UNL     1     -10.945  18.335  66.021  1.00  0.00     0.211 A  
HETATM   45  C   UNL     1      -8.771  17.330  66.076  1.00  0.00    -0.125 A  
HETATM   46  C   UNL     1      -8.196  18.590  65.864  1.00  0.00     0.054 A  
HETATM   47  C   UNL     1      -9.002  19.724  65.763  1.00  0.00     0.004 A  
ENDBRANCH  41  42
ENDBRANCH  29  41
ENDBRANCH  26  29
ENDBRANCH  25  26
ENDBRANCH  24  25
BRANCH  24  48
HETATM   48  C   UNL     1      -8.153  11.743  68.154  1.00  0.00    -0.150 C  
BRANCH  48  49
HETATM   49  C   UNL     1      -7.357  10.594  67.582  1.00  0.00    -0.090 A  
HETATM   50  C   UNL     1      -5.689   9.767  66.021  1.00  0.00    -0.057 A  
HETATM   51  C   UNL     1      -6.410  10.823  66.575  1.00  0.00    -0.115 A  
HETATM   52  C   UNL     1      -5.910   8.465  66.461  1.00  0.00    -0.044 A  
HETATM   53  C   UNL     1      -6.853   8.220  67.458  1.00  0.00    -0.070 A  
HETATM   54  C   UNL     1      -7.580   9.276  68.011  1.00  0.00    -0.084 A  
ENDBRANCH  48  49
ENDBRANCH  24  48
ENDBRANCH  22  24
ENDBRANCH   3  20
TORSDOF 18
ENDMDL
MODEL      123
REMARK 921   NORMALIZED FREE ENERGY PREDICTED BY IDOCK:   18.48 KCAL/MOL
REMARK 922        TOTAL FREE ENERGY PREDICTED BY IDOCK:   33.31 KCAL/MOL
REMARK 923 INTER-LIGAND FREE ENERGY PREDICTED BY IDOCK:   27.36 KCAL/MOL
REMARK 924 INTRA-LIGAND FREE ENERGY PREDICTED BY IDOCK:    5.95 KCAL/MOL
REMARK 927      BINDING AFFINITY PREDICTED BY RF-SCORE:    0.00 PKD
ROOT
HETATM    1  C   UNL     1      -5.955  13.034  71.154  1.00  0.00     0.317 C  
HETATM    2  C   UNL     1      -7.089  12.332  71.892  1.00  0.00     7.584 C  
HETATM    3  C   UNL     1      -7.355  10.875  71.440  1.00  0.00     3.973 C  
HETATM    4  C   UNL     1      -6.867  12.465  73.404  1.00  0.00     7.521 C  
ENDROOT
BRANCH   3   5
HETATM    5  N   UNL     1      -6.266   9.907  71.650  1.00  0.00     0.190 N  
HETATM    6  H   UNL     1      -5.554  10.121  72.348  1.00  0.00     0.000 HD 
BRANCH   5   7
HETATM    7  C   UNL     1      -6.162   8.734  70.953  1.00  0.00    -0.043 C  
HETATM    8  O   UNL     1      -6.277   8.697  69.730  1.00  0.00    -0.035 OA 
BRANCH   7   9
HETATM    9  N   UNL     1      -5.999   7.583  71.697  1.00  0.00    -0.036 N  
HETATM   10  C   UNL     1      -5.869   7.477  73.142  1.00  0.00    -0.048 C  
BRANCH   9  11
HETATM   11  C   UNL     1      -6.003   6.306  70.971  1.00  0.00    -0.031 C  
BRANCH  11  12
HETATM   12  C   UNL     1      -7.347   5.630  71.045  1.00  0.00    -0.085 A  
HETATM   13  C   UNL     1      -8.569   6.215  70.767  1.00  0.00    -0.135 A  
HETATM   14  N   UNL     1      -7.426   4.267  71.350  1.00  0.00    -0.058 NA 
HETATM   15  S   UNL     1      -9.827   5.065  70.877  1.00  0.00    -0.218 SA 
HETATM   16  C   UNL     1      -8.875   1.965  72.914  1.00  0.00    -0.066 C  
HETATM   17  C   UNL     1      -8.674   3.848  71.273  1.00  0.00    -0.089 A  
HETATM   18  C   UNL     1      -9.124   2.419  71.477  1.00  0.00    -0.159 C  
HETATM   19  C   UNL     1      -8.421   1.486  70.489  1.00  0.00    -0.071 C  
ENDBRANCH  11  12
ENDBRANCH   9  11
ENDBRANCH   7   9
ENDBRANCH   5   7
ENDBRANCH   3   5
BRANCH   3  20
HETATM   20  C   UNL     1      -8.025  10.806  70.032  1.00  0.00     0.583 C  
HETATM   21  O   UNL     1      -7.393  10.706  68.982  1.00  0.00    -0.088 OA 
HETATM   22  N   UNL     1      -9.401  10.923  70.048  1.00  0.00     0.193 N  
HETATM   23  H   UNL     1      -9.867  11.135  70.930  1.00  0.00     0.000 HD 
BRANCH  22  24
HETATM   24  C   UNL     1     -10.212  10.752  68.845  1.00  0.00    -0.203 C  
BRANCH  24  25
HETATM   25  C   UNL     1      -9.466  11.088  67.538  1.00  0.00    -0.175 C  
BRANCH  25  26
HETATM   26  C   UNL     1      -9.418  10.041  66.416  1.00  0.00    -0.186 C  
HETATM   27  H   UNL     1     -10.312   8.346  66.055  1.00  0.00     0.000 HD 
HETATM   28  O   UNL     1     -10.342   8.994  66.749  1.00  0.00    -0.261 OA 
BRANCH  26  29
HETATM   29  C   UNL     1      -8.022   9.424  66.096  1.00  0.00    -0.110 C  
BRANCH  29  30
HETATM   30  N   UNL     1      -8.000   8.671  64.842  1.00  0.00    -0.130 N  
HETATM   31  C   UNL     1      -8.947   8.879  63.876  1.00  0.00     0.226 C  
HETATM   32  H   UNL     1      -7.267   7.979  64.685  1.00  0.00     0.000 HD 
HETATM   33  O   UNL     1      -9.556   9.921  63.729  1.00  0.00    -0.237 OA 
BRANCH  31  34
HETATM   34  O   UNL     1      -9.137   7.752  63.157  1.00  0.00     0.875 OA 
BRANCH  34  35
HETATM   35  C   UNL     1      -7.945   7.107  62.666  1.00  0.00    -0.117 C  
BRANCH  35  36
HETATM   36  C   UNL     1      -7.814   5.719  63.201  1.00  0.00    -0.101 A  
HETATM   37  N   UNL     1      -8.122   3.406  63.422  1.00  0.00    -0.083 NA 
HETATM   38  C   UNL     1      -8.450   4.572  62.761  1.00  0.00    -0.100 A  
HETATM   39  C   UNL     1      -7.247   3.678  64.364  1.00  0.00    -0.059 A  
HETATM   40  S   UNL     1      -6.732   5.312  64.467  1.00  0.00    -0.048 SA 
ENDBRANCH  35  36
ENDBRANCH  34  35
ENDBRANCH  31  34
ENDBRANCH  29  30
BRANCH  29  41
HETATM   41  C   UNL     1      -6.870  10.482  66.145  1.00  0.00    -0.131 C  
BRANCH  41  42
HETATM   42  C   UNL     1      -7.270  11.943  66.122  1.00  0.00     0.645 A  
HETATM   43  C   UNL     1      -8.991  13.668  66.081  1.00  0.00     0.228 A  
HETATM   44  C   UNL     1      -8.601  12.340  65.951  1.00  0.00     0.449 A  
HETATM   45  C   UNL     1      -6.311  12.941  66.314  1.00  0.00     2.838 A  
HETATM   46  C   UNL     1      -6.693  14.285  66.422  1.00  0.00     3.442 A  
HETATM   47  C   UNL     1      -8.037  14.645  66.324  1.00  0.00     0.998 A  
ENDBRANCH  41  42
ENDBRANCH  29  41
ENDBRANCH  26  29
ENDBRANCH  25  26
ENDBRANCH  24  25
BRANCH  24  48
HETATM   48  C   UNL     1     -11.548  11.505  69.017  1.00  0.00    -0.383 C  
BRANCH  48  49
HETATM   49  C   UNL     1     -11.489  12.760  69.855  1.00  0.00    -0.141 A  
HETATM   50  C   UNL     1     -10.238  14.665  70.698  1.00  0.00     0.880 A  
HETATM   51  C   UNL     1     -10.312  13.519  69.907  1.00  0.00     1.088 A  
HETATM   52  C   UNL     1     -11.338  15.062  71.455  1.00  0.00    -0.327 A  
HETATM   53  C   UNL     1     -12.513  14.313  71.418  1.00  0.00    -0.437 A  
HETATM   54  C   UNL     1     -12.587  13.163  70.630  1.00  0.00    -0.286 A  
ENDBRANCH  48  49
ENDBRANCH  24  48
ENDBRANCH  22  24
ENDBRANCH   3  20
TORSDOF 18
ENDMDL
MODEL      124
REMARK 921   NORMALIZED FREE ENERGY PREDICTED BY IDOCK:   26.92 KCAL/MOL
REMARK 922        TOTAL FREE ENERGY PREDICTED BY IDOCK:   50.63 KCAL/MOL
REMARK 923 INTER-LIGAND FREE ENERGY PREDICTED BY IDOCK:   15.59 KCAL/MOL
REMARK 924 INTRA-LIGAND FREE ENERGY PREDICTED BY IDOCK:   35.05 KCAL/MOL
REMARK 927      BINDING AFFINITY PREDICTED BY RF-SCORE:    0.00 PKD
ROOT
HETATM    1  C   UNL     1      -9.501  12.218  70.305  1.00  0.00     4.414 C  
HETATM    2  C   UNL     1      -8.658  12.043  69.048  1.00  0.00     0.326 C  
HETATM    3  C   UNL     1      -9.420  11.470  67.828  1.00  0.00    -0.168 C  
HETATM    4  C   UNL     1      -7.929  13.357  68.741  1.00  0.00     0.019 C  
ENDROOT
BRANCH   3   5
HETATM    5  N   UNL     1     -10.524  12.285  67.293  1.00  0.00    -0.216 N  
HETATM    6  H   UNL     1     -11.451  11.866  67.234  1.00  0.00     0.000 HD 
BRANCH   5   7
HETATM    7  C   UNL     1     -10.364  13.576  66.872  1.00  0.00    -0.265 C  
HETATM    8  O   UNL     1     -10.560  14.529  67.622  1.00  0.00    -0.248 OA 
BRANCH   7   9
HETATM    9  N   UNL     1     -10.047  13.760  65.541  1.00  0.00    -0.301 N  
HETATM   10  C   UNL     1     -10.937  13.641  64.397  1.00  0.00    -0.366 C  
BRANCH   9  11
HETATM   11  C   UNL     1      -8.671  14.168  65.228  1.00  0.00     2.616 C  
BRANCH  11  12
HETATM   12  C   UNL     1      -7.744  13.934  66.392  1.00  0.00     1.669 A  
HETATM   13  C   UNL     1      -6.820  12.910  66.503  1.00  0.00     1.580 A  
HETATM   14  N   UNL     1      -7.719  14.840  67.457  1.00  0.00    -0.179 NA 
HETATM   15  S   UNL     1      -5.907  13.076  67.937  1.00  0.00    -0.139 SA 
HETATM   16  C   UNL     1      -7.588  15.306  70.557  1.00  0.00     0.955 C  
HETATM   17  C   UNL     1      -6.781  14.509  68.322  1.00  0.00    -0.116 A  
HETATM   18  C   UNL     1      -6.428  15.298  69.563  1.00  0.00    -0.152 C  
HETATM   19  C   UNL     1      -6.024  16.728  69.197  1.00  0.00    -0.165 C  
ENDBRANCH  11  12
ENDBRANCH   9  11
ENDBRANCH   7   9
ENDBRANCH   5   7
ENDBRANCH   3   5
BRANCH   3  20
HETATM   20  C   UNL     1      -9.753   9.954  67.999  1.00  0.00    -0.140 C  
HETATM   21  O   UNL     1     -10.585   9.359  67.315  1.00  0.00    -0.267 OA 
HETATM   22  N   UNL     1      -9.073   9.332  69.027  1.00  0.00    -0.144 N  
HETATM   23  H   UNL     1      -8.494   9.897  69.647  1.00  0.00     0.000 HD 
BRANCH  22  24
HETATM   24  C   UNL     1      -9.155   7.892  69.258  1.00  0.00    -0.148 C  
BRANCH  24  25
HETATM   25  C   UNL     1      -9.534   7.513  70.704  1.00  0.00    -0.164 C  
BRANCH  25  26
HETATM   26  C   UNL     1      -9.045   8.398  71.859  1.00  0.00    -0.221 C  
HETATM   27  H   UNL     1      -7.818   8.179  73.358  1.00  0.00     0.000 HD 
HETATM   28  O   UNL     1      -8.120   7.631  72.644  1.00  0.00    -0.105 OA 
BRANCH  26  29
HETATM   29  C   UNL     1     -10.141   9.003  72.788  1.00  0.00     0.892 C  
BRANCH  29  30
HETATM   30  N   UNL     1     -10.983   9.992  72.115  1.00  0.00     1.369 N  
HETATM   31  C   UNL     1     -10.585  10.580  70.944  1.00  0.00     0.817 C  
HETATM   32  H   UNL     1     -11.882  10.248  72.525  1.00  0.00     0.000 HD 
HETATM   33  O   UNL     1      -9.821  10.069  70.149  1.00  0.00    -0.241 OA 
BRANCH  31  34
HETATM   34  O   UNL     1     -11.121  11.814  70.835  1.00  0.00     1.259 OA 
BRANCH  34  35
HETATM   35  C   UNL     1     -12.531  11.919  71.119  1.00  0.00    -0.261 C  
BRANCH  35  36
HETATM   36  C   UNL     1     -12.830  13.102  71.979  1.00  0.00    -0.199 A  
HETATM   37  N   UNL     1     -13.740  15.149  72.670  1.00  0.00    -0.479 NA 
HETATM   38  C   UNL     1     -13.605  14.206  71.671  1.00  0.00    -0.366 A  
HETATM   39  C   UNL     1     -13.059  14.758  73.724  1.00  0.00     0.277 A  
HETATM   40  S   UNL     1     -12.282  13.233  73.598  1.00  0.00     5.450 SA 
ENDBRANCH  35  36
ENDBRANCH  34  35
ENDBRANCH  31  34
ENDBRANCH  29  30
BRANCH  29  41
HETATM   41  C   UNL     1     -11.006   7.906  73.493  1.00  0.00     0.338 C  
BRANCH  41  42
HETATM   42  C   UNL     1     -10.696   6.461  73.163  1.00  0.00    -0.294 A  
HETATM   43  C   UNL     1     -11.243   4.387  72.004  1.00  0.00     0.560 A  
HETATM   44  C   UNL     1     -11.589   5.662  72.438  1.00  0.00    -0.281 A  
HETATM   45  C   UNL     1      -9.477   5.894  73.545  1.00  0.00    -0.139 A  
HETATM   46  C   UNL     1      -9.132   4.600  73.132  1.00  0.00    -0.122 A  
HETATM   47  C   UNL     1     -10.010   3.854  72.345  1.00  0.00    -0.232 A  
ENDBRANCH  41  42
ENDBRANCH  29  41
ENDBRANCH  26  29
ENDBRANCH  25  26
ENDBRANCH  24  25
BRANCH  24  48
HETATM   48  C   UNL     1      -7.864   7.218  68.749  1.00  0.00    -0.121 C  
BRANCH  48  49
HETATM   49  C   UNL     1      -8.038   5.846  68.141  1.00  0.00    -0.109 A  
HETATM   50  C   UNL     1      -7.348   4.158  66.535  1.00  0.00    -0.080 A  
HETATM   51  C   UNL     1      -7.179   5.411  67.123  1.00  0.00    -0.075 A  
HETATM   52  C   UNL     1      -8.383   3.326  66.954  1.00  0.00    -0.097 A  
HETATM   53  C   UNL     1      -9.249   3.747  67.962  1.00  0.00    -0.216 A  
HETATM   54  C   UNL     1      -9.084   5.003  68.547  1.00  0.00    -0.136 A  
ENDBRANCH  48  49
ENDBRANCH  24  48
ENDBRANCH  22  24
ENDBRANCH   3  20
TORSDOF 18
ENDMDL
